data_image0
_chemical_formula_structural       HCH2CH3SCSH5SC2SHCHCHSFeHC2HCH3SHCH6SH2C4HCHFeHFeCH2CH2CHFeH2CHCH2SHC3SH2C2H4CHCHC2HCSH3C2HCHCHCH5CH3NFeH2CSCFeH3FeNH3CH2C2H4CH2CSHCHCHCHCSCH5CHSHCHFeS2H2C2SNH3SH3CHFeH4SC2HCHC2NHCFeCH3C2H2CHS2C2H2SHC2H4CH4C2H3NHCH3CH4C3NH3CHSHSH2CH3C5H2CSH5CHSC2H4CNH2CH3CHCSH2CH5C4H3FeH4CHC4HFeH2NCH5CHCHCHCHN2CH5SHSC3FeHCHCSNCH3CHCHSH3C2H2CH4C2HC2HC2NCHCHCHCH3CHCHFeH10CHCH3CHCH3CH2C2SCH2C4S2HSH3CH5CH2FeCHCH2FeCHSCHSH6CH3CHS2HC2HFeSC2FeCHC2H2C3HCH9CHC3HFe2CH2CHSHSH2CSCH2SH6SFe2H2SCH5CH2SH5FeHCSHC3N2H2C2HCH6CFeNSCSCH2CHSHCFeH2C3NHCSH2CHCH2CHS3CH2CH4CFe2H3CHS2H3CHCHC2SH2SHCSHFeHCHSH2C2HCH2CHC2H4Fe2CHSH3CHCFeC2H3CHCHCH2CH4C2HCHNC2SCHCH3C2HCH2C4H3NH2SCH2SHSH4CSC2HCH2C3H4C2HSH2NHSFeC2SHCH3CHCS2H3CHFeC2NSC2H2C2HC2H8CH2CHCHSH4C2HCH3SHFeH5FeH2C2HCHCFeHCHCHCH4CH2SHC2SCH4C2H4CH2SC2HCHFeCHCHCFeH2CH2FeHNHCS2C2FeH2S2CH3FeCHSC2HSC4H2FeH3CH2CSNH6CHCHCNH2SC4H3FeHCH2C2HFeHSCH7C4H3CHSCHCHNC2HCH2SHC2H3CHSHNHSC2H2CH2CHC2HSCHCHC2H3C2H2C2SH2C2H9CSH10S2CH2CHCHC3HFeHC2SH2CH5C2H3CHCH2CH3C2H4CH5C2HSH2CH3C2H2CH2C2FeN2H2CH3CHCHFeHCHCH3C2H2C2H2SHCH5FeNHCH4CH2CSHSH3SNH4CH2CSFeC2H2CSCHCHFeHCFeHCSCSCH2SC5HSHC3H2SCH7CH2CHC3H2C2HCH3SH2CHCH2FeHCHC2HCHCHSC2HSHSC3H2SH3CH5CSCHC2H3CHSCH4CFeCH4CH8C2HC2HFeSCSHC2H3CSH2CH4SHSCHSFeNHCHCNHCFeCH3CH2CH2C2H2CH3C2SH2C2H3CHC2HCHCHSCHCH2CH3SHSHCFeH3C3H2CHCH2SH3C2H2NH5SCH3CHFe2HCSH2CH2SHC2H4SHC3HSCH2C2NH4CNHCH2C2HFeHCHCHCH3CSH3FeC2HFeHCH2CHFeCH4SFeSCH2SCH2SCHCFeH3CSCNHSCH2CHCHCH2SFeH2SH2FeCH3C2H3SCH2CHC3FeC3HCSCHC2HCSH2CHSC2HCH3CHSHCHCH3CHFeCH3CSCH4CHCS2H3C4FeCSHFeHCH6CHCH7SFeH2CHCSHNHFeNCFeH4FeS2FeH4CHCSH2CSHSHFeC2HCH2C2SHCHFeCHCNSHCSCSNHCSH7CH2C2HC2H6CHCHFeC2H5SC2HC2HC3H6CHFeCH2CHFeCNHC2H3SH2CHSH2NH2CH3S2FeH3CH3C2HC4HC2HCH2SH3CHFeHC2NHCFeCSC2SH2CHC2HCSH2SHSHFeHC3HCHCHFeHSCH2CSHFeHC2SH3NC2SH2CNH2C4H10CSH3SCH4CHCH7C2HSFeSHCH3C2HC2S2HNCHC2H5C2SC2H4C2H4CHC3H2SCH2C2HCH9NHC2HCH5CH2C2HSH2SH3C3H2C2H2CHCNH2CFeH2SCH2CH5C2H8CHCH2SHC2HC3HFeHCFeH3FeH2S2CSC4HCH4C2H2CFeHCH2CHCH5C3H2CHSH4SHSFeC2HCSFeHSCHSFeCHC2SC2HFeH2C2H4CSC2H2SH6C2H3CSH4CH2FeHCH6SCHSNH4CHSCHSC2H3CH2CHCHCH5SCHSCHSCFeHCH3CNCFeH2CFeH5C2H5C4H6FeC3NH2CH2CNH2CHC5H3CNHCH4CHCH2SCH4CHFeC2H3CFeCH5C3HC2FeCSHSHFeH4CH2CHSHSHFeH7Fe2C2HCHCH4SHCHSH2SHC3HCFeC2HFeH4CNHNH3SH2C2SH4C2H2C2H2FeH3S2H2CH2CSC2SH3C2H4CSHCSHSHC3S2CFeHFeHSC6H2C2HSH2CHC2H4CH2CH2CHCHNSCHC2H6C2H3CHSH9C2H3CH2CSH2CFeCFeCFeHFeSHSHSFeCHSH3SNCH5CHSFeC4HCHCSH3NC2H3CHCHCH3CH3NFeH6CHC2S2HNC2HCH2CHCH3C4H2C4H5CHCFeH2CHCS2HSHSHSCH4C3H2NHCH5SH2C4HCNCHCH3CH4CH7SH2SH4C2HCHS2HCH3CHNH2CFeH3C3SCHCHCNCHCH3SC2HCHSHFeC3NCH5CHCFeH3CH2FeHCHCH2CH3CHC3H3SFeH3CH3C2HFeCH2CHCH2CH2
_chemical_formula_sum              "H1536 C896 S256 Fe128 N64"
_cell_length_a       36.2964
_cell_length_b       38.9585
_cell_length_c       32.0603
_cell_angle_alpha    64.4639
_cell_angle_beta     67.014
_cell_angle_gamma    81.3637

_space_group_name_H-M_alt    "P 1"
_space_group_IT_number       1

loop_
  _space_group_symop_operation_xyz
  'x, y, z'

loop_
  _atom_site_type_symbol
  _atom_site_label
  _atom_site_symmetry_multiplicity
  _atom_site_fract_x
  _atom_site_fract_y
  _atom_site_fract_z
  _atom_site_occupancy
  H   H1        1.0  0.97302  0.28394  0.76379  1.0000
  C   C1        1.0  0.11421  0.12839  0.68603  1.0000
  H   H2        1.0  0.90518  0.09643  0.92522  1.0000
  H   H3        1.0  0.34573  0.24430  0.67593  1.0000
  C   C2        1.0  0.35674  0.15102  0.61268  1.0000
  H   H4        1.0  0.23029  0.17985  0.60450  1.0000
  H   H5        1.0  0.91078  0.33258  0.58879  1.0000
  H   H6        1.0  0.07631  0.32437  0.92570  1.0000
  S   S1        1.0  0.25363  0.09420  0.61735  1.0000
  C   C3        1.0  0.94302  0.33322  0.58300  1.0000
  S   S2        1.0  0.05384  0.18899  0.96525  1.0000
  H   H7        1.0  0.20864  0.11213  0.99960  1.0000
  H   H8        1.0  0.26306  0.32601  0.69465  1.0000
  H   H9        1.0  0.25937  0.12322  0.89854  1.0000
  H   H10       1.0  0.22213  0.14784  0.68501  1.0000
  H   H11       1.0  0.25614  0.33167  0.59471  1.0000
  S   S3        1.0  0.34365  0.10436  0.92739  1.0000
  C   C4        1.0  0.94294  0.11691  0.95030  1.0000
  C   C5        1.0  0.12689  0.17960  0.72991  1.0000
  S   S4        1.0  0.32111  0.32625  0.01482  1.0000
  H   H12       1.0  0.27595  0.18489  0.98005  1.0000
  C   C6        1.0  0.35402  0.21553  0.91356  1.0000
  H   H13       1.0  0.95574  0.27976  0.99782  1.0000
  C   C7        1.0  0.01618  0.30220  0.95662  1.0000
  H   H14       1.0  0.35427  0.30610  0.75295  1.0000
  S   S5        1.0  0.11206  0.23335  0.84844  1.0000
  Fe  Fe1       1.0  0.12404  0.34131  0.62202  1.0000
  H   H15       1.0  0.19757  0.29582  0.73473  1.0000
  C   C8        1.0  0.28257  0.17765  0.78296  1.0000
  C   C9        1.0  0.98090  0.29095  0.99855  1.0000
  H   H16       1.0  0.18864  0.18029  0.99022  1.0000
  C   C10       1.0  0.25255  0.20286  0.79442  1.0000
  H   H17       1.0  0.33807  0.22372  0.88870  1.0000
  H   H18       1.0  0.89854  0.23072  0.86275  1.0000
  H   H19       1.0  0.34071  0.18401  0.84084  1.0000
  S   S6        1.0  0.97695  0.17302  0.74608  1.0000
  H   H20       1.0  0.35514  0.31135  0.60220  1.0000
  C   C11       1.0  0.26094  0.29972  0.69012  1.0000
  H   H21       1.0  0.13976  0.24166  0.69466  1.0000
  H   H22       1.0  0.91970  0.33812  0.84633  1.0000
  H   H23       1.0  0.28117  0.16310  0.76148  1.0000
  H   H24       1.0  0.17596  0.15381  0.78532  1.0000
  H   H25       1.0  0.10652  0.22375  0.75773  1.0000
  H   H26       1.0  0.95254  0.30147  0.86667  1.0000
  S   S7        1.0  0.90811  0.25182  0.70519  1.0000
  H   H27       1.0  0.91079  0.15840  0.87981  1.0000
  H   H28       1.0  0.10364  0.32811  0.79113  1.0000
  C   C12       1.0  0.29008  0.26369  0.63708  1.0000
  C   C13       1.0  0.07058  0.24094  0.63682  1.0000
  C   C14       1.0  0.19512  0.32206  0.90762  1.0000
  C   C15       1.0  0.33758  0.11862  0.65493  1.0000
  H   H29       1.0  0.17980  0.11040  0.77698  1.0000
  C   C16       1.0  0.01846  0.18132  0.82427  1.0000
  H   H30       1.0  0.21177  0.21651  0.99392  1.0000
  Fe  Fe2       1.0  0.07114  0.24922  0.91036  1.0000
  H   H31       1.0  0.00105  0.16128  0.93397  1.0000
  Fe  Fe3       1.0  0.29022  0.28283  0.01073  1.0000
  C   C17       1.0  0.19857  0.16208  0.70654  1.0000
  H   H32       1.0  0.20415  0.20868  0.56466  1.0000
  H   H33       1.0  0.28303  0.32971  0.77369  1.0000
  C   C18       1.0  0.92747  0.21583  0.85532  1.0000
  H   H34       1.0  0.20984  0.30302  0.88860  1.0000
  H   H35       1.0  0.89533  0.17313  0.92810  1.0000
  C   C19       1.0  0.03899  0.21997  0.59762  1.0000
  H   H36       1.0  0.96658  0.10392  0.96594  1.0000
  Fe  Fe4       1.0  0.15961  0.23176  0.87741  1.0000
  H   H37       1.0  0.94862  0.23279  0.85625  1.0000
  H   H38       1.0  0.27347  0.09514  0.03157  1.0000
  C   C20       1.0  0.00997  0.19955  0.64434  1.0000
  H   H39       1.0  0.21189  0.26520  0.70296  1.0000
  C   C21       1.0  0.37022  0.29480  0.77938  1.0000
  H   H40       1.0  0.00786  0.12435  0.87779  1.0000
  H   H41       1.0  0.28066  0.23949  0.67444  1.0000
  S   S8        1.0  0.23098  0.31074  0.02567  1.0000
  H   H42       1.0  0.00366  0.20739  0.80666  1.0000
  C   C22       1.0  0.14973  0.12858  0.70114  1.0000
  C   C23       1.0  0.96866  0.30583  0.72993  1.0000
  C   C24       1.0  0.34697  0.27196  0.67752  1.0000
  S   S9        1.0  0.22106  0.25738  0.83010  1.0000
  H   H43       1.0  0.28964  0.23191  0.85648  1.0000
  H   H44       1.0  0.04257  0.22168  0.71594  1.0000
  C   C25       1.0  0.21720  0.19478  0.97861  1.0000
  C   C26       1.0  0.04181  0.22054  0.68326  1.0000
  H   H45       1.0  0.20194  0.09782  0.90242  1.0000
  H   H46       1.0  0.02377  0.33304  0.70710  1.0000
  H   H47       1.0  0.19074  0.15952  0.60046  1.0000
  H   H48       1.0  0.32360  0.14534  0.99901  1.0000
  C   C27       1.0  0.98876  0.14837  0.86440  1.0000
  H   H49       1.0  0.23235  0.33556  0.80881  1.0000
  C   C28       1.0  0.25554  0.22266  0.82049  1.0000
  H   H50       1.0  0.03853  0.18785  0.83873  1.0000
  C   C29       1.0  0.28757  0.21632  0.83656  1.0000
  C   C30       1.0  0.30560  0.10092  0.65694  1.0000
  H   H51       1.0  0.17823  0.30332  0.94695  1.0000
  C   C31       1.0  0.97514  0.17696  0.92440  1.0000
  S   S10       1.0  0.35040  0.13799  0.78760  1.0000
  H   H52       1.0  0.11932  0.14750  0.64672  1.0000
  H   H53       1.0  0.15868  0.21533  0.74407  1.0000
  H   H54       1.0  0.34699  0.28500  0.81739  1.0000
  C   C32       1.0  0.92156  0.17440  0.89450  1.0000
  C   C33       1.0  0.24946  0.16676  0.99294  1.0000
  H   H55       1.0  0.22373  0.13410  0.76429  1.0000
  C   C34       1.0  0.21715  0.29381  0.69921  1.0000
  H   H56       1.0  0.93802  0.15852  0.00398  1.0000
  C   C35       1.0  0.31172  0.14845  0.57480  1.0000
  H   H57       1.0  0.26713  0.27628  0.72161  1.0000
  C   C36       1.0  0.31421  0.17076  0.79996  1.0000
  H   H58       1.0  0.01592  0.30936  0.54670  1.0000
  H   H59       1.0  0.94989  0.30322  0.60315  1.0000
  H   H60       1.0  0.97476  0.13942  0.84524  1.0000
  H   H61       1.0  0.18081  0.22296  0.63702  1.0000
  H   H62       1.0  0.33029  0.26923  0.71612  1.0000
  C   C37       1.0  0.33224  0.30575  0.63989  1.0000
  H   H63       1.0  0.93641  0.31067  0.73640  1.0000
  H   H64       1.0  0.11006  0.09917  0.69045  1.0000
  H   H65       1.0  0.11775  0.15720  0.76862  1.0000
  N   N1        1.0  0.16117  0.16659  0.69500  1.0000
  Fe  Fe5       1.0  0.12131  0.31687  0.54509  1.0000
  H   H66       1.0  0.98809  0.20491  0.89456  1.0000
  H   H67       1.0  0.98056  0.29369  0.70163  1.0000
  C   C38       1.0  0.06928  0.24075  0.59391  1.0000
  S   S11       1.0  0.08823  0.12823  0.88519  1.0000
  C   C39       1.0  0.26406  0.26171  0.60979  1.0000
  Fe  Fe6       1.0  0.10587  0.19052  0.98545  1.0000
  H   H68       1.0  0.23267  0.26971  0.62501  1.0000
  H   H69       1.0  0.21175  0.19029  0.69473  1.0000
  H   H70       1.0  0.08561  0.13531  0.71060  1.0000
  Fe  Fe7       1.0  0.91569  0.18993  0.74554  1.0000
  N   N2        1.0  0.95719  0.15517  0.90751  1.0000
  H   H71       1.0  0.24613  0.32487  0.92303  1.0000
  H   H72       1.0  0.92855  0.34116  0.65072  1.0000
  H   H73       1.0  0.22796  0.21044  0.93758  1.0000
  C   C40       1.0  0.13400  0.21718  0.73113  1.0000
  H   H74       1.0  0.25937  0.15041  0.96943  1.0000
  H   H75       1.0  0.32043  0.25618  0.61661  1.0000
  C   C41       1.0  0.01181  0.19941  0.68725  1.0000
  C   C42       1.0  0.31641  0.18960  0.82745  1.0000
  H   H76       1.0  0.35976  0.23610  0.00352  1.0000
  H   H77       1.0  0.98653  0.18347  0.64730  1.0000
  H   H78       1.0  0.30865  0.33521  0.56243  1.0000
  H   H79       1.0  0.26382  0.23211  0.61323  1.0000
  C   C43       1.0  0.34356  0.16614  0.57284  1.0000
  H   H80       1.0  0.14117  0.10798  0.74051  1.0000
  H   H81       1.0  0.14151  0.20329  0.63438  1.0000
  C   C44       1.0  0.94413  0.31982  0.83406  1.0000
  S   S12       1.0  0.11984  0.25212  0.93552  1.0000
  H   H82       1.0  0.17566  0.11567  0.68039  1.0000
  C   C45       1.0  0.36598  0.22228  0.97874  1.0000
  H   H83       1.0  0.91933  0.19985  0.96334  1.0000
  C   C46       1.0  0.04885  0.31618  0.95790  1.0000
  H   H84       1.0  0.35816  0.19124  0.54029  1.0000
  C   C47       1.0  0.16945  0.19581  0.64250  1.0000
  H   H85       1.0  0.27711  0.28001  0.56939  1.0000
  C   C48       1.0  0.34575  0.23315  0.94590  1.0000
  S   S13       1.0  0.11697  0.32002  0.70170  1.0000
  C   C49       1.0  0.19369  0.13875  0.76151  1.0000
  H   H86       1.0  0.91675  0.11990  0.98143  1.0000
  H   H87       1.0  0.10005  0.18397  0.71999  1.0000
  H   H88       1.0  0.34766  0.10714  0.68591  1.0000
  H   H89       1.0  0.20769  0.31574  0.66947  1.0000
  H   H90       1.0  0.03766  0.21998  0.56450  1.0000
  C   C50       1.0  0.28489  0.33427  0.59785  1.0000
  H   H91       1.0  0.95516  0.26793  0.56255  1.0000
  S   S14       1.0  0.07408  0.33450  0.60182  1.0000
  H   H92       1.0  0.22783  0.20798  0.78176  1.0000
  C   C51       1.0  0.04671  0.31809  0.00140  1.0000
  H   H93       1.0  0.96214  0.20396  0.97533  1.0000
  Fe  Fe8       1.0  0.09847  0.17313  0.90539  1.0000
  S   S15       1.0  0.30894  0.26761  0.94557  1.0000
  S   S16       1.0  0.14954  0.17008  0.92919  1.0000
  H   H94       1.0  0.93725  0.21673  0.81739  1.0000
  H   H95       1.0  0.28865  0.32869  0.84570  1.0000
  C   C52       1.0  0.20047  0.18480  0.60128  1.0000
  C   C53       1.0  0.94653  0.18498  0.96938  1.0000
  S   S17       1.0  0.02253  0.29213  0.90614  1.0000
  N   N3        1.0  0.29117  0.30082  0.64134  1.0000
  H   H96       1.0  0.04741  0.10697  0.99218  1.0000
  H   H97       1.0  0.93232  0.30095  0.82430  1.0000
  H   H98       1.0  0.09407  0.25659  0.63435  1.0000
  S   S18       1.0  0.17068  0.31946  0.56946  1.0000
  H   H99       1.0  0.00700  0.32405  0.78915  1.0000
  H   H100      1.0  0.03808  0.17204  0.79465  1.0000
  H   H101      1.0  0.17282  0.33976  0.89217  1.0000
  C   C54       1.0  0.29295  0.11573  0.61661  1.0000
  H   H102      1.0  0.24172  0.09988  0.84745  1.0000
  Fe  Fe9       1.0  0.37195  0.10647  0.85046  1.0000
  H   H103      1.0  0.07234  0.32817  0.00261  1.0000
  H   H104      1.0  0.13604  0.23522  0.02351  1.0000
  H   H105      1.0  0.33374  0.33095  0.64699  1.0000
  H   H106      1.0  0.30181  0.15996  0.54369  1.0000
  S   S19       1.0  0.88089  0.17257  0.71324  1.0000
  C   C55       1.0  0.99263  0.34251  0.71043  1.0000
  C   C56       1.0  0.00201  0.17172  0.12643  1.0000
  H   H107      1.0  0.99849  0.27422  0.33218  1.0000
  C   C57       1.0  0.14648  0.23896  0.08317  1.0000
  H   H108      1.0  0.05903  0.28822  0.26246  1.0000
  C   C58       1.0  0.01197  0.33988  0.52440  1.0000
  C   C59       1.0  0.99660  0.34021  0.25185  1.0000
  N   N4        1.0  0.16118  0.29807  0.31579  1.0000
  H   H109      1.0  0.24682  0.24190  0.31298  1.0000
  C   C60       1.0  0.93145  0.19634  0.09035  1.0000
  Fe  Fe10      1.0  0.30266  0.28862  0.09608  1.0000
  C   C61       1.0  0.13215  0.22121  0.06227  1.0000
  H   H110      1.0  0.31150  0.14338  0.06027  1.0000
  H   H111      1.0  0.37081  0.25932  0.05409  1.0000
  H   H112      1.0  0.89768  0.32427  0.05539  1.0000
  C   C62       1.0  0.95649  0.32660  0.50578  1.0000
  C   C63       1.0  0.11357  0.18522  0.09144  1.0000
  H   H113      1.0  0.12819  0.24894  0.37986  1.0000
  H   H114      1.0  0.92948  0.21145  0.14771  1.0000
  C   C64       1.0  0.10832  0.16753  0.14182  1.0000
  H   H115      1.0  0.99281  0.31651  0.18696  1.0000
  S   S20       1.0  0.10447  0.26824  0.53587  1.0000
  S   S21       1.0  0.16152  0.24143  0.15983  1.0000
  C   C65       1.0  0.01373  0.20982  0.12189  1.0000
  C   C66       1.0  0.93452  0.30119  0.24265  1.0000
  H   H116      1.0  0.08679  0.28492  0.43183  1.0000
  H   H117      1.0  0.11826  0.17147  0.20168  1.0000
  S   S22       1.0  0.27669  0.24263  0.09051  1.0000
  H   H118      1.0  0.35329  0.33851  0.16384  1.0000
  C   C67       1.0  0.37234  0.11537  0.11300  1.0000
  C   C68       1.0  0.14175  0.22096  0.13342  1.0000
  H   H119      1.0  0.09410  0.13964  0.16453  1.0000
  H   H120      1.0  0.02359  0.15111  0.14031  1.0000
  H   H121      1.0  0.05874  0.31435  0.15655  1.0000
  H   H122      1.0  0.10332  0.32876  0.37844  1.0000
  C   C69       1.0  0.09832  0.29812  0.39054  1.0000
  H   H123      1.0  0.00990  0.17347  0.08832  1.0000
  H   H124      1.0  0.18151  0.24510  0.30829  1.0000
  H   H125      1.0  0.95249  0.27115  0.50666  1.0000
  H   H126      1.0  0.15468  0.27406  0.39386  1.0000
  C   C70       1.0  0.22725  0.14347  0.13075  1.0000
  C   C71       1.0  0.13364  0.30343  0.28829  1.0000
  H   H127      1.0  0.90946  0.21901  0.08226  1.0000
  H   H128      1.0  0.16071  0.26674  0.06048  1.0000
  H   H129      1.0  0.24399  0.28787  0.31285  1.0000
  N   N5        1.0  0.00045  0.29969  0.25651  1.0000
  H   H130      1.0  0.04641  0.26042  0.23833  1.0000
  C   C72       1.0  0.06914  0.31568  0.18407  1.0000
  H   H131      1.0  0.96137  0.20838  0.06262  1.0000
  H   H132      1.0  0.17335  0.13914  0.07125  1.0000
  H   H133      1.0  0.96966  0.34060  0.46446  1.0000
  C   C73       1.0  0.98118  0.27361  0.31054  1.0000
  H   H134      1.0  0.21185  0.28538  0.26016  1.0000
  H   H135      1.0  0.03653  0.22487  0.08436  1.0000
  H   H136      1.0  0.98624  0.26739  0.22350  1.0000
  H   H137      1.0  0.20807  0.18428  0.07323  1.0000
  C   C74       1.0  0.92882  0.18460  0.14396  1.0000
  C   C75       1.0  0.26974  0.11153  0.05406  1.0000
  C   C76       1.0  0.96679  0.28401  0.52168  1.0000
  N   N6        1.0  0.95985  0.15702  0.15941  1.0000
  H   H138      1.0  0.99945  0.27973  0.50669  1.0000
  H   H139      1.0  0.98039  0.13432  0.22136  1.0000
  H   H140      1.0  0.16689  0.29291  0.22106  1.0000
  C   C77       1.0  0.04380  0.28942  0.23778  1.0000
  H   H141      1.0  0.13113  0.32983  0.21405  1.0000
  S   S23       1.0  0.09911  0.16024  0.06559  1.0000
  H   H142      1.0  0.98880  0.22952  0.12505  1.0000
  S   S24       1.0  0.01103  0.30436  0.09953  1.0000
  H   H143      1.0  0.92697  0.33017  0.24113  1.0000
  H   H144      1.0  0.92933  0.12462  0.23810  1.0000
  C   C78       1.0  0.97907  0.29202  0.04251  1.0000
  H   H145      1.0  0.93858  0.16777  0.27044  1.0000
  H   H146      1.0  0.10048  0.30573  0.17508  1.0000
  H   H147      1.0  0.89817  0.17237  0.16933  1.0000
  C   C79       1.0  0.01223  0.30499  0.04411  1.0000
  C   C80       1.0  0.12200  0.18551  0.16286  1.0000
  C   C81       1.0  0.95456  0.12115  0.15491  1.0000
  C   C82       1.0  0.33700  0.33657  0.41852  1.0000
  C   C83       1.0  0.19431  0.27239  0.30082  1.0000
  H   H148      1.0  0.95683  0.22689  0.30609  1.0000
  H   H149      1.0  0.26031  0.18459  0.05722  1.0000
  C   C84       1.0  0.88297  0.34142  0.07606  1.0000
  S   S25       1.0  0.24415  0.31713  0.11712  1.0000
  H   H150      1.0  0.01150  0.33341  0.31587  1.0000
  H   H151      1.0  0.96157  0.20362  0.20982  1.0000
  H   H152      1.0  0.11037  0.32470  0.29475  1.0000
  H   H153      1.0  0.92338  0.17240  0.08532  1.0000
  H   H154      1.0  0.90978  0.18909  0.23213  1.0000
  C   C85       1.0  0.95312  0.14698  0.21300  1.0000
  H   H155      1.0  0.29887  0.32501  0.38851  1.0000
  S   S26       1.0  0.34313  0.27871  0.13805  1.0000
  C   C86       1.0  0.13706  0.27830  0.37061  1.0000
  C   C87       1.0  0.19897  0.11997  0.06786  1.0000
  H   H156      1.0  0.07290  0.34101  0.47319  1.0000
  H   H157      1.0  0.11697  0.27644  0.30235  1.0000
  H   H158      1.0  0.91784  0.27992  0.28024  1.0000
  H   H159      1.0  0.17740  0.33914  0.21486  1.0000
  C   C88       1.0  0.15383  0.31711  0.23139  1.0000
  N   N7        1.0  0.23804  0.14086  0.04740  1.0000
  H   H160      1.0  0.21242  0.24849  0.36636  1.0000
  H   H161      1.0  0.33204  0.14806  0.15374  1.0000
  C   C89       1.0  0.31145  0.12728  0.03907  1.0000
  H   H162      1.0  0.03643  0.33700  0.45112  1.0000
  H   H163      1.0  0.19267  0.09903  0.10694  1.0000
  H   H164      1.0  0.02668  0.20544  0.14996  1.0000
  C   C90       1.0  0.22571  0.26245  0.32529  1.0000
  H   H165      1.0  0.25280  0.12531  0.13711  1.0000
  C   C91       1.0  0.17790  0.33660  0.30131  1.0000
  S   S27       1.0  0.37592  0.30823  0.39834  1.0000
  H   H166      1.0  0.95221  0.28240  0.07544  1.0000
  H   H167      1.0  0.20266  0.31605  0.36232  1.0000
  C   C92       1.0  0.98016  0.29549  0.22591  1.0000
  H   H168      1.0  0.00634  0.21852  0.30893  1.0000
  H   H169      1.0  0.96315  0.12632  0.11530  1.0000
  H   H170      1.0  0.35105  0.17375  0.08851  1.0000
  H   H171      1.0  0.07446  0.29456  0.37909  1.0000
  H   H172      1.0  0.92350  0.32804  0.51503  1.0000
  C   C93       1.0  0.94026  0.17917  0.23142  1.0000
  C   C94       1.0  0.19010  0.34150  0.33968  1.0000
  C   C95       1.0  0.23388  0.16508  0.07510  1.0000
  C   C96       1.0  0.97702  0.23128  0.32198  1.0000
  H   H173      1.0  0.95078  0.28357  0.32715  1.0000
  H   H174      1.0  0.96351  0.21503  0.36286  1.0000
  H   H175      1.0  0.22428  0.16461  0.14655  1.0000
  Fe  Fe11      1.0  0.21916  0.27391  0.10579  1.0000
  H   H176      1.0  0.92348  0.29828  0.21647  1.0000
  H   H177      1.0  0.33232  0.10343  0.04591  1.0000
  H   H178      1.0  0.92252  0.11183  0.17327  1.0000
  H   H179      1.0  0.19904  0.12628  0.15203  1.0000
  C   C97       1.0  0.35945  0.15291  0.12005  1.0000
  H   H180      1.0  0.34632  0.09501  0.13672  1.0000
  C   C98       1.0  0.19572  0.09694  0.04042  1.0000
  C   C99       1.0  0.30198  0.34001  0.40859  1.0000
  C   C100      1.0  0.97836  0.46220  0.58949  1.0000
  C   C101      1.0  0.12431  0.35054  0.76045  1.0000
  H   H181      1.0  0.03635  0.51001  0.81319  1.0000
  Fe  Fe12      1.0  0.23768  0.47068  0.68405  1.0000
  H   H182      1.0  0.06234  0.50695  0.73203  1.0000
  H   H183      1.0  0.25845  0.37687  0.62931  1.0000
  N   N8        1.0  0.03582  0.44856  0.84188  1.0000
  C   C102      1.0  0.09357  0.41673  0.87290  1.0000
  H   H184      1.0  0.95716  0.45124  0.58180  1.0000
  H   H185      1.0  0.37284  0.58331  0.97213  1.0000
  H   H186      1.0  0.18902  0.51226  0.54419  1.0000
  H   H187      1.0  0.00034  0.41868  0.67756  1.0000
  H   H188      1.0  0.37256  0.44782  0.58245  1.0000
  C   C103      1.0  0.12791  0.56658  0.79433  1.0000
  H   H189      1.0  0.19902  0.56086  0.68872  1.0000
  C   C104      1.0  0.21690  0.43176  0.98132  1.0000
  H   H190      1.0  0.20957  0.44365  0.86580  1.0000
  C   C105      1.0  0.27829  0.35634  0.82314  1.0000
  H   H191      1.0  0.31248  0.38128  0.59806  1.0000
  C   C106      1.0  0.20523  0.53034  0.80159  1.0000
  H   H192      1.0  0.04586  0.47164  0.72034  1.0000
  N   N9        1.0  0.16614  0.57816  0.74937  1.0000
  N   N10       1.0  0.29585  0.55325  0.98842  1.0000
  C   C107      1.0  0.96910  0.56915  0.86237  1.0000
  H   H193      1.0  0.32728  0.50654  0.02846  1.0000
  H   H194      1.0  0.91417  0.35429  0.76617  1.0000
  H   H195      1.0  0.14818  0.54352  0.54005  1.0000
  H   H196      1.0  0.17277  0.40523  0.89511  1.0000
  H   H197      1.0  0.97815  0.35635  0.60861  1.0000
  S   S28       1.0  0.89829  0.53067  0.89867  1.0000
  H   H198      1.0  0.24603  0.53483  0.86234  1.0000
  S   S29       1.0  0.29342  0.43912  0.66166  1.0000
  C   C108      1.0  0.94470  0.55076  0.85327  1.0000
  C   C109      1.0  0.18005  0.48400  0.94042  1.0000
  C   C110      1.0  0.18744  0.40625  0.99322  1.0000
  Fe  Fe13      1.0  0.28222  0.54770  0.62575  1.0000
  H   H199      1.0  0.26156  0.37584  0.75771  1.0000
  C   C111      1.0  0.30726  0.55428  0.82832  1.0000
  H   H200      1.0  0.17648  0.44331  0.83728  1.0000
  C   C112      1.0  0.27527  0.39778  0.86416  1.0000
  S   S30       1.0  0.17883  0.44240  0.74056  1.0000
  N   N11       1.0  0.25025  0.37517  0.85611  1.0000
  C   C113      1.0  0.04944  0.39465  0.70183  1.0000
  H   H201      1.0  0.10185  0.38876  0.89703  1.0000
  H   H202      1.0  0.20537  0.38841  0.82223  1.0000
  H   H203      1.0  0.29570  0.35302  0.92151  1.0000
  C   C114      1.0  0.32633  0.53792  0.01284  1.0000
  H   H204      1.0  0.90680  0.53652  0.55507  1.0000
  C   C115      1.0  0.04302  0.48120  0.74942  1.0000
  H   H205      1.0  0.25205  0.48488  0.01305  1.0000
  S   S31       1.0  0.26607  0.50515  0.70439  1.0000
  H   H206      1.0  0.10667  0.55517  0.72727  1.0000
  H   H207      1.0  0.05411  0.50272  0.61608  1.0000
  H   H208      1.0  0.20990  0.35951  0.93239  1.0000
  C   C116      1.0  0.13675  0.35271  0.71223  1.0000
  C   C117      1.0  0.33343  0.58371  0.81360  1.0000
  H   H209      1.0  0.90043  0.53767  0.74039  1.0000
  H   H210      1.0  0.18927  0.37641  0.01485  1.0000
  C   C118      1.0  0.32459  0.50868  0.94164  1.0000
  H   H211      1.0  0.98630  0.38579  0.87135  1.0000
  H   H212      1.0  0.29007  0.42273  0.82901  1.0000
  H   H213      1.0  0.13419  0.59101  0.97978  1.0000
  H   H214      1.0  0.24280  0.42420  0.79400  1.0000
  C   C119      1.0  0.16980  0.55477  0.72052  1.0000
  C   C120      1.0  0.13774  0.37789  0.76902  1.0000
  H   H215      1.0  0.30841  0.49717  0.92711  1.0000
  C   C121      1.0  0.19434  0.42471  0.85954  1.0000
  C   C122      1.0  0.95700  0.54932  0.80697  1.0000
  H   H216      1.0  0.16916  0.52383  0.74386  1.0000
  C   C123      1.0  0.94713  0.35558  0.61079  1.0000
  C   C124      1.0  0.20298  0.57064  0.76273  1.0000
  N   N12       1.0  0.97793  0.36575  0.74101  1.0000
  C   C125      1.0  0.88066  0.56159  0.72851  1.0000
  H   H217      1.0  0.13284  0.39939  0.98603  1.0000
  C   C126      1.0  0.25021  0.59246  0.85221  1.0000
  H   H218      1.0  0.00153  0.56705  0.73346  1.0000
  C   C127      1.0  0.26251  0.34894  0.78934  1.0000
  H   H219      1.0  0.99577  0.41930  0.73435  1.0000
  C   C128      1.0  0.01916  0.45502  0.57103  1.0000
  H   H220      1.0  0.93190  0.43782  0.73608  1.0000
  H   H221      1.0  0.30599  0.37417  0.79693  1.0000
  H   H222      1.0  0.09709  0.43768  0.88585  1.0000
  C   C129      1.0  0.11334  0.58664  0.01803  1.0000
  H   H223      1.0  0.23574  0.49060  0.94559  1.0000
  C   C130      1.0  0.00430  0.40108  0.71338  1.0000
  H   H224      1.0  0.93617  0.38500  0.59745  1.0000
  Fe  Fe14      1.0  0.32269  0.47626  0.67778  1.0000
  H   H225      1.0  0.17664  0.51419  0.92145  1.0000
  H   H226      1.0  0.90021  0.39466  0.54613  1.0000
  H   H227      1.0  0.01144  0.48942  0.76260  1.0000
  H   H228      1.0  0.93316  0.48818  0.63360  1.0000
  H   H229      1.0  0.05556  0.37470  0.73539  1.0000
  H   H230      1.0  0.23589  0.52603  0.80231  1.0000
  H   H231      1.0  0.28060  0.39582  0.56350  1.0000
  H   H232      1.0  0.07133  0.54643  0.95488  1.0000
  H   H233      1.0  0.32280  0.48623  0.97819  1.0000
  H   H234      1.0  0.25638  0.40968  0.89151  1.0000
  C   C131      1.0  0.30836  0.37579  0.88377  1.0000
  H   H235      1.0  0.11937  0.52726  0.98866  1.0000
  C   C132      1.0  0.91967  0.40911  0.76468  1.0000
  H   H236      1.0  0.04777  0.38827  0.87234  1.0000
  H   H237      1.0  0.28032  0.55181  0.93078  1.0000
  H   H238      1.0  0.99654  0.49158  0.90251  1.0000
  C   C133      1.0  0.93597  0.37851  0.74371  1.0000
  H   H239      1.0  0.87665  0.45580  0.91011  1.0000
  C   C134      1.0  0.25529  0.53560  0.02492  1.0000
  H   H240      1.0  0.35628  0.51252  0.91566  1.0000
  H   H241      1.0  0.23197  0.54840  0.00865  1.0000
  H   H242      1.0  0.06292  0.38436  0.67186  1.0000
  C   C135      1.0  0.96479  0.48309  0.61872  1.0000
  H   H243      1.0  0.99385  0.36024  0.67179  1.0000
  H   H244      1.0  0.34553  0.58570  0.71817  1.0000
  C   C136      1.0  0.16407  0.38140  0.67288  1.0000
  C   C137      1.0  0.99194  0.56886  0.76874  1.0000
  S   S32       1.0  0.35486  0.45133  0.73135  1.0000
  C   C138      1.0  0.22611  0.34584  0.90623  1.0000
  H   H245      1.0  0.94640  0.56648  0.57461  1.0000
  H   H246      1.0  0.90675  0.42924  0.94587  1.0000
  C   C139      1.0  0.30691  0.54754  0.94140  1.0000
  C   C140      1.0  0.15058  0.45842  0.95255  1.0000
  C   C141      1.0  0.98122  0.34367  0.79146  1.0000
  C   C142      1.0  0.02965  0.48979  0.88909  1.0000
  S   S33       1.0  0.24915  0.51535  0.60729  1.0000
  S   S34       1.0  0.97558  0.52699  0.66015  1.0000
  H   H247      1.0  0.96107  0.56816  0.89907  1.0000
  S   S35       1.0  0.07471  0.57782  0.63220  1.0000
  H   H248      1.0  0.32502  0.39582  0.88674  1.0000
  H   H249      1.0  0.04158  0.51669  0.88359  1.0000
  H   H250      1.0  0.93416  0.39043  0.70605  1.0000
  C   C143      1.0  0.03300  0.49141  0.60868  1.0000
  H   H251      1.0  0.12435  0.53501  0.81252  1.0000
  H   H252      1.0  0.13989  0.58793  0.66728  1.0000
  H   H253      1.0  0.98840  0.36279  0.80495  1.0000
  H   H254      1.0  0.88670  0.41067  0.77519  1.0000
  H   H255      1.0  0.14152  0.53822  0.68337  1.0000
  C   C144      1.0  0.26587  0.55847  0.84836  1.0000
  H   H256      1.0  0.93909  0.53386  0.80025  1.0000
  H   H257      1.0  0.89569  0.57760  0.68791  1.0000
  Fe  Fe15      1.0  0.30785  0.48723  0.58590  1.0000
  C   C145      1.0  0.04624  0.46864  0.58193  1.0000
  H   H258      1.0  0.97760  0.47276  0.84222  1.0000
  C   C146      1.0  0.05551  0.44896  0.79062  1.0000
  H   H259      1.0  0.17489  0.38250  0.63582  1.0000
  H   H260      1.0  0.07746  0.46222  0.56905  1.0000
  Fe  Fe16      1.0  0.08853  0.39373  0.54393  1.0000
  C   C147      1.0  0.07015  0.57406  0.95764  1.0000
  H   H261      1.0  0.03850  0.46649  0.91821  1.0000
  S   S36       1.0  0.25855  0.41544  0.99891  1.0000
  C   C148      1.0  0.21325  0.47067  0.95466  1.0000
  H   H262      1.0  0.18400  0.52665  0.83917  1.0000
  S   S37       1.0  0.10751  0.47507  0.93833  1.0000
  H   H263      1.0  0.19967  0.50738  0.79332  1.0000
  H   H264      1.0  0.02809  0.54844  0.03208  1.0000
  H   H265      1.0  0.07993  0.48929  0.82453  1.0000
  H   H266      1.0  0.97732  0.43918  0.90039  1.0000
  H   H267      1.0  0.03084  0.40810  0.91657  1.0000
  H   H268      1.0  0.98197  0.42157  0.81385  1.0000
  C   C149      1.0  0.99085  0.44533  0.86009  1.0000
  H   H269      1.0  0.08855  0.45221  0.77755  1.0000
  H   H270      1.0  0.06498  0.42208  0.68791  1.0000
  H   H271      1.0  0.33053  0.36366  0.85862  1.0000
  C   C150      1.0  0.97478  0.41428  0.85361  1.0000
  H   H272      1.0  0.19893  0.43074  0.65103  1.0000
  S   S38       1.0  0.00762  0.40771  0.01433  1.0000
  S   S39       1.0  0.13430  0.40251  0.56920  1.0000
  H   H273      1.0  0.31899  0.52757  0.82627  1.0000
  C   C151      1.0  0.13725  0.55983  0.69878  1.0000
  C   C152      1.0  0.99227  0.49862  0.62699  1.0000
  H   H274      1.0  0.92634  0.40295  0.79806  1.0000
  Fe  Fe17      1.0  0.01605  0.57788  0.62466  1.0000
  S   S40       1.0  0.34178  0.52216  0.60011  1.0000
  C   C153      1.0  0.36950  0.55304  0.98001  1.0000
  C   C154      1.0  0.04688  0.48524  0.83962  1.0000
  Fe  Fe18      1.0  0.05578  0.44233  0.00646  1.0000
  C   C155      1.0  0.05015  0.41437  0.87724  1.0000
  H   H275      1.0  0.23055  0.57585  0.72884  1.0000
  C   C156      1.0  0.28424  0.37393  0.59802  1.0000
  C   C157      1.0  0.17809  0.40844  0.68158  1.0000
  H   H276      1.0  0.92958  0.38455  0.03374  1.0000
  H   H277      1.0  0.32925  0.56968  0.90998  1.0000
  C   C158      1.0  0.16430  0.40710  0.72955  1.0000
  C   C159      1.0  0.15475  0.41948  0.97810  1.0000
  C   C160      1.0  0.05450  0.56814  0.01249  1.0000
  H   H278      1.0  0.94167  0.41248  0.87149  1.0000
  C   C161      1.0  0.22396  0.40279  0.83069  1.0000
  H   H279      1.0  0.05189  0.42113  0.79043  1.0000
  H   H280      1.0  0.11519  0.42393  0.83470  1.0000
  H   H281      1.0  0.12774  0.37594  0.80641  1.0000
  H   H282      1.0  0.02137  0.35610  0.53984  1.0000
  H   H283      1.0  0.09996  0.58838  0.93593  1.0000
  H   H284      1.0  0.16726  0.52268  0.02373  1.0000
  H   H285      1.0  0.20659  0.59050  0.77730  1.0000
  H   H286      1.0  0.04903  0.59199  0.93999  1.0000
  H   H287      1.0  0.11918  0.55446  0.87098  1.0000
  C   C162      1.0  0.00394  0.58893  0.82394  1.0000
  H   H288      1.0  0.17115  0.57925  0.02712  1.0000
  C   C163      1.0  0.10553  0.52043  0.02900  1.0000
  C   C164      1.0  0.01424  0.59041  0.77641  1.0000
  C   C165      1.0  0.12311  0.57959  0.83547  1.0000
  H   H289      1.0  0.10162  0.57714  0.78308  1.0000
  Fe  Fe19      1.0  0.26071  0.35173  0.03524  1.0000
  Fe  Fe20      1.0  0.97574  0.42472  0.34242  1.0000
  C   C166      1.0  0.30545  0.38278  0.10956  1.0000
  H   H290      1.0  0.35996  0.42820  0.35282  1.0000
  H   H291      1.0  0.89787  0.55095  0.10109  1.0000
  C   C167      1.0  0.16239  0.50929  0.49574  1.0000
  H   H292      1.0  0.16486  0.35222  0.36408  1.0000
  S   S41       1.0  0.93737  0.46236  0.37850  1.0000
  H   H293      1.0  0.29429  0.39762  0.07855  1.0000
  S   S42       1.0  0.21207  0.41514  0.18220  1.0000
  H   H294      1.0  0.33854  0.44550  0.17318  1.0000
  H   H295      1.0  0.04507  0.38190  0.45016  1.0000
  C   C168      1.0  0.90123  0.37539  0.06416  1.0000
  S   S43       1.0  0.27469  0.50266  0.14131  1.0000
  C   C169      1.0  0.27327  0.56113  0.31117  1.0000
  H   H296      1.0  0.96483  0.34673  0.26937  1.0000
  H   H297      1.0  0.31325  0.39417  0.47999  1.0000
  S   S44       1.0  0.13284  0.37603  0.48530  1.0000
  H   H298      1.0  0.36795  0.35338  0.45213  1.0000
  H   H299      1.0  0.15944  0.43782  0.32618  1.0000
  H   H300      1.0  0.27914  0.36802  0.14299  1.0000
  H   H301      1.0  0.31223  0.46228  0.39982  1.0000
  H   H302      1.0  0.36662  0.43229  0.46065  1.0000
  H   H303      1.0  0.29396  0.57925  0.27361  1.0000
  S   S45       1.0  0.91372  0.41670  0.23132  1.0000
  Fe  Fe21      1.0  0.22436  0.46185  0.19843  1.0000
  Fe  Fe22      1.0  0.23189  0.54917  0.14985  1.0000
  H   H304      1.0  0.11808  0.58080  0.47436  1.0000
  H   H305      1.0  0.28295  0.40359  0.20638  1.0000
  S   S46       1.0  0.03604  0.42992  0.53344  1.0000
  C   C170      1.0  0.33791  0.47885  0.36650  1.0000
  H   H306      1.0  0.14250  0.56973  0.35953  1.0000
  H   H307      1.0  0.18583  0.57760  0.42050  1.0000
  H   H308      1.0  0.19781  0.54269  0.39602  1.0000
  H   H309      1.0  0.18079  0.40048  0.12106  1.0000
  H   H310      1.0  0.93649  0.53788  0.17743  1.0000
  C   C171      1.0  0.06111  0.42625  0.35213  1.0000
  H   H311      1.0  0.05348  0.53281  0.48236  1.0000
  H   H312      1.0  0.05197  0.52443  0.22046  1.0000
  S   S47       1.0  0.24674  0.55178  0.20993  1.0000
  H   H313      1.0  0.09658  0.52609  0.22987  1.0000
  H   H314      1.0  0.11276  0.39276  0.33595  1.0000
  H   H315      1.0  0.33744  0.34545  0.25611  1.0000
  H   H316      1.0  0.00553  0.36081  0.21232  1.0000
  H   H317      1.0  0.24344  0.36481  0.41822  1.0000
  Fe  Fe23      1.0  0.19903  0.50689  0.26209  1.0000
  H   H318      1.0  0.14280  0.48527  0.52762  1.0000
  C   C172      1.0  0.07119  0.55956  0.46530  1.0000
  S   S48       1.0  0.97988  0.46536  0.26568  1.0000
  H   H319      1.0  0.30173  0.43395  0.12092  1.0000
  C   C173      1.0  0.35594  0.56585  0.12526  1.0000
  C   C174      1.0  0.08768  0.43054  0.17276  1.0000
  C   C175      1.0  0.04667  0.45963  0.35882  1.0000
  N   N13       1.0  0.34152  0.39700  0.15597  1.0000
  N   N14       1.0  0.96892  0.34737  0.52865  1.0000
  H   H320      1.0  0.13785  0.43985  0.23767  1.0000
  H   H321      1.0  0.01538  0.46576  0.36783  1.0000
  C   C176      1.0  0.36034  0.54216  0.29607  1.0000
  C   C177      1.0  0.27495  0.38204  0.45098  1.0000
  H   H322      1.0  0.06186  0.51109  0.35874  1.0000
  C   C178      1.0  0.03811  0.57330  0.10954  1.0000
  H   H323      1.0  0.24675  0.54141  0.05836  1.0000
  H   H324      1.0  0.98128  0.39922  0.46132  1.0000
  H   H325      1.0  0.07104  0.44948  0.23162  1.0000
  H   H326      1.0  0.29656  0.50966  0.30377  1.0000
  H   H327      1.0  0.15559  0.35900  0.29336  1.0000
  H   H328      1.0  0.36227  0.47625  0.38053  1.0000
  C   C179      1.0  0.11862  0.41601  0.14235  1.0000
  Fe  Fe24      1.0  0.92501  0.43466  0.28248  1.0000
  N   N15       1.0  0.14214  0.53125  0.45887  1.0000
  S   S49       1.0  0.01267  0.47274  0.05071  1.0000
  C   C180      1.0  0.12700  0.50263  0.44884  1.0000
  S   S50       1.0  0.34787  0.49835  0.20616  1.0000
  C   C181      1.0  0.07300  0.48520  0.35396  1.0000
  H   H329      1.0  0.87786  0.37597  0.20056  1.0000
  H   H330      1.0  0.28152  0.53596  0.45251  1.0000
  C   C182      1.0  0.11388  0.47772  0.34097  1.0000
  H   H331      1.0  0.28169  0.49157  0.44886  1.0000
  S   S51       1.0  0.97336  0.39007  0.13335  1.0000
  H   H332      1.0  0.32742  0.39311  0.25428  1.0000
  C   C183      1.0  0.13961  0.58361  0.04760  1.0000
  Fe  Fe25      1.0  0.88616  0.43209  0.38585  1.0000
  H   H333      1.0  0.90153  0.58437  0.12291  1.0000
  H   H334      1.0  0.98217  0.52683  0.47932  1.0000
  C   C184      1.0  0.92053  0.40222  0.50709  1.0000
  C   C185      1.0  0.35046  0.45711  0.33275  1.0000
  C   C186      1.0  0.05626  0.57387  0.23315  1.0000
  N   N16       1.0  0.32705  0.51989  0.34365  1.0000
  H   H335      1.0  0.13269  0.56674  0.23257  1.0000
  C   C187      1.0  0.30653  0.38180  0.20481  1.0000
  S   S52       1.0  0.88302  0.47343  0.31293  1.0000
  H   H336      1.0  0.21952  0.48342  0.07180  1.0000
  H   H337      1.0  0.01361  0.38084  0.27125  1.0000
  C   C188      1.0  0.15677  0.41091  0.14550  1.0000
  H   H338      1.0  0.07009  0.34562  0.17879  1.0000
  C   C189      1.0  0.15778  0.47431  0.43345  1.0000
  H   H339      1.0  0.96009  0.54398  0.11424  1.0000
  H   H340      1.0  0.03720  0.51969  0.10560  1.0000
  C   C190      1.0  0.36605  0.44319  0.52119  1.0000
  H   H341      1.0  0.98594  0.54075  0.39511  1.0000
  S   S53       1.0  0.92439  0.39118  0.35622  1.0000
  S   S54       1.0  0.23927  0.45710  0.26231  1.0000
  S   S55       1.0  0.94822  0.56412  0.27031  1.0000
  C   C191      1.0  0.34090  0.35581  0.44468  1.0000
  H   H342      1.0  0.34761  0.42787  0.07815  1.0000
  H   H343      1.0  0.20445  0.34460  0.26608  1.0000
  C   C192      1.0  0.06023  0.54151  0.09334  1.0000
  H   H344      1.0  0.24507  0.55817  0.30701  1.0000
  H   H345      1.0  0.21349  0.36437  0.31938  1.0000
  H   H346      1.0  0.26608  0.57606  0.33587  1.0000
  H   H347      1.0  0.29195  0.35677  0.20894  1.0000
  C   C193      1.0  0.89624  0.55357  0.13501  1.0000
  Fe  Fe26      1.0  0.96559  0.43389  0.06453  1.0000
  Fe  Fe27      1.0  0.17806  0.38060  0.51457  1.0000
  H   H348      1.0  0.05116  0.58008  0.47870  1.0000
  H   H349      1.0  0.97649  0.40615  0.51408  1.0000
  H   H350      1.0  0.37402  0.56123  0.46661  1.0000
  C   C194      1.0  0.10760  0.55267  0.48148  1.0000
  H   H351      1.0  0.13246  0.49898  0.08723  1.0000
  S   S56       1.0  0.23732  0.41168  0.47008  1.0000
  S   S57       1.0  0.33108  0.47936  0.51478  1.0000
  H   H352      1.0  0.13078  0.56096  0.08548  1.0000
  H   H353      1.0  0.10226  0.48504  0.48250  1.0000
  H   H354      1.0  0.31803  0.56881  0.36212  1.0000
  C   C195      1.0  0.31011  0.37893  0.46026  1.0000
  H   H355      1.0  0.93155  0.50176  0.15840  1.0000
  C   C196      1.0  0.28207  0.52283  0.42762  1.0000
  H   H356      1.0  0.35342  0.57298  0.28190  1.0000
  C   C197      1.0  0.15730  0.58518  0.37078  1.0000
  C   C198      1.0  0.31980  0.53730  0.38002  1.0000
  S   S58       1.0  0.18103  0.50814  0.20251  1.0000
  H   H357      1.0  0.09659  0.56784  0.28814  1.0000
  H   H358      1.0  0.33937  0.58338  0.43632  1.0000
  S   S59       1.0  0.06914  0.39680  0.07081  1.0000
  H   H359      1.0  0.89961  0.56989  0.42692  1.0000
  C   C199      1.0  0.95666  0.57110  0.53511  1.0000
  S   S60       1.0  0.02900  0.39385  0.35792  1.0000
  H   H360      1.0  0.97708  0.49140  0.43444  1.0000
  Fe  Fe28      1.0  0.93779  0.50088  0.30241  1.0000
  H   H361      1.0  0.93608  0.50189  0.50756  1.0000
  C   C200      1.0  0.25008  0.49240  0.04333  1.0000
  H   H362      1.0  0.14830  0.47640  0.04547  1.0000
  S   S61       1.0  0.04011  0.43977  0.16806  1.0000
  H   H363      1.0  0.25438  0.53123  0.41945  1.0000
  H   H364      1.0  0.19043  0.49627  0.47870  1.0000
  C   C201      1.0  0.36152  0.42865  0.15537  1.0000
  C   C202      1.0  0.37228  0.54144  0.16054  1.0000
  H   H365      1.0  0.98123  0.55113  0.52949  1.0000
  C   C203      1.0  0.29024  0.52120  0.33211  1.0000
  H   H366      1.0  0.11373  0.40962  0.11542  1.0000
  H   H367      1.0  0.32503  0.45306  0.32419  1.0000
  C   C204      1.0  0.12805  0.44402  0.33539  1.0000
  H   H368      1.0  0.93671  0.51947  0.41971  1.0000
  C   C205      1.0  0.96348  0.51988  0.42805  1.0000
  C   C206      1.0  0.89299  0.56511  0.46588  1.0000
  H   H369      1.0  0.26584  0.50241  0.36540  1.0000
  H   H370      1.0  0.18467  0.48835  0.40054  1.0000
  H   H371      1.0  0.92036  0.43369  0.48816  1.0000
  H   H372      1.0  0.01497  0.58639  0.09312  1.0000
  Fe  Fe29      1.0  0.02494  0.42593  0.11524  1.0000
  Fe  Fe30      1.0  0.28610  0.50211  0.20530  1.0000
  C   C207      1.0  0.95321  0.52726  0.47490  1.0000
  H   H373      1.0  0.32731  0.36169  0.10009  1.0000
  S   S62       1.0  0.14818  0.51198  0.32593  1.0000
  H   H374      1.0  0.19632  0.55471  0.48944  1.0000
  H   H375      1.0  0.14351  0.45710  0.42363  1.0000
  H   H376      1.0  0.16679  0.45396  0.46441  1.0000
  C   C208      1.0  0.13290  0.43375  0.21046  1.0000
  H   H377      1.0  0.31814  0.54533  0.04510  1.0000
  C   C209      1.0  0.09491  0.43894  0.20722  1.0000
  Fe  Fe31      1.0  0.01700  0.36520  0.08290  1.0000
  C   C210      1.0  0.91233  0.58284  0.30990  1.0000
  C   C211      1.0  0.17256  0.55849  0.41225  1.0000
  H   H378      1.0  0.36312  0.53364  0.26606  1.0000
  H   H379      1.0  0.90799  0.39060  0.48919  1.0000
  H   H380      1.0  0.34542  0.53203  0.39276  1.0000
  C   C212      1.0  0.31613  0.36915  0.25225  1.0000
  H   H381      1.0  0.27107  0.47545  0.06148  1.0000
  C   C213      1.0  0.32471  0.41240  0.11517  1.0000
  H   H382      1.0  0.04167  0.55735  0.27390  1.0000
  C   C214      1.0  0.16407  0.42027  0.17918  1.0000
  H   H383      1.0  0.07941  0.57155  0.42463  1.0000
  H   H384      1.0  0.09491  0.53735  0.52258  1.0000
  C   C215      1.0  0.93265  0.53279  0.14789  1.0000
  H   H385      1.0  0.02235  0.56086  0.15052  1.0000
  H   H386      1.0  0.09105  0.55693  0.17108  1.0000
  H   H387      1.0  0.07829  0.52623  0.11663  1.0000
  H   H388      1.0  0.32929  0.55754  0.12449  1.0000
  C   C216      1.0  0.96393  0.38942  0.50190  1.0000
  C   C217      1.0  0.07574  0.54403  0.21191  1.0000
  H   H389      1.0  0.11366  0.51657  0.41995  1.0000
  C   C218      1.0  0.14008  0.50427  0.04802  1.0000
  H   H390      1.0  0.89820  0.58585  0.53029  1.0000
  N   N17       1.0  0.93120  0.56341  0.47468  1.0000
  C   C219      1.0  0.10162  0.41822  0.34143  1.0000
  C   C220      1.0  0.88162  0.39843  0.08958  1.0000
  S   S63       1.0  0.90193  0.44330  0.07021  1.0000
  C   C221      1.0  0.92102  0.56407  0.52466  1.0000
  H   H391      1.0  0.08384  0.49660  0.04535  1.0000
  C   C222      1.0  0.27062  0.36231  0.42555  1.0000
  H   H392      1.0  0.28811  0.35848  0.28523  1.0000
  H   H393      1.0  0.28016  0.59046  0.52611  1.0000
  H   H394      1.0  0.87760  0.50435  0.49347  1.0000
  C   C223      1.0  0.02034  0.35098  0.27548  1.0000
  C   C224      1.0  0.17433  0.53176  0.51819  1.0000
  H   H395      1.0  0.88665  0.48725  0.13020  1.0000
  C   C225      1.0  0.11282  0.58614  0.24849  1.0000
  H   H396      1.0  0.36801  0.47774  0.08462  1.0000
  H   H397      1.0  0.05312  0.35011  0.25653  1.0000
  C   C226      1.0  0.04300  0.35065  0.47143  1.0000
  C   C227      1.0  0.36970  0.36473  0.15333  1.0000
  C   C228      1.0  0.87926  0.56047  0.34830  1.0000
  C   C229      1.0  0.36912  0.58718  0.43618  1.0000
  H   H398      1.0  0.03098  0.58622  0.22043  1.0000
  H   H399      1.0  0.37608  0.47090  0.29781  1.0000
  H   H400      1.0  0.87616  0.53134  0.35439  1.0000
  N   N18       1.0  0.08432  0.55426  0.03850  1.0000
  H   H401      1.0  0.34463  0.70600  0.92642  1.0000
  H   H402      1.0  0.00665  0.79088  0.94319  1.0000
  S   S64       1.0  0.95734  0.82079  0.80313  1.0000
  C   C230      1.0  0.95508  0.71891  0.66461  1.0000
  H   H403      1.0  0.34165  0.69420  0.98946  1.0000
  H   H404      1.0  0.87827  0.65251  0.68174  1.0000
  S   S65       1.0  0.05337  0.62072  0.72628  1.0000
  H   H405      1.0  0.22924  0.77257  0.86983  1.0000
  S   S66       1.0  0.07305  0.72417  0.80935  1.0000
  H   H406      1.0  0.32308  0.65898  0.60575  1.0000
  H   H407      1.0  0.35050  0.81961  0.79035  1.0000
  H   H408      1.0  0.18684  0.81977  0.99532  1.0000
  H   H409      1.0  0.14832  0.59667  0.82810  1.0000
  C   C231      1.0  0.30307  0.82965  0.88512  1.0000
  S   S67       1.0  0.27107  0.60995  0.60634  1.0000
  C   C232      1.0  0.27889  0.82469  0.54726  1.0000
  C   C233      1.0  0.25094  0.78090  0.88067  1.0000
  H   H410      1.0  0.90396  0.60332  0.73968  1.0000
  C   C234      1.0  0.25991  0.81828  0.92267  1.0000
  H   H411      1.0  0.13230  0.64879  0.76345  1.0000
  H   H412      1.0  0.02671  0.65903  0.83715  1.0000
  C   C235      1.0  0.26040  0.61714  0.95678  1.0000
  C   C236      1.0  0.06193  0.72368  0.70369  1.0000
  C   C237      1.0  0.37611  0.69203  0.61303  1.0000
  H   H413      1.0  0.01590  0.73623  0.64366  1.0000
  H   H414      1.0  0.32210  0.61023  0.94694  1.0000
  H   H415      1.0  0.04185  0.59586  0.01319  1.0000
  H   H416      1.0  0.27970  0.74637  0.93562  1.0000
  C   C238      1.0  0.33167  0.64588  0.69454  1.0000
  C   C239      1.0  0.31953  0.71410  0.66760  1.0000
  H   H417      1.0  0.97676  0.61817  0.91749  1.0000
  S   S68       1.0  0.89998  0.62084  0.91602  1.0000
  H   H418      1.0  0.16104  0.84123  0.95187  1.0000
  H   H419      1.0  0.06875  0.71894  0.66977  1.0000
  N   N19       1.0  0.33380  0.68252  0.65013  1.0000
  H   H420      1.0  0.98530  0.77824  0.73426  1.0000
  S   S69       1.0  0.20387  0.69063  0.89462  1.0000
  Fe  Fe32      1.0  0.01548  0.66406  0.57378  1.0000
  C   C240      1.0  0.92130  0.78595  0.82441  1.0000
  C   C241      1.0  0.35698  0.76518  0.97301  1.0000
  S   S70       1.0  0.36640  0.74196  0.80757  1.0000
  H   H421      1.0  0.94435  0.68964  0.67693  1.0000
  C   C242      1.0  0.37081  0.78227  0.75261  1.0000
  H   H422      1.0  0.35636  0.79616  0.96364  1.0000
  H   H423      1.0  0.06902  0.75351  0.69401  1.0000
  H   H424      1.0  0.28756  0.73047  0.88904  1.0000
  C   C243      1.0  0.88901  0.72467  0.88403  1.0000
  H   H425      1.0  0.96258  0.79388  0.64443  1.0000
  C   C244      1.0  0.24374  0.62254  0.56754  1.0000
  S   S71       1.0  0.14647  0.75865  0.84994  1.0000
  S   S72       1.0  0.11647  0.71871  0.99402  1.0000
  H   H426      1.0  0.08270  0.70570  0.72199  1.0000
  H   H427      1.0  0.30018  0.63868  0.72114  1.0000
  H   H428      1.0  0.34787  0.64892  0.71589  1.0000
  C   C245      1.0  0.01677  0.66661  0.86840  1.0000
  H   H429      1.0  0.18603  0.64749  0.75026  1.0000
  Fe  Fe33      1.0  0.09416  0.62422  0.55517  1.0000
  C   C246      1.0  0.98807  0.77108  0.70299  1.0000
  C   C247      1.0  0.03372  0.69844  0.86404  1.0000
  N   N20       1.0  0.23216  0.80836  0.90449  1.0000
  S   S73       1.0  0.26226  0.77138  0.77139  1.0000
  C   C248      1.0  0.36161  0.81767  0.75500  1.0000
  C   C249      1.0  0.89386  0.79273  0.80108  1.0000
  H   H430      1.0  0.28233  0.73508  0.60174  1.0000
  H   H431      1.0  0.28036  0.70726  0.57067  1.0000
  C   C250      1.0  0.98841  0.64361  0.91385  1.0000
  C   C251      1.0  0.93401  0.68747  0.55284  1.0000
  H   H432      1.0  0.09568  0.59666  0.84199  1.0000
  C   C252      1.0  0.16255  0.64948  0.73547  1.0000
  C   C253      1.0  0.29367  0.59547  0.97593  1.0000
  H   H433      1.0  0.93994  0.74675  0.88428  1.0000
  H   H434      1.0  0.91975  0.71715  0.02766  1.0000
  H   H435      1.0  0.09783  0.83250  0.68990  1.0000
  H   H436      1.0  0.01760  0.68028  0.75595  1.0000
  H   H437      1.0  0.37244  0.76214  0.88268  1.0000
  H   H438      1.0  0.31877  0.80558  0.87636  1.0000
  H   H439      1.0  0.32705  0.72832  0.55435  1.0000
  H   H440      1.0  0.98594  0.69091  0.98260  1.0000
  C   C254      1.0  0.17019  0.81409  0.97628  1.0000
  H   H441      1.0  0.02220  0.60383  0.83080  1.0000
  H   H442      1.0  0.26147  0.79451  0.95726  1.0000
  C   C255      1.0  0.94662  0.71336  0.76306  1.0000
  H   H443      1.0  0.27924  0.66322  0.65275  1.0000
  C   C256      1.0  0.29927  0.71462  0.58593  1.0000
  H   H444      1.0  0.89522  0.81934  0.76959  1.0000
  S   S74       1.0  0.90376  0.80325  0.94144  1.0000
  H   H445      1.0  0.23147  0.61364  0.98792  1.0000
  H   H446      1.0  0.06922  0.75381  0.93186  1.0000
  H   H447      1.0  0.32016  0.83779  0.90171  1.0000
  H   H448      1.0  0.14240  0.79791  0.00555  1.0000
  C   C257      1.0  0.99203  0.71777  0.67806  1.0000
  C   C258      1.0  0.16625  0.61945  0.71490  1.0000
  H   H449      1.0  0.35352  0.65927  0.96502  1.0000
  C   C259      1.0  0.19474  0.78969  0.94805  1.0000
  H   H450      1.0  0.90831  0.66285  0.81024  1.0000
  H   H451      1.0  0.03565  0.73161  0.90192  1.0000
  H   H452      1.0  0.01768  0.78277  0.67374  1.0000
  S   S75       1.0  0.95895  0.81546  0.02228  1.0000
  H   H453      1.0  0.25580  0.69451  0.70003  1.0000
  Fe  Fe34      1.0  0.20690  0.73545  0.82050  1.0000
  H   H454      1.0  0.08867  0.80830  0.78683  1.0000
  H   H455      1.0  0.16621  0.67819  0.70462  1.0000
  H   H456      1.0  0.26321  0.73920  0.69786  1.0000
  H   H457      1.0  0.00342  0.68823  0.68652  1.0000
  H   H458      1.0  0.34096  0.75096  0.01386  1.0000
  Fe  Fe35      1.0  0.89447  0.60571  0.99381  1.0000
  H   H459      1.0  0.33800  0.71618  0.68717  1.0000
  H   H460      1.0  0.20594  0.79157  0.72310  1.0000
  C   C260      1.0  0.92994  0.64772  0.57644  1.0000
  C   C261      1.0  0.20952  0.64441  0.57515  1.0000
  H   H461      1.0  0.29254  0.83993  0.62601  1.0000
  C   C262      1.0  0.31793  0.61816  0.81653  1.0000
  H   H462      1.0  0.19634  0.82100  0.83278  1.0000
  C   C263      1.0  0.05583  0.76015  0.96417  1.0000
  Fe  Fe36      1.0  0.14138  0.71047  0.92289  1.0000
  H   H463      1.0  0.92966  0.73545  0.67864  1.0000
  C   C264      1.0  0.35800  0.68984  0.95491  1.0000
  H   H464      1.0  0.20217  0.76344  0.97576  1.0000
  C   C265      1.0  0.99426  0.68399  0.95094  1.0000
  H   H465      1.0  0.27482  0.69627  0.74319  1.0000
  C   C266      1.0  0.94032  0.66983  0.78645  1.0000
  H   H466      1.0  0.96100  0.82500  0.67261  1.0000
  H   H467      1.0  0.09743  0.61407  0.01333  1.0000
  H   H468      1.0  0.26455  0.64940  0.83715  1.0000
  H   H469      1.0  0.20254  0.65782  0.60051  1.0000
  C   C267      1.0  0.97679  0.65242  0.95512  1.0000
  H   H470      1.0  0.95758  0.65562  0.81110  1.0000
  H   H471      1.0  0.88737  0.69846  0.91607  1.0000
  S   S76       1.0  0.94024  0.62423  0.01159  1.0000
  H   H472      1.0  0.25644  0.60826  0.93045  1.0000
  C   C268      1.0  0.34784  0.61074  0.68301  1.0000
  C   C269      1.0  0.30830  0.67792  0.62522  1.0000
  S   S77       1.0  0.98972  0.62288  0.65276  1.0000
  C   C270      1.0  0.26480  0.74296  0.91343  1.0000
  H   H473      1.0  0.14103  0.62525  0.70156  1.0000
  H   H474      1.0  0.94826  0.65759  0.75871  1.0000
  H   H475      1.0  0.26802  0.64807  0.93742  1.0000
  H   H476      1.0  0.15520  0.66188  0.56057  1.0000
  C   C271      1.0  0.27630  0.62285  0.83470  1.0000
  C   C272      1.0  0.21539  0.81708  0.72204  1.0000
  H   H477      1.0  0.28991  0.60105  0.00868  1.0000
  H   H478      1.0  0.15991  0.83343  0.88130  1.0000
  H   H479      1.0  0.92593  0.78646  0.70599  1.0000
  H   H480      1.0  0.27617  0.79417  0.84460  1.0000
  C   C273      1.0  0.89433  0.62976  0.58849  1.0000
  H   H481      1.0  0.33006  0.60353  0.66641  1.0000
  H   H482      1.0  0.33793  0.64133  0.80457  1.0000
  S   S78       1.0  0.07273  0.67184  0.57992  1.0000
  C   C274      1.0  0.18268  0.64683  0.55235  1.0000
  C   C275      1.0  0.24532  0.81543  0.73994  1.0000
  H   H483      1.0  0.04053  0.83557  0.75472  1.0000
  C   C276      1.0  0.95727  0.79476  0.68044  1.0000
  H   H484      1.0  0.27171  0.80771  0.58658  1.0000
  Fe  Fe37      1.0  0.93453  0.83661  0.96120  1.0000
  C   C277      1.0  0.02056  0.78129  0.97055  1.0000
  H   H485      1.0  0.32410  0.74256  0.63606  1.0000
  C   C278      1.0  0.01855  0.71180  0.74063  1.0000
  H   H486      1.0  0.17467  0.77955  0.93668  1.0000
  C   C279      1.0  0.91874  0.75205  0.86610  1.0000
  Fe  Fe38      1.0  0.17803  0.65395  0.87473  1.0000
  H   H487      1.0  0.92026  0.72613  0.75318  1.0000
  H   H488      1.0  0.94400  0.72145  0.79342  1.0000
  C   C280      1.0  0.27591  0.71036  0.70430  1.0000
  H   H489      1.0  0.96420  0.73195  0.62354  1.0000
  H   H490      1.0  0.01417  0.71899  0.77232  1.0000
  Fe  Fe39      1.0  0.12360  0.71630  0.83536  1.0000
  H   H491      1.0  0.23936  0.72237  0.93908  1.0000
  N   N21       1.0  0.98569  0.72854  0.72029  1.0000
  H   H492      1.0  0.33893  0.75932  0.95589  1.0000
  C   C281      1.0  0.02247  0.70707  0.90534  1.0000
  S   S79       1.0  0.11502  0.66926  0.91007  1.0000
  S   S80       1.0  0.18440  0.69775  0.79891  1.0000
  C   C282      1.0  0.07350  0.74675  0.99998  1.0000
  C   C283      1.0  0.00328  0.78947  0.01259  1.0000
  Fe  Fe40      1.0  0.04946  0.62501  0.65636  1.0000
  H   H493      1.0  0.95396  0.63060  0.58593  1.0000
  H   H494      1.0  0.19433  0.62642  0.68156  1.0000
  S   S81       1.0  0.03805  0.61908  0.54460  1.0000
  S   S82       1.0  0.19839  0.59507  0.88245  1.0000
  C   C284      1.0  0.08554  0.83852  0.78184  1.0000
  H   H495      1.0  0.07910  0.83900  0.81839  1.0000
  H   H496      1.0  0.89081  0.59919  0.60793  1.0000
  H   H497      1.0  0.24818  0.84249  0.93357  1.0000
  Fe  Fe41      1.0  0.93750  0.84233  0.86265  1.0000
  C   C285      1.0  0.18919  0.84141  0.85027  1.0000
  H   H498      1.0  0.08790  0.84272  0.93578  1.0000
  S   S83       1.0  0.97756  0.70993  0.54118  1.0000
  C   C286      1.0  0.90267  0.70914  0.54002  1.0000
  C   C287      1.0  0.90833  0.71565  0.10028  1.0000
  H   H499      1.0  0.11862  0.78591  0.47674  1.0000
  S   S84       1.0  0.09127  0.76914  0.23132  1.0000
  C   C288      1.0  0.98023  0.67671  0.12795  1.0000
  C   C289      1.0  0.93657  0.66140  0.15713  1.0000
  C   C290      1.0  0.05909  0.63351  0.24011  1.0000
  C   C291      1.0  0.08287  0.64517  0.13400  1.0000
  H   H500      1.0  0.17185  0.66546  0.06544  1.0000
  H   H501      1.0  0.07796  0.65835  0.22867  1.0000
  Fe  Fe42      1.0  0.09752  0.74933  0.17296  1.0000
  H   H502      1.0  0.37313  0.72002  0.39041  1.0000
  H   H503      1.0  0.28061  0.62825  0.09401  1.0000
  H   H504      1.0  0.96848  0.60077  0.51255  1.0000
  C   C292      1.0  0.02168  0.77699  0.04760  1.0000
  H   H505      1.0  0.07716  0.80689  0.45852  1.0000
  H   H506      1.0  0.18753  0.65209  0.38240  1.0000
  C   C293      1.0  0.30102  0.81472  0.25876  1.0000
  S   S85       1.0  0.27516  0.81029  0.31970  1.0000
  N   N22       1.0  0.08390  0.60449  0.22227  1.0000
  H   H507      1.0  0.98457  0.70342  0.09450  1.0000
  H   H508      1.0  0.34710  0.83610  0.04370  1.0000
  H   H509      1.0  0.99268  0.68068  0.15226  1.0000
  H   H510      1.0  0.88363  0.68164  0.07656  1.0000
  H   H511      1.0  0.88990  0.66468  0.32799  1.0000
  H   H512      1.0  0.25737  0.63313  0.37443  1.0000
  C   C294      1.0  0.35305  0.81822  0.16539  1.0000
  H   H513      1.0  0.10172  0.79520  0.38571  1.0000
  C   C295      1.0  0.91213  0.69555  0.06658  1.0000
  H   H514      1.0  0.99892  0.65583  0.11399  1.0000
  C   C296      1.0  0.88653  0.63587  0.33314  1.0000
  N   N23       1.0  0.90351  0.68984  0.15331  1.0000
  H   H515      1.0  0.33126  0.64212  0.37951  1.0000
  H   H516      1.0  0.08194  0.75626  0.48119  1.0000
  S   S86       1.0  0.04249  0.72634  0.17805  1.0000
  C   C297      1.0  0.21093  0.66093  0.34600  1.0000
  C   C298      1.0  0.05658  0.75564  0.04138  1.0000
  C   C299      1.0  0.00482  0.78973  0.18805  1.0000
  C   C300      1.0  0.22527  0.64259  0.08075  1.0000
  H   H517      1.0  0.12858  0.78263  0.31091  1.0000
  H   H518      1.0  0.23540  0.59897  0.48105  1.0000
  H   H519      1.0  0.07871  0.67537  0.12882  1.0000
  Fe  Fe43      1.0  0.14661  0.73587  0.23648  1.0000
  H   H520      1.0  0.22733  0.71494  0.44291  1.0000
  C   C301      1.0  0.19118  0.62921  0.51981  1.0000
  H   H521      1.0  0.12725  0.64707  0.16048  1.0000
  H   H522      1.0  0.01947  0.64367  0.30444  1.0000
  C   C302      1.0  0.19827  0.67138  0.06926  1.0000
  C   C303      1.0  0.23201  0.69389  0.25671  1.0000
  H   H523      1.0  0.29367  0.82969  0.11624  1.0000
  Fe  Fe44      1.0  0.13257  0.81699  0.16856  1.0000
  H   H524      1.0  0.94213  0.63762  0.27337  1.0000
  S   S87       1.0  0.21468  0.59689  0.09036  1.0000
  C   C304      1.0  0.95743  0.59710  0.43347  1.0000
  H   H525      1.0  0.18165  0.72876  0.05987  1.0000
  H   H526      1.0  0.93484  0.73482  0.08116  1.0000
  H   H527      1.0  0.25772  0.82320  0.09669  1.0000
  H   H528      1.0  0.31348  0.80533  0.04623  1.0000
  H   H529      1.0  0.05517  0.60802  0.31830  1.0000
  H   H530      1.0  0.89652  0.83480  0.12130  1.0000
  H   H531      1.0  0.93326  0.63850  0.14673  1.0000
  C   C305      1.0  0.97263  0.80911  0.20936  1.0000
  C   C306      1.0  0.10749  0.62445  0.16747  1.0000
  C   C307      1.0  0.25971  0.65054  0.08496  1.0000
  C   C308      1.0  0.27158  0.68327  0.25227  1.0000
  H   H532      1.0  0.07032  0.74575  0.06894  1.0000
  H   H533      1.0  0.05316  0.63201  0.14827  1.0000
  H   H534      1.0  0.93642  0.67460  0.06666  1.0000
  C   C309      1.0  0.93786  0.74900  0.26869  1.0000
  H   H535      1.0  0.93096  0.64009  0.46498  1.0000
  S   S88       1.0  0.15197  0.69614  0.30957  1.0000
  C   C310      1.0  0.12600  0.72015  0.41957  1.0000
  H   H536      1.0  0.93417  0.64562  0.19640  1.0000
  C   C311      1.0  0.37040  0.62233  0.44608  1.0000
  H   H537      1.0  0.98688  0.81979  0.29356  1.0000
  N   N24       1.0  0.36843  0.66026  0.40538  1.0000
  C   C312      1.0  0.26701  0.68757  0.07750  1.0000
  C   C313      1.0  0.91621  0.62046  0.30256  1.0000
  H   H538      1.0  0.29279  0.69793  0.35685  1.0000
  C   C314      1.0  0.17762  0.74926  0.42592  1.0000
  H   H539      1.0  0.96128  0.73678  0.14984  1.0000
  H   H540      1.0  0.36030  0.62103  0.06510  1.0000
  S   S89       1.0  0.18763  0.78559  0.17902  1.0000
  H   H541      1.0  0.09896  0.64476  0.09688  1.0000
  C   C315      1.0  0.37349  0.60183  0.09156  1.0000
  C   C316      1.0  0.20427  0.70752  0.06497  1.0000
  H   H542      1.0  0.34309  0.67286  0.50214  1.0000
  H   H543      1.0  0.98734  0.59558  0.43616  1.0000
  H   H544      1.0  0.91264  0.73314  0.30083  1.0000
  C   C317      1.0  0.33499  0.78368  0.20331  1.0000
  H   H545      1.0  0.14467  0.69882  0.40655  1.0000
  S   S90       1.0  0.36693  0.71266  0.14385  1.0000
  H   H546      1.0  0.33319  0.84276  0.33863  1.0000
  N   N25       1.0  0.14983  0.75647  0.39821  1.0000
  H   H547      1.0  0.15448  0.82260  0.30296  1.0000
  S   S91       1.0  0.33061  0.64776  0.28954  1.0000
  C   C318      1.0  0.15748  0.79325  0.30493  1.0000
  C   C319      1.0  0.31759  0.82464  0.51360  1.0000
  H   H548      1.0  0.96855  0.69896  0.26099  1.0000
  H   H549      1.0  0.96312  0.65890  0.40114  1.0000
  C   C320      1.0  0.93003  0.74623  0.15768  1.0000
  H   H550      1.0  0.29330  0.69367  0.08143  1.0000
  H   H551      1.0  0.29441  0.69143  0.21597  1.0000
  C   C321      1.0  0.93997  0.63657  0.42981  1.0000
  H   H552      1.0  0.90569  0.73983  0.52160  1.0000
  C   C322      1.0  0.21169  0.72133  0.41680  1.0000
  C   C323      1.0  0.93894  0.78877  0.24942  1.0000
  H   H553      1.0  0.06439  0.74032  0.42624  1.0000
  S   S92       1.0  0.15500  0.62677  0.49758  1.0000
  C   C324      1.0  0.96959  0.72966  0.24647  1.0000
  H   H554      1.0  0.09309  0.73447  0.36911  1.0000
  C   C325      1.0  0.35946  0.82565  0.34413  1.0000
  H   H555      1.0  0.31220  0.72157  0.38099  1.0000
  C   C326      1.0  0.20162  0.68283  0.30358  1.0000
  C   C327      1.0  0.31967  0.70113  0.36335  1.0000
  H   H556      1.0  0.18312  0.60110  0.33718  1.0000
  H   H557      1.0  0.19211  0.77640  0.41605  1.0000
  H   H558      1.0  0.33111  0.72058  0.46614  1.0000
  C   C328      1.0  0.37030  0.69114  0.42097  1.0000
  C   C329      1.0  0.30953  0.78182  0.25000  1.0000
  H   H559      1.0  0.34384  0.71324  0.32635  1.0000
  H   H560      1.0  0.18730  0.74183  0.33637  1.0000
  C   C330      1.0  0.89993  0.71304  0.18216  1.0000
  C   C331      1.0  0.33012  0.66174  0.39686  1.0000
  S   S93       1.0  0.15005  0.71301  0.18208  1.0000
  H   H561      1.0  0.00907  0.78379  0.07972  1.0000
  H   H562      1.0  0.92382  0.76002  0.18355  1.0000
  C   C332      1.0  0.25050  0.65009  0.34147  1.0000
  C   C333      1.0  0.33587  0.69102  0.46857  1.0000
  H   H563      1.0  0.95101  0.84118  0.33135  1.0000
  H   H564      1.0  0.07410  0.69428  0.42602  1.0000
  H   H565      1.0  0.11676  0.70637  0.46074  1.0000
  H   H566      1.0  0.91404  0.64253  0.41767  1.0000
  H   H567      1.0  0.22507  0.71031  0.22371  1.0000
  H   H568      1.0  0.34504  0.61858  0.48145  1.0000
  H   H569      1.0  0.23432  0.73386  0.37870  1.0000
  H   H570      1.0  0.03650  0.64530  0.22220  1.0000
  H   H571      1.0  0.20056  0.69405  0.42285  1.0000
  C   C334      1.0  0.28106  0.66152  0.29450  1.0000
  S   S94       1.0  0.35449  0.79964  0.53697  1.0000
  H   H572      1.0  0.97365  0.83979  0.19405  1.0000
  H   H573      1.0  0.25138  0.84013  0.18070  1.0000
  H   H574      1.0  0.88264  0.73522  0.09920  1.0000
  H   H575      1.0  0.29684  0.75466  0.27948  1.0000
  H   H576      1.0  0.35431  0.81489  0.38420  1.0000
  H   H577      1.0  0.12451  0.63286  0.26410  1.0000
  H   H578      1.0  0.36067  0.80017  0.33663  1.0000
  H   H579      1.0  0.14163  0.81563  0.38601  1.0000
  H   H580      1.0  0.03084  0.80541  0.15708  1.0000
  H   H581      1.0  0.30407  0.65092  0.43233  1.0000
  S   S95       1.0  0.13491  0.79954  0.10957  1.0000
  S   S96       1.0  0.89747  0.81317  0.27359  1.0000
  C   C335      1.0  0.08739  0.72329  0.40907  1.0000
  H   H582      1.0  0.17857  0.79527  0.26790  1.0000
  H   H583      1.0  0.90260  0.69461  0.21873  1.0000
  C   C336      1.0  0.22779  0.61134  0.50764  1.0000
  H   H584      1.0  0.20267  0.78373  0.33373  1.0000
  C   C337      1.0  0.00288  0.75013  0.20595  1.0000
  H   H585      1.0  0.30666  0.68132  0.47386  1.0000
  C   C338      1.0  0.12340  0.78896  0.40459  1.0000
  C   C339      1.0  0.17560  0.76741  0.34393  1.0000
  C   C340      1.0  0.23898  0.71594  0.06800  1.0000
  H   H586      1.0  0.16090  0.73763  0.46678  1.0000
  Fe  Fe45      1.0  0.18728  0.76512  0.12393  1.0000
  H   H587      1.0  0.92646  0.76877  0.12388  1.0000
  C   C341      1.0  0.03542  0.61922  0.29648  1.0000
  C   C342      1.0  0.09905  0.78363  0.45868  1.0000
  S   S97       1.0  0.24448  0.76084  0.06511  1.0000
  H   H588      1.0  0.34117  0.75791  0.19743  1.0000
  H   H589      1.0  0.07837  0.83627  0.25504  1.0000
  C   C343      1.0  0.14099  0.61320  0.24666  1.0000
  H   H590      1.0  0.16199  0.62921  0.20839  1.0000
  H   H591      1.0  0.13922  0.61081  0.05109  1.0000
  H   H592      1.0  0.16009  0.59597  0.26792  1.0000
  H   H593      1.0  0.13675  0.60654  0.38165  1.0000
  H   H594      1.0  0.12906  0.60529  0.15258  1.0000
  C   C344      1.0  0.31756  0.83455  0.04185  1.0000
  C   C345      1.0  0.25349  0.60702  0.53261  1.0000
  H   H595      1.0  0.96350  0.59699  0.39673  1.0000
  H   H596      1.0  0.01222  0.59763  0.30934  1.0000
  H   H597      1.0  0.05913  0.59569  0.09993  1.0000
  C   C346      1.0  0.28352  0.84201  0.08421  1.0000
  H   H598      1.0  0.21782  0.94434  0.57689  1.0000
  C   C347      1.0  0.04701  0.06272  0.92136  1.0000
  H   H599      1.0  0.06011  0.96736  0.98580  1.0000
  H   H600      1.0  0.95604  0.95146  0.98001  1.0000
  C   C348      1.0  0.20056  0.02403  0.95880  1.0000
  H   H601      1.0  0.11081  0.88773  0.88677  1.0000
  H   H602      1.0  0.14230  0.05189  0.86511  1.0000
  H   H603      1.0  0.32749  0.94444  0.99079  1.0000
  C   C349      1.0  0.29024  0.03836  0.83605  1.0000
  C   C350      1.0  0.20730  0.88401  0.70541  1.0000
  H   H604      1.0  0.36902  0.97617  0.73520  1.0000
  H   H605      1.0  0.02537  0.85791  0.79558  1.0000
  H   H606      1.0  0.10578  0.93394  0.90897  1.0000
  H   H607      1.0  0.35988  0.93651  0.02357  1.0000
  C   C351      1.0  0.23042  0.08392  0.88857  1.0000
  H   H608      1.0  0.29588  0.98326  0.76098  1.0000
  H   H609      1.0  0.07794  0.86250  0.88004  1.0000
  H   H610      1.0  0.01076  0.01389  0.94675  1.0000
  H   H611      1.0  0.29681  0.01291  0.56099  1.0000
  H   H612      1.0  0.34872  0.99851  0.54722  1.0000
  C   C352      1.0  0.98695  0.91967  0.74187  1.0000
  C   C353      1.0  0.36722  0.93727  0.80814  1.0000
  H   H613      1.0  0.12300  0.89241  0.67945  1.0000
  S   S98       1.0  0.24767  0.98290  0.70878  1.0000
  H   H614      1.0  0.29063  0.08540  0.88871  1.0000
  H   H615      1.0  0.31772  0.85330  0.00436  1.0000
  C   C354      1.0  0.93041  0.08692  0.93850  1.0000
  H   H616      1.0  0.15895  0.08763  0.87467  1.0000
  H   H617      1.0  0.35560  0.90036  0.88510  1.0000
  H   H618      1.0  0.09817  0.87546  0.98493  1.0000
  C   C355      1.0  0.01912  0.03354  0.95725  1.0000
  C   C356      1.0  0.28545  0.89948  0.58156  1.0000
  H   H619      1.0  0.24655  0.90737  0.72310  1.0000
  H   H620      1.0  0.06430  0.96351  0.90587  1.0000
  C   C357      1.0  0.09266  0.86009  0.66197  1.0000
  H   H621      1.0  0.05452  0.97621  0.68157  1.0000
  H   H622      1.0  0.00010  0.96683  0.92599  1.0000
  C   C358      1.0  0.00712  0.91656  0.99027  1.0000
  C   C359      1.0  0.00788  0.04405  0.83441  1.0000
  Fe  Fe46      1.0  0.34641  0.04127  0.95270  1.0000
  N   N26       1.0  0.22311  0.04241  0.90345  1.0000
  N   N27       1.0  0.05954  0.89498  0.71992  1.0000
  H   H623      1.0  0.97294  0.92463  0.94302  1.0000
  H   H624      1.0  0.33895  0.86343  0.58185  1.0000
  C   C360      1.0  0.31799  0.99218  0.57551  1.0000
  H   H625      1.0  0.25562  0.89854  0.61032  1.0000
  H   H626      1.0  0.29111  0.07567  0.68930  1.0000
  H   H627      1.0  0.23410  0.98213  0.58496  1.0000
  C   C361      1.0  0.08698  0.95904  0.96065  1.0000
  H   H628      1.0  0.13778  0.04310  0.92632  1.0000
  C   C362      1.0  0.06486  0.87565  0.00082  1.0000
  H   H629      1.0  0.29869  0.06863  0.82175  1.0000
  Fe  Fe47      1.0  0.92101  0.91252  0.88523  1.0000
  H   H630      1.0  0.92039  0.06047  0.97299  1.0000
  C   C363      1.0  0.22687  0.88113  0.02847  1.0000
  H   H631      1.0  0.17476  0.85271  0.68869  1.0000
  C   C364      1.0  0.08311  0.86998  0.90708  1.0000
  H   H632      1.0  0.21540  0.05535  0.83476  1.0000
  H   H633      1.0  0.00741  0.93164  0.01267  1.0000
  H   H634      1.0  0.31839  0.02212  0.83233  1.0000
  C   C365      1.0  0.30874  0.96492  0.78807  1.0000
  C   C366      1.0  0.05675  0.08970  0.93337  1.0000
  H   H635      1.0  0.06781  0.97681  0.80159  1.0000
  H   H636      1.0  0.03018  0.93108  0.66861  1.0000
  C   C367      1.0  0.30476  0.95062  0.59433  1.0000
  C   C368      1.0  0.07655  0.94084  0.93248  1.0000
  H   H637      1.0  0.99292  0.94700  0.74126  1.0000
  H   H638      1.0  0.02038  0.87029  0.94841  1.0000
  S   S99       1.0  0.08863  0.04464  0.80408  1.0000
  H   H639      1.0  0.27917  0.02120  0.91379  1.0000
  C   C369      1.0  0.04606  0.89081  0.92910  1.0000
  H   H640      1.0  0.15022  0.98478  0.98764  1.0000
  H   H641      1.0  0.09670  0.91344  0.74579  1.0000
  H   H642      1.0  0.00124  0.94954  0.82489  1.0000
  H   H643      1.0  0.01160  0.88360  0.70293  1.0000
  H   H644      1.0  0.31852  0.99676  0.60718  1.0000
  Fe  Fe48      1.0  0.18813  0.96629  0.71658  1.0000
  N   N28       1.0  0.04882  0.90632  0.96366  1.0000
  H   H645      1.0  0.00970  0.07057  0.83682  1.0000
  C   C370      1.0  0.98320  0.94127  0.95736  1.0000
  H   H646      1.0  0.10506  0.98544  0.93326  1.0000
  H   H647      1.0  0.22011  0.02193  0.97922  1.0000
  H   H648      1.0  0.32552  0.93262  0.61267  1.0000
  H   H649      1.0  0.36313  0.87831  0.71345  1.0000
  C   C371      1.0  0.97059  0.02874  0.84729  1.0000
  H   H650      1.0  0.19642  0.00997  0.88116  1.0000
  H   H651      1.0  0.21487  0.86764  0.87991  1.0000
  C   C372      1.0  0.96820  0.99451  0.84425  1.0000
  S   S100      1.0  0.92111  0.97518  0.86284  1.0000
  H   H652      1.0  0.27501  0.94571  0.62494  1.0000
  S   S101      1.0  0.89003  0.88614  0.85816  1.0000
  H   H653      1.0  0.28216  0.90798  0.91120  1.0000
  H   H654      1.0  0.96087  0.92405  0.73028  1.0000
  H   H655      1.0  0.27735  0.03477  0.81197  1.0000
  S   S102      1.0  0.23231  0.94815  0.85528  1.0000
  N   N29       1.0  0.30392  0.93886  0.55559  1.0000
  H   H656      1.0  0.10734  0.96576  0.66367  1.0000
  H   H657      1.0  0.03998  0.91400  0.89696  1.0000
  H   H658      1.0  0.17528  0.04218  0.97021  1.0000
  H   H659      1.0  0.34004  0.04036  0.03581  1.0000
  C   C373      1.0  0.04070  0.99122  0.81436  1.0000
  H   H660      1.0  0.35358  0.90020  0.00710  1.0000
  H   H661      1.0  0.22311  0.89638  0.99210  1.0000
  C   C374      1.0  0.03960  0.08651  0.98240  1.0000
  S   S103      1.0  0.15802  0.95682  0.79655  1.0000
  Fe  Fe49      1.0  0.22471  0.04238  0.68578  1.0000
  C   C375      1.0  0.18295  0.98360  0.97942  1.0000
  C   C376      1.0  0.19944  0.03979  0.87535  1.0000
  H   H662      1.0  0.94365  0.04326  0.86010  1.0000
  H   H663      1.0  0.88812  0.96216  0.02139  1.0000
  C   C377      1.0  0.04284  0.02533  0.81802  1.0000
  S   S104      1.0  0.18083  0.92584  0.68761  1.0000
  C   C378      1.0  0.35023  0.96083  0.77339  1.0000
  H   H664      1.0  0.05995  0.06535  0.88354  1.0000
  C   C379      1.0  0.25994  0.90159  0.02888  1.0000
  H   H665      1.0  0.22035  0.84897  0.55706  1.0000
  Fe  Fe50      1.0  0.21597  0.97764  0.78747  1.0000
  H   H666      1.0  0.27947  0.89160  0.55553  1.0000
  C   C380      1.0  0.06993  0.92266  0.73523  1.0000
  Fe  Fe51      1.0  0.14291  0.01820  0.76793  1.0000
  H   H667      1.0  0.19735  0.96807  0.95540  1.0000
  C   C381      1.0  0.07918  0.96389  0.69541  1.0000
  S   S105      1.0  0.97221  0.87229  0.88259  1.0000
  C   C382      1.0  0.02291  0.90713  0.70601  1.0000
  S   S106      1.0  0.88535  0.87871  0.96491  1.0000
  C   C383      1.0  0.01159  0.05697  0.01872  1.0000
  H   H668      1.0  0.09635  0.92004  0.64149  1.0000
  H   H669      1.0  0.97766  0.89785  0.78036  1.0000
  S   S107      1.0  0.16694  0.02596  0.68888  1.0000
  C   C384      1.0  0.15728  0.05652  0.88668  1.0000
  C   C385      1.0  0.00319  0.97571  0.82773  1.0000
  C   C386      1.0  0.34272  0.91886  0.85813  1.0000
  C   C387      1.0  0.30116  0.92298  0.87287  1.0000
  C   C388      1.0  0.22291  0.84450  0.86652  1.0000
  H   H670      1.0  0.25011  0.93120  0.02384  1.0000
  S   S108      1.0  0.28977  0.00882  0.01023  1.0000
  H   H671      1.0  0.10535  0.93990  0.98182  1.0000
  C   C389      1.0  0.28420  0.94536  0.83755  1.0000
  C   C390      1.0  0.26204  0.02209  0.89114  1.0000
  C   C391      1.0  0.30946  0.86725  0.60791  1.0000
  H   H672      1.0  0.25109  0.07708  0.94821  1.0000
  H   H673      1.0  0.28592  0.90515  0.99437  1.0000
  S   S109      1.0  0.19907  0.03880  0.76325  1.0000
  C   C392      1.0  0.09402  0.89342  0.67522  1.0000
  H   H674      1.0  0.28098  0.84693  0.75217  1.0000
  H   H675      1.0  0.30404  0.85442  0.85028  1.0000
  H   H676      1.0  0.25656  0.99174  0.90121  1.0000
  H   H677      1.0  0.98861  0.89014  0.01722  1.0000
  H   H678      1.0  0.04583  0.92315  0.76949  1.0000
  H   H679      1.0  0.08374  0.98208  0.71188  1.0000
  H   H680      1.0  0.18625  0.96600  0.01573  1.0000
  C   C393      1.0  0.23808  0.88252  0.72207  1.0000
  H   H681      1.0  0.18565  0.86959  0.82204  1.0000
  H   H682      1.0  0.24994  0.85560  0.83207  1.0000
  C   C394      1.0  0.00100  0.03075  0.00584  1.0000
  H   H683      1.0  0.31351  0.87150  0.63782  1.0000
  C   C395      1.0  0.05092  0.85651  0.76306  1.0000
  C   C396      1.0  0.33778  0.92228  0.01974  1.0000
  C   C397      1.0  0.25772  0.84834  0.73837  1.0000
  H   H684      1.0  0.23469  0.85143  0.03287  1.0000
  H   H685      1.0  0.06404  0.85860  0.65794  1.0000
  C   C398      1.0  0.36862  0.85088  0.71144  1.0000
  C   C399      1.0  0.23590  0.97105  0.55768  1.0000
  H   H686      1.0  0.11493  0.85266  0.75655  1.0000
  C   C400      1.0  0.19726  0.85163  0.70335  1.0000
  H   H687      1.0  0.11719  0.86420  0.62587  1.0000
  H   H688      1.0  0.36625  0.92473  0.54048  1.0000
  H   H689      1.0  0.05467  0.84703  0.00940  1.0000
  S   S110      1.0  0.37099  0.04339  0.87599  1.0000
  H   H690      1.0  0.89120  0.08583  0.84318  1.0000
  H   H691      1.0  0.95579  0.07882  0.91135  1.0000
  C   C401      1.0  0.25956  0.09231  0.90750  1.0000
  H   H692      1.0  0.32420  0.91791  0.47876  1.0000
  C   C402      1.0  0.28540  0.00812  0.06695  1.0000
  H   H693      1.0  0.33611  0.03722  0.11590  1.0000
  H   H694      1.0  0.21049  0.86918  0.19727  1.0000
  Fe  Fe52      1.0  0.91156  0.01743  0.09544  1.0000
  H   H695      1.0  0.20991  0.06878  0.05210  1.0000
  C   C403      1.0  0.28086  0.00507  0.15780  1.0000
  H   H696      1.0  0.07106  0.85666  0.07240  1.0000
  C   C404      1.0  0.36936  0.07318  0.21813  1.0000
  C   C405      1.0  0.27939  0.96568  0.52664  1.0000
  H   H697      1.0  0.14746  0.94183  0.24480  1.0000
  C   C406      1.0  0.34611  0.93968  0.51981  1.0000
  H   H698      1.0  0.31710  0.88842  0.09796  1.0000
  C   C407      1.0  0.93998  0.91929  0.29833  1.0000
  H   H699      1.0  0.04032  0.91983  0.23341  1.0000
  S   S111      1.0  0.96429  0.99511  0.04900  1.0000
  C   C408      1.0  0.13642  0.91566  0.20351  1.0000
  C   C409      1.0  0.88592  0.04898  0.31950  1.0000
  H   H700      1.0  0.96265  0.97593  0.20817  1.0000
  S   S112      1.0  0.28005  0.00247  0.21400  1.0000
  H   H701      1.0  0.22105  0.91131  0.11022  1.0000
  S   S113      1.0  0.19446  0.85990  0.39197  1.0000
  C   C410      1.0  0.13200  0.91907  0.24699  1.0000
  C   C411      1.0  0.11788  0.88526  0.20649  1.0000
  C   C412      1.0  0.01830  0.96974  0.24733  1.0000
  H   H702      1.0  0.99221  0.98021  0.27098  1.0000
  H   H703      1.0  0.35573  0.94998  0.23521  1.0000
  S   S114      1.0  0.89049  0.01663  0.25749  1.0000
  H   H704      1.0  0.04476  0.97212  0.25534  1.0000
  H   H705      1.0  0.88554  0.95495  0.08120  1.0000
  H   H706      1.0  0.88924  0.92828  0.27316  1.0000
  C   C413      1.0  0.00419  0.95133  0.15798  1.0000
  H   H707      1.0  0.94472  0.90089  0.33363  1.0000
  H   H708      1.0  0.92254  0.90863  0.12139  1.0000
  H   H709      1.0  0.21041  0.86358  0.12550  1.0000
  H   H710      1.0  0.26075  0.08988  0.09316  1.0000
  H   H711      1.0  0.97033  0.07672  0.21722  1.0000
  C   C414      1.0  0.25032  0.98849  0.15571  1.0000
  S   S115      1.0  0.22385  0.90381  0.46127  1.0000
  C   C415      1.0  0.10786  0.89290  0.29326  1.0000
  H   H712      1.0  0.27717  0.95584  0.49986  1.0000
  C   C416      1.0  0.96981  0.94732  0.20741  1.0000
  C   C417      1.0  0.25918  0.87112  0.48010  1.0000
  H   H713      1.0  0.01315  0.91056  0.29622  1.0000
  H   H714      1.0  0.99889  0.93190  0.14360  1.0000
  H   H715      1.0  0.91703  0.85847  0.16201  1.0000
  C   C418      1.0  0.09316  0.85949  0.25266  1.0000
  H   H716      1.0  0.90175  0.02440  0.33639  1.0000
  S   S116      1.0  0.12639  0.87919  0.15254  1.0000
  C   C419      1.0  0.05211  0.87643  0.05247  1.0000
  H   H717      1.0  0.06856  0.84373  0.33170  1.0000
  H   H718      1.0  0.36764  0.04301  0.22455  1.0000
  H   H719      1.0  0.97185  0.06223  0.17106  1.0000
  H   H720      1.0  0.30840  0.87575  0.22602  1.0000
  C   C420      1.0  0.24001  0.86943  0.16810  1.0000
  Fe  Fe53      1.0  0.24570  0.95071  0.27836  1.0000
  C   C421      1.0  0.89928  0.90740  0.30312  1.0000
  H   H721      1.0  0.37168  0.92692  0.28675  1.0000
  H   H722      1.0  0.29014  0.93039  0.07937  1.0000
  H   H723      1.0  0.90728  0.89632  0.06477  1.0000
  H   H724      1.0  0.22903  0.97707  0.10869  1.0000
  C   C422      1.0  0.25257  0.99001  0.11020  1.0000
  H   H725      1.0  0.93598  0.94832  0.29778  1.0000
  H   H726      1.0  0.03408  0.94554  0.16087  1.0000
  H   H727      1.0  0.19741  0.88148  0.05720  1.0000
  H   H728      1.0  0.02448  0.98862  0.20763  1.0000
  H   H729      1.0  0.99810  0.05467  0.05645  1.0000
  H   H730      1.0  0.34133  0.08749  0.21446  1.0000
  H   H731      1.0  0.15538  0.93577  0.16783  1.0000
  H   H732      1.0  0.00585  0.98109  0.12996  1.0000
  C   C423      1.0  0.30324  0.90565  0.07026  1.0000
  C   C424      1.0  0.31288  0.02404  0.11434  1.0000
  H   H733      1.0  0.22470  0.97502  0.18893  1.0000
  C   C425      1.0  0.35192  0.92179  0.48291  1.0000
  C   C426      1.0  0.34296  0.85166  0.17329  1.0000
  H   H734      1.0  0.35698  0.87852  0.14431  1.0000
  Fe  Fe54      1.0  0.16814  0.90431  0.33930  1.0000
  S   S117      1.0  0.87697  0.97887  0.17350  1.0000
  C   C427      1.0  0.97874  0.08645  0.17661  1.0000
  S   S118      1.0  0.91313  0.06593  0.11440  1.0000
  H   H735      1.0  0.90636  0.89335  0.18699  1.0000
  C   C428      1.0  0.29739  0.86968  0.44597  1.0000
  C   C429      1.0  0.31521  0.02550  0.06906  1.0000
  H   H736      1.0  0.22154  0.99224  0.53239  1.0000
  H   H737      1.0  0.88435  0.07566  0.36673  1.0000
  H   H738      1.0  0.37093  0.07299  0.25215  1.0000
  C   C430      1.0  0.31606  0.85002  0.21975  1.0000
  S   S119      1.0  0.19169  0.95281  0.34268  1.0000
  H   H739      1.0  0.02066  0.86602  0.07553  1.0000
  H   H740      1.0  0.25975  0.88938  0.16668  1.0000
  C   C431      1.0  0.90408  0.88689  0.15754  1.0000
  H   H741      1.0  0.35813  0.96940  0.49736  1.0000
  H   H742      1.0  0.94293  0.93949  0.20465  1.0000
  H   H743      1.0  0.00831  0.87900  0.22228  1.0000
  H   H744      1.0  0.00407  0.84926  0.31253  1.0000
  S   S120      1.0  0.27824  0.90946  0.32589  1.0000
  H   H745      1.0  0.29416  0.99431  0.50325  1.0000
  S   S121      1.0  0.10565  0.89450  0.34789  1.0000
  C   C432      1.0  0.01270  0.92784  0.25825  1.0000
  H   H746      1.0  0.37249  0.94022  0.44544  1.0000
  S   S122      1.0  0.22010  0.90516  0.27162  1.0000
  Fe  Fe55      1.0  0.22261  0.90808  0.38988  1.0000
  N   N30       1.0  0.97566  0.91865  0.25410  1.0000
  H   H747      1.0  0.35131  0.88239  0.25977  1.0000
  C   C433      1.0  0.08737  0.86388  0.29596  1.0000
  H   H748      1.0  0.05519  0.90472  0.05108  1.0000
  C   C434      1.0  0.23422  0.88245  0.11821  1.0000
  N   N31       1.0  0.27103  0.88265  0.07440  1.0000
  H   H749      1.0  0.30500  0.88792  0.40704  1.0000
  C   C435      1.0  0.98005  0.88007  0.25262  1.0000
  Fe  Fe56      1.0  0.24796  0.86433  0.32456  1.0000
  C   C436      1.0  0.24980  0.84801  0.53059  1.0000
  H   H750      1.0  0.35673  0.84677  0.43677  1.0000
  H   H751      1.0  0.89932  0.87854  0.30435  1.0000
  H   H752      1.0  0.95573  0.87444  0.24332  1.0000
  C   C437      1.0  0.32670  0.84645  0.46276  1.0000
  H   H753      1.0  0.01150  0.09193  0.15746  1.0000
  H   H754      1.0  0.36684  0.89395  0.49366  1.0000
  C   C438      1.0  0.98049  0.84603  0.30058  1.0000
  H   H755      1.0  0.87621  0.90688  0.33854  1.0000
  H   H756      1.0  0.16355  0.09271  0.04890  1.0000
  C   C439      1.0  0.54421  0.32927  0.56509  1.0000
  C   C440      1.0  0.45562  0.29006  0.69487  1.0000
  H   H757      1.0  0.54520  0.13956  0.89842  1.0000
  H   H758      1.0  0.64424  0.11247  0.00529  1.0000
  C   C441      1.0  0.81562  0.10627  0.74024  1.0000
  H   H759      1.0  0.45129  0.31730  0.75912  1.0000
  H   H760      1.0  0.37894  0.27730  0.66846  1.0000
  H   H761      1.0  0.46553  0.17578  0.75170  1.0000
  C   C442      1.0  0.58024  0.19253  0.74803  1.0000
  C   C443      1.0  0.56247  0.24532  0.60766  1.0000
  S   S123      1.0  0.77707  0.12911  0.81590  1.0000
  H   H762      1.0  0.57230  0.22394  0.63771  1.0000
  H   H763      1.0  0.58021  0.13163  0.99435  1.0000
  C   C444      1.0  0.78385  0.26651  0.64737  1.0000
  C   C445      1.0  0.64399  0.12259  0.96726  1.0000
  H   H764      1.0  0.68508  0.24102  0.03247  1.0000
  H   H765      1.0  0.72219  0.11590  0.70628  1.0000
  H   H766      1.0  0.78587  0.23706  0.67117  1.0000
  C   C446      1.0  0.52628  0.15169  0.81859  1.0000
  H   H767      1.0  0.48971  0.28460  0.76054  1.0000
  C   C447      1.0  0.46119  0.22896  0.75932  1.0000
  C   C448      1.0  0.55178  0.31610  0.96319  1.0000
  H   H768      1.0  0.84244  0.34121  0.54996  1.0000
  C   C449      1.0  0.59317  0.16304  0.73196  1.0000
  H   H769      1.0  0.48062  0.15023  0.60775  1.0000
  C   C450      1.0  0.71463  0.23033  0.83538  1.0000
  H   H770      1.0  0.54553  0.27812  0.93281  1.0000
  S   S124      1.0  0.84446  0.29369  0.79574  1.0000
  C   C451      1.0  0.77084  0.18485  0.98127  1.0000
  H   H771      1.0  0.43284  0.09915  0.65859  1.0000
  C   C452      1.0  0.44854  0.20242  0.74246  1.0000
  H   H772      1.0  0.56033  0.23014  0.58632  1.0000
  H   H773      1.0  0.55470  0.19954  0.92812  1.0000
  C   C453      1.0  0.81578  0.32477  0.57836  1.0000
  H   H774      1.0  0.58502  0.09733  0.86099  1.0000
  H   H775      1.0  0.76519  0.31096  0.76244  1.0000
  H   H776      1.0  0.72498  0.27332  0.00953  1.0000
  S   S125      1.0  0.68789  0.15131  0.63362  1.0000
  H   H777      1.0  0.45588  0.21415  0.70191  1.0000
  S   S126      1.0  0.39746  0.17213  0.60961  1.0000
  H   H778      1.0  0.53247  0.25476  0.62573  1.0000
  C   C454      1.0  0.58780  0.19990  0.91591  1.0000
  Fe  Fe57      1.0  0.64088  0.32411  0.68322  1.0000
  H   H779      1.0  0.80012  0.28961  0.00387  1.0000
  H   H780      1.0  0.45541  0.21206  0.79949  1.0000
  H   H781      1.0  0.84159  0.10274  0.75012  1.0000
  C   C455      1.0  0.60732  0.17224  0.89074  1.0000
  C   C456      1.0  0.73415  0.25481  0.84864  1.0000
  C   C457      1.0  0.74328  0.32001  0.61764  1.0000
  H   H782      1.0  0.69977  0.25620  0.56830  1.0000
  H   H783      1.0  0.68170  0.22856  0.85429  1.0000
  C   C458      1.0  0.80702  0.20509  0.57799  1.0000
  H   H784      1.0  0.81784  0.22830  0.58161  1.0000
  C   C459      1.0  0.40068  0.17429  0.94890  1.0000
  H   H785      1.0  0.65059  0.33136  0.55842  1.0000
  H   H786      1.0  0.78117  0.10952  0.97835  1.0000
  S   S127      1.0  0.86370  0.18448  0.81552  1.0000
  H   H787      1.0  0.47451  0.13152  0.56923  1.0000
  H   H788      1.0  0.59803  0.22938  0.88838  1.0000
  H   H789      1.0  0.84748  0.09423  0.67571  1.0000
  C   C460      1.0  0.59373  0.27838  0.57515  1.0000
  C   C461      1.0  0.39659  0.26092  0.77285  1.0000
  H   H790      1.0  0.38645  0.31869  0.77498  1.0000
  H   H791      1.0  0.63740  0.09633  0.82902  1.0000
  N   N32       1.0  0.58197  0.31352  0.53806  1.0000
  H   H792      1.0  0.40878  0.18381  0.00609  1.0000
  H   H793      1.0  0.49890  0.29069  0.96873  1.0000
  H   H794      1.0  0.53301  0.14107  0.95572  1.0000
  H   H795      1.0  0.82295  0.17916  0.59430  1.0000
  H   H796      1.0  0.38817  0.23660  0.80987  1.0000
  S   S128      1.0  0.43416  0.10929  0.84675  1.0000
  C   C462      1.0  0.78549  0.10555  0.68512  1.0000
  H   H797      1.0  0.71693  0.12709  0.77884  1.0000
  H   H798      1.0  0.52426  0.09463  0.82463  1.0000
  H   H799      1.0  0.76994  0.32803  0.82410  1.0000
  C   C463      1.0  0.65551  0.27521  0.91568  1.0000
  H   H800      1.0  0.50058  0.14710  0.85246  1.0000
  Fe  Fe58      1.0  0.85408  0.24571  0.77250  1.0000
  Fe  Fe59      1.0  0.82783  0.17124  0.78054  1.0000
  H   H801      1.0  0.65418  0.15280  0.94737  1.0000
  C   C464      1.0  0.60131  0.11737  0.97106  1.0000
  S   S129      1.0  0.62608  0.29030  0.76522  1.0000
  H   H802      1.0  0.60017  0.28531  0.60179  1.0000
  H   H803      1.0  0.45045  0.27451  0.67563  1.0000
  C   C465      1.0  0.73206  0.26379  0.55337  1.0000
  H   H804      1.0  0.44603  0.24012  0.84785  1.0000
  H   H805      1.0  0.51200  0.14448  0.70183  1.0000
  S   S130      1.0  0.42718  0.13208  0.95822  1.0000
  H   H806      1.0  0.45433  0.28600  0.84174  1.0000
  C   C466      1.0  0.80524  0.17793  0.99309  1.0000
  C   C467      1.0  0.57360  0.12743  0.76026  1.0000
  H   H807      1.0  0.72912  0.23867  0.88859  1.0000
  H   H808      1.0  0.52687  0.32394  0.90629  1.0000
  H   H809      1.0  0.48860  0.29514  0.67978  1.0000
  H   H810      1.0  0.62403  0.26806  0.92482  1.0000
  S   S131      1.0  0.69206  0.17691  0.00086  1.0000
  H   H811      1.0  0.77472  0.19921  0.60051  1.0000
  C   C468      1.0  0.45653  0.28636  0.77276  1.0000
  C   C469      1.0  0.74031  0.31591  0.85297  1.0000
  C   C470      1.0  0.43640  0.32894  0.67612  1.0000
  H   H812      1.0  0.45358  0.11652  0.70878  1.0000
  S   S132      1.0  0.53362  0.22098  0.81610  1.0000
  C   C471      1.0  0.38184  0.18650  0.91450  1.0000
  H   H813      1.0  0.38793  0.17285  0.88954  1.0000
  H   H814      1.0  0.64030  0.17659  0.87617  1.0000
  C   C472      1.0  0.67541  0.29751  0.85904  1.0000
  C   C473      1.0  0.81875  0.28758  0.61092  1.0000
  N   N33       1.0  0.59579  0.13072  0.92230  1.0000
  H   H815      1.0  0.75901  0.31177  0.91155  1.0000
  H   H816      1.0  0.84562  0.30721  0.69858  1.0000
  H   H817      1.0  0.66674  0.32753  0.85187  1.0000
  H   H818      1.0  0.59666  0.19443  0.94761  1.0000
  C   C474      1.0  0.52905  0.30213  0.94143  1.0000
  N   N34       1.0  0.72021  0.29532  0.83655  1.0000
  H   H819      1.0  0.51741  0.31380  0.57249  1.0000
  C   C475      1.0  0.48044  0.09830  0.70768  1.0000
  H   H820      1.0  0.41637  0.19403  0.76260  1.0000
  H   H821      1.0  0.76718  0.25452  0.82964  1.0000
  C   C476      1.0  0.73490  0.16559  0.01640  1.0000
  C   C477      1.0  0.73275  0.31511  0.78070  1.0000
  H   H822      1.0  0.74219  0.25206  0.58506  1.0000
  Fe  Fe60      1.0  0.86780  0.23423  0.67985  1.0000
  H   H823      1.0  0.40724  0.27527  0.84499  1.0000
  C   C478      1.0  0.43971  0.27058  0.82999  1.0000
  H   H824      1.0  0.72269  0.24062  0.79477  1.0000
  C   C479      1.0  0.54740  0.18643  0.79206  1.0000
  H   H825      1.0  0.71677  0.30273  0.76682  1.0000
  C   C480      1.0  0.55222  0.12573  0.93278  1.0000
  H   H826      1.0  0.72584  0.20084  0.84828  1.0000
  H   H827      1.0  0.77315  0.27234  0.89526  1.0000
  H   H828      1.0  0.72284  0.34104  0.85739  1.0000
  C   C481      1.0  0.77917  0.11656  0.76864  1.0000
  S   S133      1.0  0.44403  0.33938  0.55294  1.0000
  H   H829      1.0  0.84265  0.10502  0.86080  1.0000
  H   H830      1.0  0.43499  0.23335  0.01445  1.0000
  H   H831      1.0  0.66895  0.24739  0.93045  1.0000
  Fe  Fe61      1.0  0.56778  0.27606  0.76658  1.0000
  C   C482      1.0  0.79982  0.25832  0.01635  1.0000
  C   C483      1.0  0.74855  0.29242  0.90115  1.0000
  H   H832      1.0  0.71912  0.26635  0.67840  1.0000
  Fe  Fe62      1.0  0.64307  0.10328  0.67226  1.0000
  H   H833      1.0  0.77196  0.20569  0.94510  1.0000
  C   C484      1.0  0.84564  0.33413  0.70048  1.0000
  H   H834      1.0  0.55190  0.29093  0.99734  1.0000
  H   H835      1.0  0.54340  0.32447  0.60228  1.0000
  C   C485      1.0  0.81889  0.10115  0.69830  1.0000
  H   H836      1.0  0.59946  0.18263  0.85707  1.0000
  Fe  Fe63      1.0  0.67911  0.15901  0.56477  1.0000
  C   C486      1.0  0.51733  0.12512  0.68296  1.0000
  H   H837      1.0  0.65993  0.28951  0.84050  1.0000
  H   H838      1.0  0.72169  0.27681  0.93265  1.0000
  H   H839      1.0  0.78433  0.24985  0.99850  1.0000
  H   H840      1.0  0.62210  0.26680  0.55601  1.0000
  S   S134      1.0  0.86620  0.26752  0.60411  1.0000
  Fe  Fe64      1.0  0.42138  0.22441  0.53962  1.0000
  S   S135      1.0  0.81301  0.23214  0.74486  1.0000
  C   C487      1.0  0.39376  0.19293  0.97999  1.0000
  H   H841      1.0  0.65579  0.29235  0.93572  1.0000
  H   H842      1.0  0.61914  0.16750  0.69881  1.0000
  S   S136      1.0  0.69713  0.34024  0.61562  1.0000
  C   C488      1.0  0.61397  0.11122  0.84933  1.0000
  H   H843      1.0  0.58350  0.32173  0.93698  1.0000
  H   H844      1.0  0.49439  0.23273  0.74100  1.0000
  S   S137      1.0  0.53508  0.32630  0.77928  1.0000
  C   C489      1.0  0.62245  0.10790  0.89437  1.0000
  H   H845      1.0  0.59151  0.30621  0.02778  1.0000
  C   C490      1.0  0.84427  0.33562  0.74396  1.0000
  Fe  Fe65      1.0  0.73290  0.10785  0.61916  1.0000
  H   H846      1.0  0.59663  0.21938  0.72735  1.0000
  H   H847      1.0  0.83242  0.19411  0.96629  1.0000
  H   H848      1.0  0.40657  0.32577  0.67618  1.0000
  C   C491      1.0  0.77820  0.34077  0.58173  1.0000
  S   S138      1.0  0.58532  0.30485  0.68408  1.0000
  C   C492      1.0  0.74603  0.28291  0.65120  1.0000
  N   N35       1.0  0.44131  0.26720  0.75027  1.0000
  H   H849      1.0  0.61462  0.14114  0.82261  1.0000
  S   S139      1.0  0.63071  0.11437  0.60464  1.0000
  C   C493      1.0  0.48646  0.12495  0.59883  1.0000
  H   H850      1.0  0.43709  0.32374  0.01944  1.0000
  H   H851      1.0  0.83153  0.25007  0.00274  1.0000
  C   C494      1.0  0.74525  0.11928  0.75690  1.0000
  H   H852      1.0  0.52409  0.14299  0.64312  1.0000
  C   C495      1.0  0.74840  0.11361  0.71524  1.0000
  H   H853      1.0  0.51892  0.12105  0.58278  1.0000
  C   C496      1.0  0.53951  0.12213  0.80281  1.0000
  H   H854      1.0  0.83040  0.10160  0.94202  1.0000
  H   H855      1.0  0.65445  0.11658  0.87999  1.0000
  S   S140      1.0  0.72875  0.11996  0.54618  1.0000
  Fe  Fe66      1.0  0.40635  0.10090  0.92638  1.0000
  H   H856      1.0  0.59540  0.18913  0.54085  1.0000
  H   H857      1.0  0.38656  0.25167  0.75058  1.0000
  S   S141      1.0  0.79058  0.09972  0.63183  1.0000
  H   H858      1.0  0.54439  0.10914  0.68739  1.0000
  H   H859      1.0  0.66600  0.10525  0.94958  1.0000
  Fe  Fe67      1.0  0.59398  0.34210  0.77336  1.0000
  C   C497      1.0  0.49356  0.34259  0.01276  1.0000
  H   H860      1.0  0.74369  0.26540  0.48250  1.0000
  H   H861      1.0  0.70135  0.11402  0.45319  1.0000
  H   H862      1.0  0.55295  0.14644  0.31943  1.0000
  C   C498      1.0  0.50312  0.20280  0.31165  1.0000
  C   C499      1.0  0.41883  0.25246  0.12943  1.0000
  H   H863      1.0  0.80295  0.24306  0.08766  1.0000
  H   H864      1.0  0.54054  0.30990  0.26157  1.0000
  H   H865      1.0  0.83150  0.13793  0.25722  1.0000
  S   S142      1.0  0.78015  0.19654  0.25171  1.0000
  C   C500      1.0  0.45503  0.23750  0.10727  1.0000
  H   H866      1.0  0.63466  0.14558  0.28409  1.0000
  H   H867      1.0  0.59117  0.16375  0.41340  1.0000
  C   C501      1.0  0.63081  0.17601  0.26876  1.0000
  H   H868      1.0  0.75199  0.12965  0.42985  1.0000
  C   C502      1.0  0.46066  0.23005  0.06626  1.0000
  C   C503      1.0  0.53552  0.12641  0.35753  1.0000
  C   C504      1.0  0.43039  0.23834  0.04680  1.0000
  Fe  Fe68      1.0  0.72404  0.21203  0.30164  1.0000
  C   C505      1.0  0.57586  0.30167  0.50215  1.0000
  C   C506      1.0  0.61198  0.19240  0.23420  1.0000
  C   C507      1.0  0.86064  0.28951  0.47463  1.0000
  H   H869      1.0  0.44291  0.15082  0.08366  1.0000
  C   C508      1.0  0.60514  0.20745  0.50165  1.0000
  S   S143      1.0  0.84646  0.14682  0.33488  1.0000
  C   C509      1.0  0.38829  0.25999  0.11051  1.0000
  H   H870      1.0  0.65124  0.25609  0.27403  1.0000
  C   C510      1.0  0.61676  0.34143  0.51038  1.0000
  C   C511      1.0  0.79953  0.22361  0.43208  1.0000
  H   H871      1.0  0.72379  0.16982  0.21586  1.0000
  C   C512      1.0  0.81533  0.25370  0.44085  1.0000
  S   S144      1.0  0.73680  0.27487  0.25905  1.0000
  H   H872      1.0  0.51504  0.18930  0.28488  1.0000
  H   H873      1.0  0.60412  0.29027  0.48268  1.0000
  C   C513      1.0  0.73695  0.18194  0.17466  1.0000
  H   H874      1.0  0.52247  0.19564  0.40046  1.0000
  S   S145      1.0  0.62592  0.15774  0.14320  1.0000
  C   C514      1.0  0.84589  0.11298  0.27533  1.0000
  C   C515      1.0  0.73117  0.22541  0.15454  1.0000
  H   H875      1.0  0.44612  0.12768  0.04595  1.0000
  C   C516      1.0  0.59037  0.24270  0.42652  1.0000
  H   H876      1.0  0.40942  0.12239  0.17272  1.0000
  H   H877      1.0  0.74384  0.21869  0.52827  1.0000
  H   H878      1.0  0.47860  0.23212  0.12170  1.0000
  C   C517      1.0  0.84611  0.32939  0.11514  1.0000
  H   H879      1.0  0.51466  0.11079  0.35347  1.0000
  S   S146      1.0  0.76276  0.30678  0.34672  1.0000
  H   H880      1.0  0.42897  0.30831  0.29447  1.0000
  C   C518      1.0  0.71073  0.23056  0.08762  1.0000
  H   H881      1.0  0.52892  0.33771  0.47884  1.0000
  C   C519      1.0  0.75495  0.24836  0.51323  1.0000
  H   H882      1.0  0.52749  0.31047  0.32074  1.0000
  H   H883      1.0  0.47971  0.22249  0.30094  1.0000
  H   H884      1.0  0.77482  0.10226  0.37029  1.0000
  C   C520      1.0  0.48613  0.10693  0.08650  1.0000
  H   H885      1.0  0.56219  0.12103  0.44320  1.0000
  Fe  Fe69      1.0  0.80801  0.19398  0.30395  1.0000
  C   C521      1.0  0.73290  0.10617  0.43786  1.0000
  H   H886      1.0  0.46616  0.19020  0.38729  1.0000
  H   H887      1.0  0.68714  0.25761  0.40550  1.0000
  H   H888      1.0  0.59999  0.17441  0.22455  1.0000
  C   C522      1.0  0.39416  0.25309  0.06907  1.0000
  S   S147      1.0  0.67603  0.21715  0.50768  1.0000
  C   C523      1.0  0.73652  0.28769  0.08640  1.0000
  H   H889      1.0  0.70608  0.12284  0.09005  1.0000
  H   H890      1.0  0.56359  0.18574  0.35458  1.0000
  H   H891      1.0  0.84927  0.21243  0.50548  1.0000
  H   H892      1.0  0.74029  0.30421  0.04687  1.0000
  C   C524      1.0  0.69703  0.30044  0.11708  1.0000
  H   H893      1.0  0.46146  0.15626  0.36622  1.0000
  C   C525      1.0  0.44506  0.12214  0.08350  1.0000
  S   S148      1.0  0.47680  0.25094  0.52859  1.0000
  S   S149      1.0  0.55615  0.25998  0.39619  1.0000
  H   H894      1.0  0.72238  0.20447  0.08124  1.0000
  H   H895      1.0  0.73641  0.12498  0.29562  1.0000
  H   H896      1.0  0.46641  0.33078  0.23429  1.0000
  C   C526      1.0  0.57794  0.21810  0.47702  1.0000
  C   C527      1.0  0.48701  0.11938  0.43974  1.0000
  C   C528      1.0  0.46105  0.31734  0.27454  1.0000
  C   C529      1.0  0.64536  0.19898  0.28267  1.0000
  Fe  Fe70      1.0  0.49465  0.26395  0.44815  1.0000
  C   C530      1.0  0.58305  0.33937  0.26606  1.0000
  S   S150      1.0  0.53079  0.17857  0.16107  1.0000
  H   H897      1.0  0.80364  0.31045  0.46941  1.0000
  Fe  Fe71      1.0  0.56936  0.12791  0.16270  1.0000
  H   H898      1.0  0.81180  0.23065  0.39162  1.0000
  C   C531      1.0  0.56111  0.33215  0.46229  1.0000
  H   H899      1.0  0.47600  0.15594  0.48023  1.0000
  H   H900      1.0  0.59971  0.31268  0.27746  1.0000
  H   H901      1.0  0.68176  0.22114  0.11971  1.0000
  H   H902      1.0  0.69375  0.33155  0.09776  1.0000
  H   H903      1.0  0.87561  0.29437  0.43504  1.0000
  H   H904      1.0  0.86678  0.31546  0.47734  1.0000
  C   C532      1.0  0.81491  0.28421  0.49320  1.0000
  H   H905      1.0  0.66956  0.09908  0.38976  1.0000
  C   C533      1.0  0.60812  0.23178  0.21292  1.0000
  H   H906      1.0  0.76121  0.29796  0.09088  1.0000
  H   H907      1.0  0.87423  0.26551  0.49812  1.0000
  H   H908      1.0  0.67062  0.28610  0.12194  1.0000
  H   H909      1.0  0.54739  0.20745  0.49714  1.0000
  H   H910      1.0  0.69707  0.29501  0.15402  1.0000
  H   H911      1.0  0.74999  0.23773  0.16533  1.0000
  H   H912      1.0  0.46172  0.33005  0.33337  1.0000
  S   S151      1.0  0.46593  0.32096  0.43055  1.0000
  Fe  Fe72      1.0  0.76861  0.26751  0.31003  1.0000
  H   H913      1.0  0.47858  0.29111  0.28345  1.0000
  H   H914      1.0  0.76647  0.22362  0.44356  1.0000
  C   C534      1.0  0.56007  0.15220  0.43006  1.0000
  H   H915      1.0  0.43364  0.15072  0.46657  1.0000
  C   C535      1.0  0.73376  0.13815  0.06300  1.0000
  S   S152      1.0  0.58090  0.13901  0.08385  1.0000
  H   H916      1.0  0.84850  0.25237  0.42560  1.0000
  N   N36       1.0  0.73980  0.24553  0.09947  1.0000
  H   H917      1.0  0.56360  0.32111  0.43461  1.0000
  Fe  Fe73      1.0  0.44343  0.30515  0.51247  1.0000
  N   N37       1.0  0.40925  0.09746  0.12370  1.0000
  C   C536      1.0  0.53958  0.17188  0.39157  1.0000
  Fe  Fe74      1.0  0.41192  0.28890  0.44732  1.0000
  H   H918      1.0  0.76917  0.17486  0.16413  1.0000
  H   H919      1.0  0.48958  0.10639  0.11966  1.0000
  H   H920      1.0  0.76796  0.10887  0.11009  1.0000
  H   H921      1.0  0.54505  0.15962  0.46251  1.0000
  Fe  Fe75      1.0  0.58768  0.20955  0.13634  1.0000
  S   S153      1.0  0.82827  0.25501  0.26190  1.0000
  S   S154      1.0  0.38679  0.27805  0.52790  1.0000
  Fe  Fe76      1.0  0.54648  0.19204  0.08081  1.0000
  H   H922      1.0  0.78567  0.20620  0.08087  1.0000
  H   H923      1.0  0.64003  0.27417  0.36125  1.0000
  H   H924      1.0  0.69995  0.34081  0.31254  1.0000
  H   H925      1.0  0.65913  0.32371  0.40076  1.0000
  C   C537      1.0  0.53911  0.32877  0.28016  1.0000
  H   H926      1.0  0.52693  0.22040  0.30706  1.0000
  C   C538      1.0  0.76878  0.13010  0.07419  1.0000
  S   S155      1.0  0.58852  0.25228  0.16575  1.0000
  H   H927      1.0  0.72160  0.16772  0.16228  1.0000
  H   H928      1.0  0.73164  0.12825  0.36482  1.0000
  C   C539      1.0  0.63015  0.25561  0.40038  1.0000
  S   S156      1.0  0.66976  0.17775  0.32474  1.0000
  H   H929      1.0  0.69965  0.22954  0.17602  1.0000
  S   S157      1.0  0.82384  0.28644  0.13084  1.0000
  H   H930      1.0  0.55335  0.27814  0.52188  1.0000
  Fe  Fe77      1.0  0.79552  0.25861  0.21365  1.0000
  C   C540      1.0  0.48382  0.17333  0.36574  1.0000
  C   C541      1.0  0.78240  0.23696  0.07326  1.0000
  H   H931      1.0  0.59142  0.11222  0.37256  1.0000
  C   C542      1.0  0.65685  0.24605  0.42532  1.0000
  H   H932      1.0  0.80757  0.28207  0.41657  1.0000
  H   H933      1.0  0.81837  0.33293  0.24554  1.0000
  C   C543      1.0  0.74186  0.10167  0.38924  1.0000
  C   C544      1.0  0.64052  0.23838  0.26262  1.0000
  S   S158      1.0  0.50523  0.21055  0.03863  1.0000
  H   H934      1.0  0.44709  0.11274  0.51410  1.0000
  C   C545      1.0  0.62152  0.25478  0.22798  1.0000
  H   H935      1.0  0.46759  0.10204  0.43608  1.0000
  Fe  Fe78      1.0  0.63438  0.17296  0.06414  1.0000
  C   C546      1.0  0.69927  0.25779  0.04292  1.0000
  H   H936      1.0  0.61827  0.28528  0.21176  1.0000
  C   C547      1.0  0.85632  0.11014  0.31437  1.0000
  N   N38       1.0  0.80024  0.24965  0.49389  1.0000
  S   S159      1.0  0.84779  0.14352  0.05337  1.0000
  H   H937      1.0  0.64351  0.32984  0.48860  1.0000
  C   C548      1.0  0.64429  0.22246  0.47602  1.0000
  S   S160      1.0  0.60051  0.22699  0.05561  1.0000
  C   C549      1.0  0.80277  0.33968  0.31358  1.0000
  S   S161      1.0  0.75092  0.20602  0.35629  1.0000
  N   N39       1.0  0.51224  0.14760  0.38931  1.0000
  H   H938      1.0  0.50987  0.12654  0.05362  1.0000
  C   C550      1.0  0.45958  0.13625  0.47665  1.0000
  S   S162      1.0  0.44205  0.23269  0.46006  1.0000
  H   H939      1.0  0.80944  0.19456  0.45057  1.0000
  H   H940      1.0  0.41448  0.25807  0.16126  1.0000
  H   H941      1.0  0.37669  0.12156  0.07411  1.0000
  H   H942      1.0  0.80298  0.28442  0.53058  1.0000
  H   H943      1.0  0.80410  0.18805  0.52472  1.0000
  H   H944      1.0  0.67678  0.27833  0.05277  1.0000
  H   H945      1.0  0.50549  0.09831  0.45854  1.0000
  C   C551      1.0  0.80440  0.15044  0.03935  1.0000
  H   H946      1.0  0.56801  0.10287  0.52362  1.0000
  H   H947      1.0  0.54113  0.31000  0.06892  1.0000
  C   C552      1.0  0.40698  0.09404  0.17333  1.0000
  C   C553      1.0  0.81621  0.21318  0.52354  1.0000
  H   H948      1.0  0.73430  0.29532  0.53724  1.0000
  C   C554      1.0  0.56627  0.09769  0.37472  1.0000
  C   C555      1.0  0.72575  0.09672  0.30421  1.0000
  H   H949      1.0  0.63440  0.09572  0.53037  1.0000
  H   H950      1.0  0.69291  0.09709  0.31377  1.0000
  H   H951      1.0  0.38269  0.16709  0.12176  1.0000
  H   H952      1.0  0.79853  0.34248  0.17176  1.0000
  H   H953      1.0  0.49082  0.31313  0.04201  1.0000
  H   H954      1.0  0.58217  0.33710  0.05792  1.0000
  C   C556      1.0  0.56910  0.32582  0.04015  1.0000
  H   H955      1.0  0.75182  0.49187  0.93938  1.0000
  C   C557      1.0  0.73788  0.43782  0.85751  1.0000
  H   H956      1.0  0.87348  0.56787  0.79427  1.0000
  Fe  Fe79      1.0  0.73553  0.51742  0.68822  1.0000
  C   C558      1.0  0.61548  0.40837  0.79407  1.0000
  C   C559      1.0  0.47651  0.50288  0.96788  1.0000
  H   H957      1.0  0.49549  0.52740  0.60372  1.0000
  H   H958      1.0  0.80445  0.42816  0.94216  1.0000
  H   H959      1.0  0.82374  0.49205  0.91919  1.0000
  H   H960      1.0  0.53203  0.52401  0.70407  1.0000
  H   H961      1.0  0.42873  0.52317  0.63247  1.0000
  S   S163      1.0  0.52670  0.39253  0.64360  1.0000
  C   C560      1.0  0.69099  0.45253  0.60565  1.0000
  C   C561      1.0  0.72561  0.35833  0.75914  1.0000
  H   H962      1.0  0.74048  0.42689  0.63202  1.0000
  C   C562      1.0  0.47602  0.55410  0.00799  1.0000
  C   C563      1.0  0.62738  0.53821  0.81644  1.0000
  H   H963      1.0  0.75713  0.42937  0.98580  1.0000
  C   C564      1.0  0.78732  0.39746  0.88810  1.0000
  C   C565      1.0  0.84293  0.37086  0.74600  1.0000
  C   C566      1.0  0.78982  0.37968  0.01402  1.0000
  H   H964      1.0  0.47547  0.57389  0.02375  1.0000
  H   H965      1.0  0.55920  0.49532  0.59120  1.0000
  H   H966      1.0  0.65638  0.40234  0.83063  1.0000
  H   H967      1.0  0.68578  0.59263  0.74740  1.0000
  H   H968      1.0  0.49235  0.48263  0.65423  1.0000
  H   H969      1.0  0.57730  0.42300  0.75181  1.0000
  C   C567      1.0  0.60062  0.43284  0.75739  1.0000
  H   H970      1.0  0.38069  0.54938  0.94476  1.0000
  Fe  Fe80      1.0  0.56264  0.44501  0.03391  1.0000
  C   C568      1.0  0.76401  0.50498  0.95609  1.0000
  H   H971      1.0  0.41642  0.39267  0.59793  1.0000
  H   H972      1.0  0.42605  0.53842  0.72013  1.0000
  C   C569      1.0  0.52409  0.42212  0.93172  1.0000
  H   H973      1.0  0.81832  0.39091  0.88359  1.0000
  Fe  Fe81      1.0  0.80874  0.57406  0.03627  1.0000
  C   C570      1.0  0.71493  0.44589  0.63884  1.0000
  N   N40       1.0  0.71204  0.47422  0.55051  1.0000
  H   H974      1.0  0.86220  0.46220  0.99216  1.0000
  C   C571      1.0  0.48555  0.51596  0.03066  1.0000
  C   C572      1.0  0.40553  0.40096  0.56814  1.0000
  H   H975      1.0  0.46394  0.53753  0.76606  1.0000
  H   H976      1.0  0.47643  0.48323  0.95237  1.0000
  H   H977      1.0  0.81928  0.50881  0.96386  1.0000
  S   S164      1.0  0.61332  0.44477  0.96637  1.0000
  H   H978      1.0  0.50717  0.37927  0.56185  1.0000
  H   H979      1.0  0.47889  0.38660  0.74298  1.0000
  C   C573      1.0  0.47571  0.50962  0.76643  1.0000
  H   H980      1.0  0.60618  0.48839  0.69762  1.0000
  S   S165      1.0  0.80914  0.58620  0.96109  1.0000
  H   H981      1.0  0.43404  0.34641  0.69637  1.0000
  H   H982      1.0  0.64922  0.53532  0.83410  1.0000
  N   N41       1.0  0.53558  0.35039  0.97448  1.0000
  H   H983      1.0  0.54498  0.43352  0.94052  1.0000
  H   H984      1.0  0.78539  0.46855  0.56085  1.0000
  C   C574      1.0  0.46829  0.56695  0.96419  1.0000
  H   H985      1.0  0.84040  0.37219  0.78001  1.0000
  H   H986      1.0  0.38909  0.53682  0.00100  1.0000
  H   H987      1.0  0.49334  0.49893  0.79100  1.0000
  S   S166      1.0  0.81622  0.46159  0.80291  1.0000
  S   S167      1.0  0.84919  0.51772  0.66252  1.0000
  Fe  Fe82      1.0  0.87181  0.56380  0.94607  1.0000
  H   H988      1.0  0.74214  0.50201  0.99283  1.0000
  H   H989      1.0  0.84587  0.43158  0.70543  1.0000
  H   H990      1.0  0.76397  0.34926  0.95824  1.0000
  C   C575      1.0  0.45759  0.42851  0.63762  1.0000
  H   H991      1.0  0.60462  0.35627  0.57433  1.0000
  H   H992      1.0  0.80541  0.36450  0.98970  1.0000
  H   H993      1.0  0.52296  0.44373  0.89568  1.0000
  C   C576      1.0  0.44142  0.52510  0.69351  1.0000
  C   C577      1.0  0.84525  0.40450  0.70395  1.0000
  H   H994      1.0  0.56278  0.49424  0.64556  1.0000
  C   C578      1.0  0.84783  0.43927  0.99130  1.0000
  C   C579      1.0  0.68302  0.56275  0.96295  1.0000
  C   C580      1.0  0.56672  0.56266  0.76507  1.0000
  C   C581      1.0  0.46838  0.54130  0.94423  1.0000
  H   H995      1.0  0.46766  0.34848  0.95636  1.0000
  C   C582      1.0  0.77790  0.42999  0.85234  1.0000
  C   C583      1.0  0.68697  0.57067  0.91464  1.0000
  H   H996      1.0  0.62256  0.47644  0.84960  1.0000
  C   C584      1.0  0.80514  0.48907  0.95758  1.0000
  H   H997      1.0  0.42791  0.57067  0.63015  1.0000
  H   H998      1.0  0.40269  0.45675  0.63278  1.0000
  S   S168      1.0  0.76170  0.54655  0.71744  1.0000
  H   H999      1.0  0.49373  0.41922  0.96018  1.0000
  H   H1000     1.0  0.64200  0.42833  0.57371  1.0000
  H   H1001     1.0  0.64602  0.53821  0.77949  1.0000
  C   C585      1.0  0.40223  0.43432  0.70719  1.0000
  H   H1002     1.0  0.72499  0.47268  0.63558  1.0000
  Fe  Fe83      1.0  0.80920  0.56674  0.64099  1.0000
  H   H1003     1.0  0.84651  0.36633  0.62598  1.0000
  C   C586      1.0  0.75667  0.37396  0.93030  1.0000
  C   C587      1.0  0.56237  0.35893  0.99519  1.0000
  N   N42       1.0  0.80531  0.44876  0.99453  1.0000
  H   H1004     1.0  0.50864  0.48063  0.72095  1.0000
  C   C588      1.0  0.66183  0.45767  0.77084  1.0000
  Fe  Fe84      1.0  0.64105  0.40227  0.01835  1.0000
  C   C589      1.0  0.71662  0.38326  0.93727  1.0000
  S   S169      1.0  0.78204  0.53830  0.61189  1.0000
  C   C590      1.0  0.61668  0.46978  0.72706  1.0000
  C   C591      1.0  0.55037  0.51048  0.61608  1.0000
  S   S170      1.0  0.67886  0.35817  0.99453  1.0000
  H   H1005     1.0  0.68344  0.58602  0.01264  1.0000
  H   H1006     1.0  0.49057  0.58513  0.61187  1.0000
  C   C592      1.0  0.70730  0.41451  0.90002  1.0000
  H   H1007     1.0  0.73956  0.42150  0.54851  1.0000
  C   C593      1.0  0.49845  0.57234  0.64546  1.0000
  C   C594      1.0  0.53886  0.38444  0.92666  1.0000
  H   H1008     1.0  0.55491  0.57900  0.73491  1.0000
  C   C595      1.0  0.84653  0.36777  0.65893  1.0000
  S   S171      1.0  0.76751  0.46328  0.71490  1.0000
  H   H1009     1.0  0.85206  0.54901  0.73631  1.0000
  H   H1010     1.0  0.73044  0.46268  0.82970  1.0000
  S   S172      1.0  0.86936  0.54699  0.02365  1.0000
  H   H1011     1.0  0.54918  0.55288  0.93636  1.0000
  S   S173      1.0  0.84741  0.44531  0.60883  1.0000
  H   H1012     1.0  0.46200  0.55104  0.91075  1.0000
  Fe  Fe85      1.0  0.79882  0.49457  0.73641  1.0000
  H   H1013     1.0  0.74060  0.37433  0.76974  1.0000
  C   C596      1.0  0.38062  0.43224  0.55941  1.0000
  C   C597      1.0  0.57696  0.56274  0.90336  1.0000
  C   C598      1.0  0.57028  0.59216  0.01516  1.0000
  H   H1014     1.0  0.76745  0.53598  0.93241  1.0000
  C   C599      1.0  0.41911  0.44125  0.65692  1.0000
  H   H1015     1.0  0.77637  0.36921  0.55558  1.0000
  C   C600      1.0  0.60212  0.50081  0.84765  1.0000
  H   H1016     1.0  0.54705  0.54950  0.86554  1.0000
  Fe  Fe86      1.0  0.64315  0.48810  0.97119  1.0000
  H   H1017     1.0  0.60152  0.58261  0.00894  1.0000
  S   S174      1.0  0.67939  0.53451  0.90062  1.0000
  C   C601      1.0  0.53721  0.37240  0.53989  1.0000
  H   H1018     1.0  0.54064  0.55043  0.79993  1.0000
  H   H1019     1.0  0.69641  0.52833  0.55611  1.0000
  C   C602      1.0  0.42103  0.54015  0.65490  1.0000
  S   S175      1.0  0.67229  0.52525  0.69089  1.0000
  H   H1020     1.0  0.58524  0.49691  0.88656  1.0000
  Fe  Fe87      1.0  0.81697  0.48735  0.64097  1.0000
  H   H1021     1.0  0.66283  0.46689  0.61954  1.0000
  C   C603      1.0  0.42378  0.41458  0.73826  1.0000
  C   C604      1.0  0.46227  0.40173  0.71899  1.0000
  S   S176      1.0  0.67315  0.44574  0.02050  1.0000
  H   H1022     1.0  0.47061  0.43392  0.59861  1.0000
  H   H1023     1.0  0.45002  0.48942  0.78389  1.0000
  H   H1024     1.0  0.58100  0.49827  0.83197  1.0000
  N   N43       1.0  0.48631  0.53077  0.67317  1.0000
  C   C605      1.0  0.68558  0.59226  0.97555  1.0000
  C   C606      1.0  0.50260  0.51112  0.71451  1.0000
  S   S177      1.0  0.38522  0.57628  0.79359  1.0000
  H   H1025     1.0  0.56479  0.53915  0.59314  1.0000
  H   H1026     1.0  0.44198  0.37372  0.99500  1.0000
  C   C607      1.0  0.84685  0.40305  0.66038  1.0000
  N   N44       1.0  0.60512  0.57504  0.81078  1.0000
  H   H1027     1.0  0.45542  0.34556  0.63699  1.0000
  H   H1028     1.0  0.43343  0.49424  0.71541  1.0000
  C   C608      1.0  0.48597  0.49037  0.01047  1.0000
  C   C609      1.0  0.78882  0.42280  0.98205  1.0000
  C   C610      1.0  0.64808  0.48165  0.73296  1.0000
  C   C611      1.0  0.50418  0.51232  0.63683  1.0000
  H   H1029     1.0  0.55634  0.57660  0.00285  1.0000
  H   H1030     1.0  0.57065  0.38960  0.90071  1.0000
  H   H1031     1.0  0.38805  0.53703  0.67488  1.0000
  H   H1032     1.0  0.68544  0.46723  0.77619  1.0000
  H   H1033     1.0  0.73853  0.36955  0.71794  1.0000
  H   H1034     1.0  0.48696  0.36163  0.03253  1.0000
  H   H1035     1.0  0.49111  0.59019  0.70475  1.0000
  H   H1036     1.0  0.69325  0.36452  0.76966  1.0000
  H   H1037     1.0  0.79726  0.53140  0.81406  1.0000
  H   H1038     1.0  0.55021  0.38247  0.00728  1.0000
  C   C612      1.0  0.62998  0.35266  0.54326  1.0000
  S   S178      1.0  0.61317  0.37711  0.69171  1.0000
  H   H1039     1.0  0.52300  0.37992  0.90613  1.0000
  H   H1040     1.0  0.84853  0.41364  0.02415  1.0000
  H   H1041     1.0  0.59270  0.36896  0.96611  1.0000
  S   S179      1.0  0.50009  0.44323  0.03707  1.0000
  C   C613      1.0  0.41562  0.38028  0.53895  1.0000
  H   H1042     1.0  0.55887  0.39015  0.53907  1.0000
  H   H1043     1.0  0.53147  0.57608  0.63166  1.0000
  H   H1044     1.0  0.81381  0.55118  0.84565  1.0000
  H   H1045     1.0  0.58495  0.53969  0.75556  1.0000
  C   C614      1.0  0.56846  0.57155  0.85616  1.0000
  H   H1046     1.0  0.76320  0.55352  0.85085  1.0000
  C   C615      1.0  0.79444  0.55555  0.82458  1.0000
  H   H1047     1.0  0.59893  0.53999  0.90945  1.0000
  H   H1048     1.0  0.74388  0.51333  0.55788  1.0000
  H   H1049     1.0  0.69512  0.43089  0.67825  1.0000
  H   H1050     1.0  0.67727  0.53397  0.99065  1.0000
  H   H1051     1.0  0.68214  0.42352  0.61394  1.0000
  H   H1052     1.0  0.67657  0.42097  0.90383  1.0000
  H   H1053     1.0  0.41073  0.40937  0.77718  1.0000
  C   C616      1.0  0.64505  0.42116  0.80203  1.0000
  C   C617      1.0  0.47911  0.40866  0.66865  1.0000
  H   H1054     1.0  0.80125  0.42871  0.54603  1.0000
  S   S180      1.0  0.58953  0.49319  0.03383  1.0000
  Fe  Fe88      1.0  0.55715  0.35637  0.69636  1.0000
  S   S181      1.0  0.59979  0.36087  0.82705  1.0000
  H   H1055     1.0  0.86823  0.40504  0.94694  1.0000
  C   C618      1.0  0.59286  0.58958  0.76632  1.0000
  H   H1056     1.0  0.75873  0.36811  0.03581  1.0000
  H   H1057     1.0  0.85643  0.52401  0.53958  1.0000
  H   H1058     1.0  0.58765  0.58859  0.90203  1.0000
  C   C619      1.0  0.72333  0.51368  0.53981  1.0000
  C   C620      1.0  0.45894  0.34776  0.99377  1.0000
  H   H1059     1.0  0.79470  0.58756  0.75120  1.0000
  C   C621      1.0  0.87599  0.43207  0.94555  1.0000
  C   C622      1.0  0.87526  0.58710  0.75615  1.0000
  S   S182      1.0  0.75512  0.55633  0.10823  1.0000
  S   S183      1.0  0.58793  0.39892  0.08668  1.0000
  H   H1060     1.0  0.59385  0.44281  0.31350  1.0000
  N   N45       1.0  0.51150  0.36162  0.26772  1.0000
  C   C623      1.0  0.49826  0.41344  0.19034  1.0000
  H   H1061     1.0  0.55628  0.53753  0.18168  1.0000
  C   C624      1.0  0.71226  0.52327  0.08024  1.0000
  C   C625      1.0  0.69135  0.40269  0.23477  1.0000
  H   H1062     1.0  0.72664  0.38382  0.17609  1.0000
  H   H1063     1.0  0.79310  0.35456  0.37449  1.0000
  H   H1064     1.0  0.42355  0.55778  0.26219  1.0000
  H   H1065     1.0  0.82435  0.55838  0.40847  1.0000
  H   H1066     1.0  0.60139  0.39283  0.33941  1.0000
  C   C626      1.0  0.79246  0.46929  0.06557  1.0000
  C   C627      1.0  0.74727  0.45239  0.53032  1.0000
  S   S184      1.0  0.61479  0.45308  0.15177  1.0000
  C   C628      1.0  0.76323  0.38269  0.46431  1.0000
  C   C629      1.0  0.84533  0.38348  0.31111  1.0000
  H   H1067     1.0  0.40943  0.44548  0.08055  1.0000
  H   H1068     1.0  0.64733  0.44877  0.51007  1.0000
  H   H1069     1.0  0.75618  0.40472  0.19280  1.0000
  H   H1070     1.0  0.80821  0.55970  0.28118  1.0000
  C   C630      1.0  0.71371  0.53195  0.11749  1.0000
  C   C631      1.0  0.81236  0.54104  0.26160  1.0000
  H   H1071     1.0  0.80909  0.47451  0.49696  1.0000
  H   H1072     1.0  0.68953  0.43227  0.20831  1.0000
  H   H1073     1.0  0.74514  0.47621  0.36333  1.0000
  H   H1074     1.0  0.73882  0.47214  0.26018  1.0000
  C   C632      1.0  0.67643  0.36076  0.32229  1.0000
  H   H1075     1.0  0.78060  0.41440  0.07386  1.0000
  C   C633      1.0  0.40203  0.53984  0.29930  1.0000
  C   C634      1.0  0.82402  0.55977  0.15412  1.0000
  C   C635      1.0  0.72674  0.41193  0.28218  1.0000
  H   H1076     1.0  0.68147  0.49136  0.06274  1.0000
  H   H1077     1.0  0.59835  0.35529  0.22548  1.0000
  S   S185      1.0  0.63703  0.58207  0.46607  1.0000
  C   C636      1.0  0.52430  0.38085  0.21199  1.0000
  H   H1078     1.0  0.50949  0.54897  0.21956  1.0000
  H   H1079     1.0  0.85155  0.45060  0.17775  1.0000
  C   C637      1.0  0.85259  0.55126  0.21687  1.0000
  C   C638      1.0  0.74423  0.45178  0.24262  1.0000
  H   H1080     1.0  0.64662  0.38020  0.52036  1.0000
  C   C639      1.0  0.72973  0.38598  0.20801  1.0000
  H   H1081     1.0  0.50825  0.44109  0.18514  1.0000
  H   H1082     1.0  0.47088  0.43162  0.26761  1.0000
  H   H1083     1.0  0.87590  0.53687  0.23244  1.0000
  H   H1084     1.0  0.79401  0.54603  0.17926  1.0000
  H   H1085     1.0  0.40212  0.55121  0.32557  1.0000
  H   H1086     1.0  0.81927  0.48946  0.22485  1.0000
  H   H1087     1.0  0.83659  0.53595  0.49231  1.0000
  H   H1088     1.0  0.54272  0.40739  0.26294  1.0000
  H   H1089     1.0  0.62662  0.48757  0.20941  1.0000
  N   N46       1.0  0.68781  0.40106  0.28413  1.0000
  H   H1090     1.0  0.64914  0.35066  0.32274  1.0000
  C   C640      1.0  0.65112  0.48574  0.13748  1.0000
  C   C641      1.0  0.85935  0.37130  0.23851  1.0000
  H   H1091     1.0  0.38094  0.41692  0.17784  1.0000
  C   C642      1.0  0.37743  0.42351  0.49062  1.0000
  H   H1092     1.0  0.46807  0.58282  0.32515  1.0000
  H   H1093     1.0  0.49111  0.58909  0.52248  1.0000
  H   H1094     1.0  0.55599  0.55937  0.49330  1.0000
  H   H1095     1.0  0.39277  0.58829  0.40092  1.0000
  H   H1096     1.0  0.69735  0.35706  0.38029  1.0000
  C   C643      1.0  0.40188  0.39170  0.49987  1.0000
  H   H1097     1.0  0.44664  0.36755  0.28823  1.0000
  H   H1098     1.0  0.75389  0.46055  0.49027  1.0000
  C   C644      1.0  0.72165  0.42044  0.41791  1.0000
  C   C645      1.0  0.82691  0.35187  0.14141  1.0000
  H   H1099     1.0  0.79246  0.49997  0.04214  1.0000
  S   S186      1.0  0.60237  0.50612  0.43439  1.0000
  H   H1100     1.0  0.73214  0.46415  0.21255  1.0000
  H   H1101     1.0  0.65596  0.43105  0.33101  1.0000
  S   S187      1.0  0.53291  0.54542  0.35611  1.0000
  H   H1102     1.0  0.82918  0.40444  0.14775  1.0000
  H   H1103     1.0  0.39812  0.39107  0.07062  1.0000
  H   H1104     1.0  0.72344  0.41161  0.31835  1.0000
  C   C646      1.0  0.84975  0.57583  0.37885  1.0000
  C   C647      1.0  0.40682  0.55256  0.16119  1.0000
  C   C648      1.0  0.68240  0.47890  0.52597  1.0000
  H   H1105     1.0  0.53775  0.38187  0.50191  1.0000
  H   H1106     1.0  0.66562  0.38742  0.23907  1.0000
  C   C649      1.0  0.79099  0.41282  0.43926  1.0000
  C   C650      1.0  0.81167  0.35903  0.33663  1.0000
  H   H1107     1.0  0.68268  0.52723  0.19244  1.0000
  H   H1108     1.0  0.71988  0.55293  0.46752  1.0000
  C   C651      1.0  0.38714  0.45834  0.10443  1.0000
  H   H1109     1.0  0.41013  0.37606  0.47686  1.0000
  C   C652      1.0  0.52738  0.55141  0.18121  1.0000
  N   N47       1.0  0.85569  0.54073  0.17568  1.0000
  H   H1110     1.0  0.58568  0.35545  0.28610  1.0000
  H   H1111     1.0  0.52804  0.35997  0.19551  1.0000
  C   C653      1.0  0.72917  0.38607  0.45266  1.0000
  Fe  Fe89      1.0  0.65902  0.48832  0.38731  1.0000
  H   H1112     1.0  0.77105  0.46441  0.10364  1.0000
  H   H1113     1.0  0.61157  0.41855  0.27322  1.0000
  S   S188      1.0  0.67550  0.42693  0.41045  1.0000
  C   C654      1.0  0.53212  0.58522  0.30292  1.0000
  H   H1114     1.0  0.50124  0.41542  0.15350  1.0000
  H   H1115     1.0  0.40388  0.47649  0.11029  1.0000
  C   C655      1.0  0.65070  0.49706  0.17356  1.0000
  H   H1116     1.0  0.48903  0.43520  0.30986  1.0000
  H   H1117     1.0  0.66434  0.45786  0.26794  1.0000
  H   H1118     1.0  0.80542  0.47024  0.38385  1.0000
  H   H1119     1.0  0.83017  0.55620  0.11947  1.0000
  H   H1120     1.0  0.51061  0.53552  0.17240  1.0000
  C   C656      1.0  0.66940  0.35359  0.37605  1.0000
  C   C657      1.0  0.61353  0.41964  0.30629  1.0000
  H   H1121     1.0  0.41357  0.51053  0.30943  1.0000
  H   H1122     1.0  0.38355  0.35593  0.18171  1.0000
  H   H1123     1.0  0.81149  0.51090  0.28815  1.0000
  H   H1124     1.0  0.70821  0.36241  0.47184  1.0000
  H   H1125     1.0  0.80516  0.37218  0.04049  1.0000
  H   H1126     1.0  0.60420  0.55783  0.10358  1.0000
  H   H1127     1.0  0.77690  0.44957  0.22440  1.0000
  H   H1128     1.0  0.76423  0.52467  0.46267  1.0000
  C   C658      1.0  0.68227  0.51967  0.16383  1.0000
  H   H1129     1.0  0.82241  0.46200  0.06803  1.0000
  C   C659      1.0  0.65658  0.42856  0.29752  1.0000
  H   H1130     1.0  0.51427  0.58999  0.07488  1.0000
  H   H1131     1.0  0.41968  0.53369  0.18814  1.0000
  S   S189      1.0  0.64674  0.51916  0.31704  1.0000
  H   H1132     1.0  0.74779  0.44875  0.05186  1.0000
  C   C660      1.0  0.78458  0.44652  0.40252  1.0000
  C   C661      1.0  0.84424  0.38678  0.12792  1.0000
  H   H1133     1.0  0.83383  0.49290  0.13977  1.0000
  C   C662      1.0  0.77991  0.44415  0.04685  1.0000
  C   C663      1.0  0.68144  0.49958  0.09062  1.0000
  C   C664      1.0  0.74989  0.45030  0.39184  1.0000
  H   H1134     1.0  0.86994  0.48324  0.21738  1.0000
  Fe  Fe90      1.0  0.61759  0.44727  0.08347  1.0000
  H   H1135     1.0  0.61040  0.36814  0.48227  1.0000
  C   C665      1.0  0.60225  0.58928  0.09147  1.0000
  Fe  Fe91      1.0  0.63877  0.55614  0.41502  1.0000
  H   H1136     1.0  0.73524  0.53441  0.04368  1.0000
  H   H1137     1.0  0.52012  0.37245  0.32435  1.0000
  H   H1138     1.0  0.86011  0.58169  0.20300  1.0000
  Fe  Fe92      1.0  0.59287  0.54076  0.36268  1.0000
  H   H1139     1.0  0.49247  0.50636  0.06381  1.0000
  H   H1140     1.0  0.43168  0.38323  0.10313  1.0000
  S   S190      1.0  0.62517  0.59214  0.34670  1.0000
  S   S191      1.0  0.69644  0.53576  0.37372  1.0000
  C   C666      1.0  0.86968  0.38896  0.26235  1.0000
  S   S192      1.0  0.83294  0.40860  0.45503  1.0000
  C   C667      1.0  0.51558  0.38862  0.28837  1.0000
  C   C668      1.0  0.42353  0.58897  0.12852  1.0000
  C   C669      1.0  0.74293  0.53984  0.48423  1.0000
  C   C670      1.0  0.85588  0.48196  0.15837  1.0000
  H   H1141     1.0  0.54660  0.55177  0.09055  1.0000
  C   C671      1.0  0.82600  0.34658  0.26415  1.0000
  H   H1142     1.0  0.45392  0.39811  0.33219  1.0000
  H   H1143     1.0  0.74992  0.39039  0.27722  1.0000
  H   H1144     1.0  0.57883  0.35902  0.44180  1.0000
  H   H1145     1.0  0.85253  0.39769  0.32948  1.0000
  C   C672      1.0  0.86472  0.53007  0.50001  1.0000
  C   C673      1.0  0.54610  0.58324  0.07054  1.0000
  H   H1146     1.0  0.75985  0.56337  0.48002  1.0000
  H   H1147     1.0  0.64607  0.37189  0.38980  1.0000
  C   C674      1.0  0.84989  0.49832  0.19660  1.0000
  Fe  Fe93      1.0  0.68004  0.56793  0.30672  1.0000
  H   H1148     1.0  0.69663  0.49398  0.48487  1.0000
  C   C675      1.0  0.40500  0.37194  0.10382  1.0000
  H   H1149     1.0  0.55485  0.39355  0.19526  1.0000
  H   H1150     1.0  0.78602  0.54585  0.25069  1.0000
  C   C676      1.0  0.48006  0.41471  0.29967  1.0000
  H   H1151     1.0  0.46588  0.40888  0.21249  1.0000
  C   C677      1.0  0.66397  0.44187  0.53528  1.0000
  H   H1152     1.0  0.87497  0.58988  0.47062  1.0000
  H   H1153     1.0  0.76781  0.35685  0.49305  1.0000
  H   H1154     1.0  0.60391  0.58377  0.16232  1.0000
  H   H1155     1.0  0.73562  0.35720  0.23266  1.0000
  H   H1156     1.0  0.68708  0.42116  0.52719  1.0000
  C   C678      1.0  0.78737  0.45701  0.53413  1.0000
  C   C679      1.0  0.55551  0.58667  0.49481  1.0000
  C   C680      1.0  0.46942  0.34524  0.29247  1.0000
  H   H1157     1.0  0.41278  0.34454  0.09980  1.0000
  H   H1158     1.0  0.65709  0.49704  0.53754  1.0000
  C   C681      1.0  0.86280  0.65145  0.57674  1.0000
  H   H1159     1.0  0.51457  0.71789  0.91773  1.0000
  S   S193      1.0  0.72277  0.74344  0.82094  1.0000
  H   H1160     1.0  0.43778  0.69855  0.60338  1.0000
  H   H1161     1.0  0.73077  0.59367  0.64606  1.0000
  H   H1162     1.0  0.81479  0.75274  0.02690  1.0000
  H   H1163     1.0  0.47463  0.73134  0.86654  1.0000
  S   S194      1.0  0.47211  0.65724  0.53947  1.0000
  H   H1164     1.0  0.64485  0.75145  0.01139  1.0000
  S   S195      1.0  0.69218  0.73364  0.72118  1.0000
  Fe  Fe94      1.0  0.83806  0.64202  0.93635  1.0000
  C   C682      1.0  0.86384  0.76555  0.81935  1.0000
  C   C683      1.0  0.69496  0.60781  0.87829  1.0000
  H   H1165     1.0  0.62486  0.81345  0.96073  1.0000
  C   C684      1.0  0.68850  0.62990  0.94081  1.0000
  S   S196      1.0  0.65754  0.80290  0.78456  1.0000
  Fe  Fe95      1.0  0.49203  0.66797  0.75058  1.0000
  H   H1166     1.0  0.62469  0.70642  0.55585  1.0000
  S   S197      1.0  0.67844  0.66718  0.95997  1.0000
  C   C685      1.0  0.58344  0.69666  0.74589  1.0000
  H   H1167     1.0  0.72189  0.77052  0.93962  1.0000
  S   S198      1.0  0.81694  0.62974  0.59572  1.0000
  Fe  Fe96      1.0  0.45098  0.63358  0.86243  1.0000
  C   C686      1.0  0.83524  0.61832  0.83572  1.0000
  H   H1168     1.0  0.41978  0.82483  0.99064  1.0000
  C   C687      1.0  0.38493  0.77987  0.70660  1.0000
  C   C688      1.0  0.66968  0.61723  0.75449  1.0000
  S   S199      1.0  0.82479  0.69719  0.88206  1.0000
  C   C689      1.0  0.61385  0.74006  0.03223  1.0000
  C   C690      1.0  0.59639  0.82173  0.98400  1.0000
  H   H1169     1.0  0.55575  0.68543  0.77687  1.0000
  Fe  Fe97      1.0  0.61191  0.77306  0.86008  1.0000
  H   H1170     1.0  0.80465  0.60569  0.85859  1.0000
  H   H1171     1.0  0.49225  0.79407  0.56518  1.0000
  C   C691      1.0  0.52160  0.74258  0.59422  1.0000
  C   C692      1.0  0.48043  0.59778  0.67399  1.0000
  H   H1172     1.0  0.83799  0.63964  0.84860  1.0000
  H   H1173     1.0  0.39140  0.75248  0.70476  1.0000
  H   H1174     1.0  0.57673  0.61676  0.76268  1.0000
  H   H1175     1.0  0.72460  0.64240  0.63476  1.0000
  C   C693      1.0  0.41639  0.80627  0.85109  1.0000
  S   S200      1.0  0.65137  0.77413  0.89848  1.0000
  C   C694      1.0  0.48159  0.71379  0.93638  1.0000
  C   C695      1.0  0.70348  0.69469  0.55755  1.0000
  H   H1176     1.0  0.44729  0.59770  0.68765  1.0000
  H   H1177     1.0  0.75113  0.68788  0.97296  1.0000
  S   S201      1.0  0.55238  0.68113  0.68940  1.0000
  H   H1178     1.0  0.37984  0.61446  0.65859  1.0000
  H   H1179     1.0  0.41067  0.66370  0.66234  1.0000
  H   H1180     1.0  0.47305  0.78214  0.71301  1.0000
  H   H1181     1.0  0.69916  0.61396  0.84048  1.0000
  H   H1182     1.0  0.37775  0.72078  0.58285  1.0000
  H   H1183     1.0  0.47329  0.76850  0.88493  1.0000
  C   C696      1.0  0.71291  0.61862  0.63288  1.0000
  C   C697      1.0  0.50114  0.77967  0.68357  1.0000
  H   H1184     1.0  0.82296  0.69519  0.70043  1.0000
  H   H1185     1.0  0.57290  0.81634  0.93438  1.0000
  H   H1186     1.0  0.47189  0.80853  0.63111  1.0000
  C   C698      1.0  0.45268  0.82300  0.98012  1.0000
  S   S202      1.0  0.83439  0.63141  0.01198  1.0000
  H   H1187     1.0  0.67161  0.81114  0.65402  1.0000
  H   H1188     1.0  0.41902  0.75372  0.84365  1.0000
  H   H1189     1.0  0.65663  0.80047  0.01854  1.0000
  H   H1190     1.0  0.62878  0.71461  0.62383  1.0000
  C   C699      1.0  0.84118  0.63880  0.78044  1.0000
  H   H1191     1.0  0.40117  0.82261  0.82443  1.0000
  H   H1192     1.0  0.84574  0.62247  0.68207  1.0000
  Fe  Fe98      1.0  0.41753  0.61843  0.79795  1.0000
  H   H1193     1.0  0.58938  0.76789  0.79232  1.0000
  C   C700      1.0  0.72931  0.74887  0.03057  1.0000
  H   H1194     1.0  0.60192  0.73930  0.00561  1.0000
  H   H1195     1.0  0.41788  0.68764  0.90580  1.0000
  H   H1196     1.0  0.78606  0.66187  0.71268  1.0000
  H   H1197     1.0  0.81081  0.70808  0.96990  1.0000
  H   H1198     1.0  0.41978  0.77537  0.95059  1.0000
  H   H1199     1.0  0.40740  0.81847  0.87899  1.0000
  S   S203      1.0  0.46948  0.69328  0.80652  1.0000
  C   C701      1.0  0.63246  0.60476  0.80285  1.0000
  H   H1200     1.0  0.82224  0.68487  0.65191  1.0000
  S   S204      1.0  0.47703  0.60788  0.80687  1.0000
  N   N48       1.0  0.69425  0.65882  0.55623  1.0000
  H   H1201     1.0  0.85350  0.73212  0.99107  1.0000
  H   H1202     1.0  0.84258  0.70794  0.54262  1.0000
  H   H1203     1.0  0.61064  0.70619  0.78903  1.0000
  H   H1204     1.0  0.75026  0.62990  0.55664  1.0000
  C   C702      1.0  0.79388  0.84229  0.83576  1.0000
  H   H1205     1.0  0.61570  0.63086  0.80423  1.0000
  S   S205      1.0  0.43431  0.67666  0.73708  1.0000
  C   C703      1.0  0.86157  0.73143  0.86061  1.0000
  H   H1206     1.0  0.72572  0.81875  0.68557  1.0000
  S   S206      1.0  0.46003  0.61531  0.93415  1.0000
  C   C704      1.0  0.82168  0.72810  0.01662  1.0000
  C   C705      1.0  0.57285  0.79461  0.59701  1.0000
  H   H1207     1.0  0.52629  0.78441  0.69212  1.0000
  H   H1208     1.0  0.40276  0.71411  0.64834  1.0000
  H   H1209     1.0  0.69079  0.63326  0.75742  1.0000
  C   C706      1.0  0.57293  0.79308  0.77910  1.0000
  H   H1210     1.0  0.70393  0.70492  0.00102  1.0000
  H   H1211     1.0  0.47594  0.68306  0.94926  1.0000
  C   C707      1.0  0.58894  0.69822  0.69940  1.0000
  H   H1212     1.0  0.54875  0.78465  0.99643  1.0000
  C   C708      1.0  0.79609  0.72771  0.98817  1.0000
  H   H1213     1.0  0.68160  0.61130  0.65895  1.0000
  C   C709      1.0  0.46180  0.73926  0.89885  1.0000
  H   H1214     1.0  0.84231  0.77099  0.80163  1.0000
  H   H1215     1.0  0.61935  0.59619  0.73135  1.0000
  H   H1216     1.0  0.80047  0.75665  0.95755  1.0000
  H   H1217     1.0  0.56851  0.76504  0.62573  1.0000
  H   H1218     1.0  0.57063  0.62276  0.99073  1.0000
  S   S207      1.0  0.39016  0.63858  0.85883  1.0000
  C   C710      1.0  0.39063  0.81318  0.66290  1.0000
  H   H1219     1.0  0.50192  0.83768  0.63511  1.0000
  S   S208      1.0  0.62900  0.71501  0.86253  1.0000
  C   C711      1.0  0.40805  0.69195  0.63379  1.0000
  H   H1220     1.0  0.68409  0.73495  0.63594  1.0000
  S   S209      1.0  0.54944  0.79354  0.87116  1.0000
  C   C712      1.0  0.65609  0.72414  0.66673  1.0000
  Fe  Fe99      1.0  0.41024  0.69643  0.79868  1.0000
  H   H1221     1.0  0.69262  0.69193  0.59628  1.0000
  C   C713      1.0  0.73637  0.71219  0.98252  1.0000
  H   H1222     1.0  0.59799  0.79851  0.70338  1.0000
  H   H1223     1.0  0.55163  0.73142  0.59350  1.0000
  H   H1224     1.0  0.49966  0.73296  0.63266  1.0000
  C   C714      1.0  0.40074  0.75148  0.95947  1.0000
  N   N49       1.0  0.84063  0.61396  0.75540  1.0000
  C   C715      1.0  0.71769  0.62610  0.57981  1.0000
  Fe  Fe100     1.0  0.69863  0.79939  0.82256  1.0000
  H   H1225     1.0  0.66155  0.63719  0.72236  1.0000
  H   H1226     1.0  0.44888  0.81116  0.82913  1.0000
  C   C716      1.0  0.65123  0.72169  0.71333  1.0000
  Fe  Fe101     1.0  0.67730  0.74480  0.78893  1.0000
  H   H1227     1.0  0.69856  0.66638  0.86408  1.0000
  H   H1228     1.0  0.64297  0.62009  0.59246  1.0000
  H   H1229     1.0  0.51204  0.72944  0.57537  1.0000
  H   H1230     1.0  0.46194  0.82751  0.00650  1.0000
  H   H1231     1.0  0.50198  0.75031  0.68660  1.0000
  C   C717      1.0  0.52268  0.78607  0.56623  1.0000
  C   C718      1.0  0.86709  0.69110  0.55182  1.0000
  H   H1232     1.0  0.47266  0.72160  0.96834  1.0000
  H   H1233     1.0  0.73803  0.77663  0.99818  1.0000
  H   H1234     1.0  0.46036  0.79318  0.98482  1.0000
  H   H1235     1.0  0.77195  0.75669  0.90947  1.0000
  H   H1236     1.0  0.41251  0.67838  0.96717  1.0000
  C   C719      1.0  0.61043  0.79500  0.55227  1.0000
  C   C720      1.0  0.69486  0.63755  0.89166  1.0000
  C   C721      1.0  0.80047  0.59388  0.77881  1.0000
  C   C722      1.0  0.56162  0.81382  0.97317  1.0000
  H   H1237     1.0  0.76146  0.83392  0.69948  1.0000
  H   H1238     1.0  0.76613  0.68606  0.55382  1.0000
  H   H1239     1.0  0.59005  0.66739  0.58654  1.0000
  H   H1240     1.0  0.38622  0.67238  0.59394  1.0000
  H   H1241     1.0  0.46876  0.83984  0.90186  1.0000
  H   H1242     1.0  0.58890  0.65404  0.02733  1.0000
  Fe  Fe102     1.0  0.67259  0.71809  0.89472  1.0000
  C   C723      1.0  0.52516  0.84036  0.79490  1.0000
  C   C724      1.0  0.57785  0.81045  0.72872  1.0000
  C   C725      1.0  0.50160  0.81005  0.63264  1.0000
  N   N50       1.0  0.53512  0.80907  0.58644  1.0000
  H   H1243     1.0  0.58058  0.81151  0.61301  1.0000
  H   H1244     1.0  0.51864  0.65438  0.02825  1.0000
  C   C726      1.0  0.54792  0.80908  0.81175  1.0000
  H   H1245     1.0  0.55128  0.59843  0.84906  1.0000
  H   H1246     1.0  0.63481  0.77993  0.56553  1.0000
  C   C727      1.0  0.74058  0.74684  0.93321  1.0000
  N   N51       1.0  0.41654  0.73834  0.91786  1.0000
  H   H1247     1.0  0.81686  0.65990  0.77904  1.0000
  H   H1248     1.0  0.72962  0.73829  0.91125  1.0000
  C   C728      1.0  0.61461  0.70848  0.75281  1.0000
  H   H1249     1.0  0.40338  0.72854  0.99392  1.0000
  C   C729      1.0  0.40485  0.76369  0.87404  1.0000
  C   C730      1.0  0.84755  0.63942  0.70162  1.0000
  C   C731      1.0  0.62142  0.67682  0.56132  1.0000
  C   C732      1.0  0.40320  0.69789  0.93581  1.0000
  C   C733      1.0  0.62501  0.71250  0.65988  1.0000
  H   H1250     1.0  0.64110  0.64936  0.62251  1.0000
  H   H1251     1.0  0.77586  0.61282  0.78957  1.0000
  H   H1252     1.0  0.40208  0.81153  0.62720  1.0000
  C   C734      1.0  0.81770  0.67198  0.69198  1.0000
  N   N52       1.0  0.75206  0.71741  0.01667  1.0000
  H   H1253     1.0  0.49054  0.62768  0.64819  1.0000
  C   C735      1.0  0.65012  0.64946  0.58505  1.0000
  H   H1254     1.0  0.71651  0.83727  0.61051  1.0000
  H   H1255     1.0  0.53102  0.69529  0.03162  1.0000
  H   H1256     1.0  0.70859  0.59902  0.58233  1.0000
  H   H1257     1.0  0.53773  0.83467  0.97771  1.0000
  C   C736      1.0  0.80598  0.83935  0.87373  1.0000
  H   H1258     1.0  0.64413  0.59443  0.83338  1.0000
  C   C737      1.0  0.68376  0.83994  0.62573  1.0000
  H   H1259     1.0  0.83697  0.83420  0.86985  1.0000
  H   H1260     1.0  0.81579  0.84043  0.80233  1.0000
  S   S210      1.0  0.79198  0.83905  0.96483  1.0000
  C   C738      1.0  0.77780  0.84194  0.91690  1.0000
  H   H1261     1.0  0.85829  0.59696  0.84307  1.0000
  H   H1262     1.0  0.68734  0.71909  0.53860  1.0000
  H   H1263     1.0  0.86982  0.65559  0.76076  1.0000
  H   H1264     1.0  0.61388  0.76399  0.25878  1.0000
  C   C739      1.0  0.59054  0.64000  0.48363  1.0000
  H   H1265     1.0  0.50108  0.74513  0.24461  1.0000
  Fe  Fe103     1.0  0.46850  0.71919  0.49321  1.0000
  C   C740      1.0  0.62945  0.70914  0.22166  1.0000
  C   C741      1.0  0.73546  0.64636  0.23150  1.0000
  H   H1266     1.0  0.79574  0.61321  0.12483  1.0000
  H   H1267     1.0  0.66999  0.71916  0.27581  1.0000
  H   H1268     1.0  0.59438  0.66399  0.28859  1.0000
  C   C742      1.0  0.51571  0.76847  0.24239  1.0000
  Fe  Fe104     1.0  0.37788  0.67953  0.21492  1.0000
  C   C743      1.0  0.51962  0.81085  0.27796  1.0000
  H   H1269     1.0  0.85429  0.81785  0.17651  1.0000
  H   H1270     1.0  0.74399  0.61892  0.30148  1.0000
  H   H1271     1.0  0.86568  0.64910  0.15828  1.0000
  H   H1272     1.0  0.70426  0.74770  0.10547  1.0000
  H   H1273     1.0  0.62961  0.79879  0.07903  1.0000
  C   C744      1.0  0.56981  0.81547  0.19885  1.0000
  C   C745      1.0  0.52563  0.66405  0.05223  1.0000
  C   C746      1.0  0.58567  0.76234  0.06189  1.0000
  H   H1274     1.0  0.57850  0.69139  0.39049  1.0000
  C   C747      1.0  0.44497  0.65758  0.36069  1.0000
  C   C748      1.0  0.41145  0.83414  0.24277  1.0000
  Fe  Fe105     1.0  0.50135  0.80103  0.43478  1.0000
  C   C749      1.0  0.53433  0.67820  0.37021  1.0000
  S   S211      1.0  0.51207  0.75018  0.41640  1.0000
  H   H1275     1.0  0.52164  0.70628  0.35423  1.0000
  S   S212      1.0  0.46194  0.76846  0.51370  1.0000
  H   H1276     1.0  0.55341  0.68445  0.50084  1.0000
  Fe  Fe106     1.0  0.40768  0.75692  0.13108  1.0000
  H   H1277     1.0  0.64683  0.76368  0.31350  1.0000
  H   H1278     1.0  0.39762  0.62078  0.45476  1.0000
  H   H1279     1.0  0.61829  0.65436  0.47214  1.0000
  H   H1280     1.0  0.75575  0.73438  0.08815  1.0000
  C   C750      1.0  0.56666  0.63711  0.22468  1.0000
  H   H1281     1.0  0.64180  0.73806  0.20727  1.0000
  H   H1282     1.0  0.46611  0.64068  0.25163  1.0000
  C   C751      1.0  0.55387  0.82863  0.23651  1.0000
  H   H1283     1.0  0.53084  0.65949  0.35381  1.0000
  S   S213      1.0  0.52918  0.69023  0.16640  1.0000
  H   H1284     1.0  0.50213  0.60411  0.14639  1.0000
  S   S214      1.0  0.45739  0.75912  0.33201  1.0000
  H   H1285     1.0  0.84446  0.65932  0.25528  1.0000
  Fe  Fe107     1.0  0.46792  0.69823  0.16283  1.0000
  H   H1286     1.0  0.80998  0.60933  0.17366  1.0000
  H   H1287     1.0  0.42255  0.83069  0.32468  1.0000
  H   H1288     1.0  0.58219  0.76740  0.43341  1.0000
  H   H1289     1.0  0.59609  0.59450  0.27043  1.0000
  H   H1290     1.0  0.82041  0.70104  0.04892  1.0000
  H   H1291     1.0  0.61695  0.63098  0.11295  1.0000
  H   H1292     1.0  0.86976  0.72595  0.19056  1.0000
  Fe  Fe108     1.0  0.84309  0.77479  0.31294  1.0000
  Fe  Fe109     1.0  0.77883  0.75065  0.29192  1.0000
  C   C752      1.0  0.55114  0.78491  0.20227  1.0000
  C   C753      1.0  0.74792  0.70706  0.53414  1.0000
  H   H1293     1.0  0.56391  0.77388  0.17399  1.0000
  C   C754      1.0  0.86440  0.66808  0.17647  1.0000
  H   H1294     1.0  0.58814  0.75054  0.09915  1.0000
  C   C755      1.0  0.60333  0.78609  0.43002  1.0000
  H   H1295     1.0  0.84760  0.61883  0.11198  1.0000
  H   H1296     1.0  0.87314  0.62051  0.24171  1.0000
  H   H1297     1.0  0.44911  0.59819  0.13028  1.0000
  H   H1298     1.0  0.59427  0.65178  0.19634  1.0000
  S   S215      1.0  0.74682  0.71297  0.37154  1.0000
  H   H1299     1.0  0.85607  0.83520  0.07192  1.0000
  C   C756      1.0  0.51806  0.63855  0.51395  1.0000
  H   H1300     1.0  0.65444  0.68898  0.21961  1.0000
  S   S216      1.0  0.39044  0.81832  0.11027  1.0000
  H   H1301     1.0  0.81422  0.81442  0.12989  1.0000
  H   H1302     1.0  0.50677  0.80321  0.06261  1.0000
  S   S217      1.0  0.72230  0.60489  0.23185  1.0000
  H   H1303     1.0  0.79071  0.83072  0.20628  1.0000
  C   C757      1.0  0.74462  0.64564  0.27040  1.0000
  C   C758      1.0  0.70221  0.66634  0.09444  1.0000
  C   C759      1.0  0.56322  0.64552  0.06355  1.0000
  H   H1304     1.0  0.50819  0.82021  0.30784  1.0000
  C   C760      1.0  0.75465  0.71429  0.22926  1.0000
  Fe  Fe110     1.0  0.45795  0.76839  0.39575  1.0000
  C   C761      1.0  0.49450  0.63051  0.25535  1.0000
  C   C762      1.0  0.66717  0.79620  0.43172  1.0000
  H   H1305     1.0  0.42792  0.81799  0.18096  1.0000
  Fe  Fe111     1.0  0.75739  0.76017  0.38780  1.0000
  H   H1306     1.0  0.49908  0.65919  0.08650  1.0000
  H   H1307     1.0  0.76067  0.67894  0.08566  1.0000
  H   H1308     1.0  0.49447  0.82724  0.10232  1.0000
  H   H1309     1.0  0.56475  0.82424  0.09737  1.0000
  C   C763      1.0  0.40309  0.66622  0.35722  1.0000
  N   N53       1.0  0.56088  0.60291  0.09276  1.0000
  H   H1310     1.0  0.60504  0.79445  0.31393  1.0000
  N   N54       1.0  0.60655  0.70464  0.31152  1.0000
  H   H1311     1.0  0.51605  0.66501  0.41053  1.0000
  H   H1312     1.0  0.64783  0.74291  0.44070  1.0000
  H   H1313     1.0  0.38039  0.82498  0.25299  1.0000
  S   S218      1.0  0.81671  0.73869  0.39457  1.0000
  H   H1314     1.0  0.45138  0.67266  0.37955  1.0000
  H   H1315     1.0  0.68472  0.68725  0.10901  1.0000
  C   C764      1.0  0.61375  0.76413  0.32492  1.0000
  C   C765      1.0  0.65696  0.83380  0.42473  1.0000
  S   S219      1.0  0.41644  0.72507  0.20386  1.0000
  H   H1316     1.0  0.76319  0.67898  0.29814  1.0000
  H   H1317     1.0  0.56703  0.75215  0.30783  1.0000
  H   H1318     1.0  0.69224  0.69131  0.48263  1.0000
  H   H1319     1.0  0.70196  0.64039  0.45514  1.0000
  C   C766      1.0  0.55872  0.82411  0.06595  1.0000
  C   C767      1.0  0.51886  0.60346  0.51133  1.0000
  H   H1320     1.0  0.74407  0.74177  0.16120  1.0000
  H   H1321     1.0  0.64546  0.70225  0.37424  1.0000
  C   C768      1.0  0.53004  0.65017  0.21929  1.0000
  C   C769      1.0  0.55393  0.65725  0.49908  1.0000
  H   H1322     1.0  0.42544  0.80852  0.26331  1.0000
  H   H1323     1.0  0.72802  0.68121  0.16262  1.0000
  Fe  Fe112     1.0  0.41145  0.78621  0.48585  1.0000
  H   H1324     1.0  0.68692  0.65916  0.07524  1.0000
  H   H1325     1.0  0.76101  0.71265  0.49438  1.0000
  H   H1326     1.0  0.56877  0.70745  0.27177  1.0000
  S   S220      1.0  0.45018  0.82215  0.40777  1.0000
  S   S221      1.0  0.76275  0.75773  0.22837  1.0000
  H   H1327     1.0  0.82304  0.62727  0.24450  1.0000
  H   H1328     1.0  0.46798  0.66759  0.32256  1.0000
  C   C770      1.0  0.69533  0.63167  0.49526  1.0000
  H   H1329     1.0  0.55510  0.75393  0.06952  1.0000
  H   H1330     1.0  0.73862  0.66966  0.48287  1.0000
  C   C771      1.0  0.85113  0.64262  0.23265  1.0000
  S   S222      1.0  0.83909  0.72832  0.29124  1.0000
  C   C772      1.0  0.50018  0.78120  0.28046  1.0000
  C   C773      1.0  0.57848  0.68096  0.36333  1.0000
  S   S223      1.0  0.78454  0.79981  0.30779  1.0000
  H   H1331     1.0  0.70217  0.63964  0.12711  1.0000
  H   H1332     1.0  0.61554  0.70965  0.19609  1.0000
  H   H1333     1.0  0.74276  0.78279  0.06246  1.0000
  C   C774      1.0  0.84721  0.81854  0.11244  1.0000
  C   C775      1.0  0.59357  0.82399  0.42217  1.0000
  H   H1334     1.0  0.44912  0.62661  0.37948  1.0000
  H   H1335     1.0  0.69683  0.74523  0.04029  1.0000
  H   H1336     1.0  0.85994  0.78987  0.11841  1.0000
  H   H1337     1.0  0.59968  0.74995  0.36576  1.0000
  C   C776      1.0  0.64043  0.77227  0.43416  1.0000
  S   S224      1.0  0.41498  0.73441  0.47143  1.0000
  H   H1338     1.0  0.60506  0.78041  0.53215  1.0000
  C   C777      1.0  0.40663  0.61375  0.09419  1.0000
  S   S225      1.0  0.71067  0.77845  0.44444  1.0000
  H   H1339     1.0  0.56908  0.65995  0.08369  1.0000
  S   S226      1.0  0.46250  0.73369  0.08889  1.0000
  H   H1340     1.0  0.51259  0.78000  0.12229  1.0000
  C   C778      1.0  0.73356  0.75310  0.07413  1.0000
  C   C779      1.0  0.59934  0.74649  0.29910  1.0000
  C   C780      1.0  0.86332  0.83686  0.13622  1.0000
  S   S227      1.0  0.61391  0.83614  0.14857  1.0000
  S   S228      1.0  0.42459  0.66069  0.05797  1.0000
  C   C781      1.0  0.74526  0.71480  0.19083  1.0000
  Fe  Fe113     1.0  0.42236  0.68608  0.10925  1.0000
  H   H1341     1.0  0.69208  0.68637  0.34311  1.0000
  Fe  Fe114     1.0  0.80803  0.69402  0.37255  1.0000
  H   H1342     1.0  0.40466  0.69628  0.32979  1.0000
  S   S229      1.0  0.43051  0.64942  0.18097  1.0000
  C   C782      1.0  0.74603  0.67964  0.06097  1.0000
  C   C783      1.0  0.73636  0.68082  0.19155  1.0000
  C   C784      1.0  0.49558  0.59790  0.29703  1.0000
  C   C785      1.0  0.59784  0.69533  0.27506  1.0000
  C   C786      1.0  0.70571  0.66496  0.50297  1.0000
  C   C787      1.0  0.64956  0.69518  0.30676  1.0000
  H   H1343     1.0  0.65061  0.65410  0.37942  1.0000
  H   H1344     1.0  0.65920  0.67045  0.29653  1.0000
  C   C788      1.0  0.65941  0.68417  0.35373  1.0000
  C   C789      1.0  0.75543  0.67960  0.26852  1.0000
  H   H1345     1.0  0.83942  0.68790  0.17093  1.0000
  S   S230      1.0  0.81658  0.63158  0.41128  1.0000
  H   H1346     1.0  0.39819  0.68901  0.42832  1.0000
  H   H1347     1.0  0.61520  0.71013  0.05823  1.0000
  C   C790      1.0  0.59132  0.60447  0.48223  1.0000
  H   H1348     1.0  0.58858  0.65111  0.37632  1.0000
  C   C791      1.0  0.85314  0.61356  0.37121  1.0000
  C   C792      1.0  0.81969  0.60283  0.14057  1.0000
  H   H1349     1.0  0.76016  0.65667  0.04861  1.0000
  H   H1350     1.0  0.66340  0.62277  0.51513  1.0000
  H   H1351     1.0  0.39899  0.64897  0.33916  1.0000
  H   H1352     1.0  0.54140  0.60962  0.16189  1.0000
  C   C793      1.0  0.56771  0.60468  0.26656  1.0000
  H   H1353     1.0  0.62203  0.82437  0.52643  1.0000
  H   H1354     1.0  0.54275  0.79266  0.52703  1.0000
  C   C794      1.0  0.63063  0.81262  0.04000  1.0000
  H   H1355     1.0  0.75040  0.73414  0.53662  1.0000
  H   H1356     1.0  0.62527  0.67669  0.52546  1.0000
  C   C795      1.0  0.51593  0.80729  0.08920  1.0000
  H   H1357     1.0  0.62384  0.60135  0.05279  1.0000
  C   C796      1.0  0.61899  0.60014  0.12176  1.0000
  H   H1358     1.0  0.71406  0.60683  0.50662  1.0000
  N   N55       1.0  0.59205  0.80497  0.03767  1.0000
  S   S231      1.0  0.54796  0.84272  0.41596  1.0000
  C   C797      1.0  0.43352  0.84235  0.18716  1.0000
  H   H1359     1.0  0.65121  0.59302  0.11244  1.0000
  C   C798      1.0  0.53246  0.59392  0.14534  1.0000
  C   C799      1.0  0.45455  0.03693  0.72451  1.0000
  H   H1360     1.0  0.46476  0.02272  0.75641  1.0000
  H   H1361     1.0  0.86232  0.04776  0.93078  1.0000
  H   H1362     1.0  0.70031  0.96115  0.54440  1.0000
  H   H1363     1.0  0.81964  0.98222  0.75323  1.0000
  H   H1364     1.0  0.68752  0.05740  0.79435  1.0000
  H   H1365     1.0  0.77464  0.94450  0.82959  1.0000
  C   C800      1.0  0.78212  0.06960  0.94735  1.0000
  C   C801      1.0  0.41395  0.94159  0.89923  1.0000
  H   H1366     1.0  0.76892  0.84816  0.63605  1.0000
  H   H1367     1.0  0.56016  0.98975  0.80264  1.0000
  H   H1368     1.0  0.55635  0.06397  0.94908  1.0000
  C   C802      1.0  0.69335  0.99710  0.80839  1.0000
  H   H1369     1.0  0.38119  0.94352  0.90782  1.0000
  S   S232      1.0  0.41881  0.93005  0.78918  1.0000
  H   H1370     1.0  0.69377  0.85135  0.88999  1.0000
  H   H1371     1.0  0.62006  0.90102  0.71098  1.0000
  H   H1372     1.0  0.52820  0.00267  0.72326  1.0000
  H   H1373     1.0  0.62956  0.97605  0.56832  1.0000
  H   H1374     1.0  0.80259  0.00476  0.89537  1.0000
  H   H1375     1.0  0.69769  0.96219  0.90244  1.0000
  H   H1376     1.0  0.68447  0.91583  0.55329  1.0000
  H   H1377     1.0  0.53731  0.04387  0.73022  1.0000
  H   H1378     1.0  0.54369  0.08087  0.63619  1.0000
  C   C803      1.0  0.58350  0.97170  0.86093  1.0000
  C   C804      1.0  0.75341  0.84635  0.84172  1.0000
  H   H1379     1.0  0.64974  0.86965  0.97934  1.0000
  H   H1380     1.0  0.80680  0.94196  0.02191  1.0000
  H   H1381     1.0  0.39410  0.04946  0.72140  1.0000
  C   C805      1.0  0.76242  0.00960  0.74961  1.0000
  H   H1382     1.0  0.76587  0.99871  0.01110  1.0000
  H   H1383     1.0  0.48545  0.93746  0.92127  1.0000
  C   C806      1.0  0.44900  0.89967  0.99391  1.0000
  S   S233      1.0  0.40728  0.03717  0.95737  1.0000
  H   H1384     1.0  0.59938  0.85332  0.96779  1.0000
  H   H1385     1.0  0.70179  0.92068  0.88990  1.0000
  C   C807      1.0  0.49515  0.91212  0.85685  1.0000
  Fe  Fe115     1.0  0.51558  0.90846  0.64434  1.0000
  C   C808      1.0  0.54333  0.84941  0.54737  1.0000
  Fe  Fe116     1.0  0.48643  0.98810  0.60000  1.0000
  C   C809      1.0  0.69125  0.03008  0.82380  1.0000
  Fe  Fe117     1.0  0.59887  0.94926  0.00821  1.0000
  H   H1386     1.0  0.78879  0.05253  0.87176  1.0000
  Fe  Fe118     1.0  0.43152  0.04594  0.87758  1.0000
  S   S234      1.0  0.42181  0.97170  0.64697  1.0000
  H   H1387     1.0  0.51409  0.88338  0.73193  1.0000
  S   S235      1.0  0.58421  0.00089  0.02499  1.0000
  H   H1388     1.0  0.80470  0.06624  0.00401  1.0000
  S   S236      1.0  0.48299  0.01817  0.83871  1.0000
  Fe  Fe119     1.0  0.68086  0.07451  0.59041  1.0000
  C   C810      1.0  0.47579  0.84966  0.92585  1.0000
  H   H1389     1.0  0.42290  0.88136  0.00721  1.0000
  S   S237      1.0  0.45382  0.88551  0.69460  1.0000
  H   H1390     1.0  0.45660  0.01509  0.70994  1.0000
  H   H1391     1.0  0.53968  0.98735  0.96617  1.0000
  H   H1392     1.0  0.68245  0.00883  0.77699  1.0000
  S   S238      1.0  0.49931  0.93942  0.57719  1.0000
  N   N56       1.0  0.46879  0.89174  0.91084  1.0000
  C   C811      1.0  0.81189  0.96383  0.98368  1.0000
  H   H1393     1.0  0.62856  0.94744  0.70372  1.0000
  H   H1394     1.0  0.76325  0.98740  0.83731  1.0000
  H   H1395     1.0  0.62129  0.07712  0.91925  1.0000
  H   H1396     1.0  0.75081  0.06160  0.97392  1.0000
  H   H1397     1.0  0.50770  0.84334  0.92023  1.0000
  C   C812      1.0  0.52160  0.00536  0.86207  1.0000
  H   H1398     1.0  0.43793  0.92737  0.99577  1.0000
  S   S239      1.0  0.56598  0.86814  0.64788  1.0000
  Fe  Fe120     1.0  0.85803  0.84883  0.93774  1.0000
  C   C813      1.0  0.55578  0.98943  0.83817  1.0000
  C   C814      1.0  0.66855  0.86885  0.64986  1.0000
  C   C815      1.0  0.80427  0.99565  0.72631  1.0000
  C   C816      1.0  0.79781  0.00259  0.98614  1.0000
  H   H1399     1.0  0.86235  0.02006  0.89952  1.0000
  C   C817      1.0  0.54110  0.03204  0.70297  1.0000
  H   H1400     1.0  0.40470  0.06874  0.75810  1.0000
  C   C818      1.0  0.74078  0.01629  0.93235  1.0000
  S   S240      1.0  0.67864  0.02873  0.56658  1.0000
  H   H1401     1.0  0.70681  0.92549  0.81588  1.0000
  H   H1402     1.0  0.57373  0.02993  0.68365  1.0000
  H   H1403     1.0  0.52668  0.07486  0.00174  1.0000
  N   N57       1.0  0.80329  0.03604  0.93713  1.0000
  C   C819      1.0  0.51639  0.00573  0.90754  1.0000
  C   C820      1.0  0.73743  0.84619  0.92258  1.0000
  H   H1404     1.0  0.79446  0.95410  0.96890  1.0000
  H   H1405     1.0  0.54764  0.87581  0.84273  1.0000
  H   H1406     1.0  0.69794  0.95104  0.64460  1.0000
  C   C821      1.0  0.40967  0.04455  0.74714  1.0000
  H   H1407     1.0  0.74973  0.02473  0.71997  1.0000
  C   C822      1.0  0.80124  0.08728  0.96914  1.0000
  H   H1408     1.0  0.65571  0.90908  0.73298  1.0000
  C   C823      1.0  0.71899  0.94256  0.88850  1.0000
  H   H1409     1.0  0.67035  0.97518  0.83849  1.0000
  H   H1410     1.0  0.64432  0.88475  0.63656  1.0000
  H   H1411     1.0  0.74305  0.90006  0.66849  1.0000
  C   C824      1.0  0.72949  0.94666  0.78334  1.0000
  H   H1412     1.0  0.71789  0.03321  0.83062  1.0000
  H   H1413     1.0  0.66103  0.94546  0.62450  1.0000
  H   H1414     1.0  0.81388  0.00782  0.00619  1.0000
  N   N58       1.0  0.48085  0.07129  0.68493  1.0000
  Fe  Fe121     1.0  0.43645  0.92043  0.62895  1.0000
  H   H1415     1.0  0.74820  0.89016  0.57842  1.0000
  H   H1416     1.0  0.76737  0.03222  0.75934  1.0000
  H   H1417     1.0  0.66488  0.02562  0.85850  1.0000
  H   H1418     1.0  0.73797  0.97762  0.70352  1.0000
  H   H1419     1.0  0.80309  0.97579  0.71039  1.0000
  H   H1420     1.0  0.42033  0.88954  0.88901  1.0000
  C   C825      1.0  0.57956  0.00812  0.55281  1.0000
  H   H1421     1.0  0.85306  0.07343  0.82993  1.0000
  C   C826      1.0  0.42614  0.89952  0.91367  1.0000
  C   C827      1.0  0.38388  0.84873  0.66537  1.0000
  S   S241      1.0  0.51153  0.04654  0.54633  1.0000
  S   S242      1.0  0.68872  0.05928  0.66207  1.0000
  H   H1422     1.0  0.73500  0.92791  0.91467  1.0000
  N   N59       1.0  0.69876  0.89652  0.64066  1.0000
  C   C828      1.0  0.72508  0.84810  0.88532  1.0000
  C   C829      1.0  0.54439  0.98818  0.93029  1.0000
  H   H1423     1.0  0.73169  0.00939  0.90761  1.0000
  C   C830      1.0  0.61662  0.00386  0.55809  1.0000
  H   H1424     1.0  0.71759  0.93058  0.73291  1.0000
  H   H1425     1.0  0.47765  0.08232  0.74722  1.0000
  C   C831      1.0  0.64366  0.92060  0.70280  1.0000
  H   H1426     1.0  0.40442  0.88287  0.95077  1.0000
  C   C832      1.0  0.70996  0.93211  0.54728  1.0000
  H   H1427     1.0  0.68606  0.96742  0.74531  1.0000
  H   H1428     1.0  0.74906  0.93335  0.58272  1.0000
  H   H1429     1.0  0.55263  0.90735  0.86805  1.0000
  C   C833      1.0  0.64185  0.85479  0.02008  1.0000
  C   C834      1.0  0.52214  0.05714  0.66431  1.0000
  C   C835      1.0  0.74961  0.96432  0.83598  1.0000
  C   C836      1.0  0.57747  0.97045  0.90736  1.0000
  H   H1430     1.0  0.49018  0.01825  0.92598  1.0000
  H   H1431     1.0  0.55675  0.92509  0.80477  1.0000
  C   C837      1.0  0.84744  0.04438  0.90826  1.0000
  C   C838      1.0  0.72168  0.87883  0.67512  1.0000
  C   C839      1.0  0.85868  0.07926  0.85791  1.0000
  C   C840      1.0  0.72826  0.91227  0.58782  1.0000
  H   H1432     1.0  0.48093  0.86957  0.56450  1.0000
  H   H1433     1.0  0.72209  0.04035  0.93800  1.0000
  H   H1434     1.0  0.46168  0.06844  0.63048  1.0000
  H   H1435     1.0  0.82303  0.02059  0.69513  1.0000
  H   H1436     1.0  0.59359  0.08651  0.99343  1.0000
  C   C841      1.0  0.56127  0.04350  0.54210  1.0000
  H   H1437     1.0  0.39525  0.01888  0.78116  1.0000
  C   C842      1.0  0.78570  0.02741  0.90710  1.0000
  Fe  Fe122     1.0  0.44422  0.93782  0.70938  1.0000
  H   H1438     1.0  0.49257  0.94341  0.84455  1.0000
  H   H1439     1.0  0.56463  0.98359  0.55872  1.0000
  C   C843      1.0  0.67665  0.92990  0.65078  1.0000
  H   H1440     1.0  0.60890  0.95797  0.84307  1.0000
  C   C844      1.0  0.53026  0.85795  0.74471  1.0000
  S   S243      1.0  0.65040  0.93378  0.03430  1.0000
  S   S244      1.0  0.50761  0.95839  0.66374  1.0000
  H   H1441     1.0  0.42821  0.95867  0.85872  1.0000
  S   S245      1.0  0.40027  0.89062  0.61147  1.0000
  H   H1442     1.0  0.48507  0.90581  0.83220  1.0000
  S   S246      1.0  0.59288  0.08847  0.74549  1.0000
  H   H1443     1.0  0.52164  0.04027  0.64395  1.0000
  S   S247      1.0  0.61035  0.94448  0.93719  1.0000
  C   C845      1.0  0.63533  0.03503  0.55291  1.0000
  H   H1444     1.0  0.71592  0.84799  0.95594  1.0000
  H   H1445     1.0  0.46396  0.88619  0.02139  1.0000
  H   H1446     1.0  0.66848  0.85664  0.02806  1.0000
  H   H1447     1.0  0.84425  0.96414  0.96161  1.0000
  C   C846      1.0  0.61862  0.07104  0.53815  1.0000
  C   C847      1.0  0.47977  0.90628  0.94126  1.0000
  C   C848      1.0  0.54045  0.90431  0.84311  1.0000
  H   H1448     1.0  0.73369  0.99088  0.96809  1.0000
  H   H1449     1.0  0.75777  0.93057  0.77724  1.0000
  N   N60       1.0  0.73371  0.97951  0.79434  1.0000
  H   H1450     1.0  0.42091  0.95486  0.91975  1.0000
  C   C849      1.0  0.71706  0.95685  0.73856  1.0000
  H   H1451     1.0  0.50865  0.89437  0.94510  1.0000
  H   H1452     1.0  0.65313  0.85234  0.69037  1.0000
  H   H1453     1.0  0.55409  0.86738  0.55977  1.0000
  H   H1454     1.0  0.50474  0.85203  0.81996  1.0000
  H   H1455     1.0  0.70145  0.87024  0.71436  1.0000
  S   S248      1.0  0.73827  0.84960  0.79458  1.0000
  H   H1456     1.0  0.67170  0.84655  0.59618  1.0000
  H   H1457     1.0  0.50872  0.08310  0.95284  1.0000
  C   C850      1.0  0.46389  0.08959  0.64431  1.0000
  C   C851      1.0  0.53538  0.08449  0.96109  1.0000
  C   C852      1.0  0.55736  0.84366  0.71128  1.0000
  C   C853      1.0  0.74561  0.84304  0.67303  1.0000
  H   H1458     1.0  0.77888  0.09276  0.91339  1.0000
  C   C854      1.0  0.87611  0.07796  0.33662  1.0000
  N   N61       1.0  0.61484  0.95972  0.27176  1.0000
  C   C855      1.0  0.38193  0.89510  0.24054  1.0000
  H   H1459     1.0  0.84053  0.95631  0.06958  1.0000
  C   C856      1.0  0.50163  0.00597  0.16840  1.0000
  H   H1460     1.0  0.42221  0.02548  0.08098  1.0000
  H   H1461     1.0  0.73999  0.08071  0.46671  1.0000
  H   H1462     1.0  0.75077  0.85122  0.18591  1.0000
  C   C857      1.0  0.58244  0.97726  0.30275  1.0000
  H   H1463     1.0  0.61774  0.87006  0.03853  1.0000
  H   H1464     1.0  0.43296  0.07819  0.18233  1.0000
  H   H1465     1.0  0.39920  0.06995  0.05821  1.0000
  H   H1466     1.0  0.57964  0.08342  0.34885  1.0000
  C   C858      1.0  0.65143  0.98545  0.23948  1.0000
  H   H1467     1.0  0.84350  0.86701  0.20303  1.0000
  H   H1468     1.0  0.86530  0.89822  0.04906  1.0000
  H   H1469     1.0  0.72968  0.03717  0.34881  1.0000
  H   H1470     1.0  0.47068  0.87939  0.29356  1.0000
  H   H1471     1.0  0.55719  0.85467  0.04168  1.0000
  H   H1472     1.0  0.55680  0.95681  0.32900  1.0000
  H   H1473     1.0  0.79890  0.91240  0.13021  1.0000
  S   S249      1.0  0.54304  0.07357  0.22836  1.0000
  H   H1474     1.0  0.44440  0.92203  0.27077  1.0000
  H   H1475     1.0  0.73320  0.93546  0.51068  1.0000
  S   S250      1.0  0.67178  0.02710  0.04346  1.0000
  H   H1476     1.0  0.62150  0.04558  0.43325  1.0000
  H   H1477     1.0  0.61751  0.01408  0.31096  1.0000
  H   H1478     1.0  0.63432  0.88452  0.26882  1.0000
  H   H1479     1.0  0.55922  0.90492  0.30356  1.0000
  C   C859      1.0  0.39880  0.84953  0.31347  1.0000
  C   C860      1.0  0.59499  0.99047  0.33433  1.0000
  H   H1480     1.0  0.40780  0.94918  0.22372  1.0000
  C   C861      1.0  0.47687  0.00780  0.21352  1.0000
  H   H1481     1.0  0.79986  0.87857  0.10805  1.0000
  S   S251      1.0  0.81642  0.04949  0.18085  1.0000
  S   S252      1.0  0.85675  0.03721  0.07627  1.0000
  H   H1482     1.0  0.67412  0.97271  0.21564  1.0000
  C   C862      1.0  0.87586  0.05206  0.28016  1.0000
  H   H1483     1.0  0.58962  0.98044  0.21449  1.0000
  H   H1484     1.0  0.71809  0.02870  0.46993  1.0000
  H   H1485     1.0  0.78326  0.99835  0.45125  1.0000
  C   C863      1.0  0.52736  0.04652  0.20647  1.0000
  H   H1486     1.0  0.56224  0.91039  0.24479  1.0000
  N   N62       1.0  0.41128  0.86610  0.25768  1.0000
  H   H1487     1.0  0.60629  0.96667  0.36084  1.0000
  H   H1488     1.0  0.39557  0.87200  0.32711  1.0000
  C   C864      1.0  0.87488  0.90313  0.07502  1.0000
  Fe  Fe123     1.0  0.87454  0.02859  0.19177  1.0000
  H   H1489     1.0  0.58110  0.05856  0.14129  1.0000
  H   H1490     1.0  0.46643  0.84453  0.17570  1.0000
  H   H1491     1.0  0.66652  0.98824  0.26219  1.0000
  C   C865      1.0  0.77817  0.85825  0.18846  1.0000
  C   C866      1.0  0.85545  0.08388  0.25838  1.0000
  C   C867      1.0  0.85959  0.88728  0.16408  1.0000
  S   S253      1.0  0.55377  0.91185  0.08055  1.0000
  C   C868      1.0  0.55188  0.04473  0.16142  1.0000
  H   H1492     1.0  0.63618  0.02569  0.17484  1.0000
  C   C869      1.0  0.53913  0.02438  0.14255  1.0000
  H   H1493     1.0  0.47579  0.86096  0.22940  1.0000
  C   C870      1.0  0.62690  0.92291  0.30590  1.0000
  N   N63       1.0  0.85125  0.87744  0.12799  1.0000
  C   C871      1.0  0.72296  0.03339  0.08342  1.0000
  H   H1494     1.0  0.72274  0.06375  0.06201  1.0000
  C   C872      1.0  0.72288  0.95501  0.13937  1.0000
  H   H1495     1.0  0.72254  0.92471  0.16123  1.0000
  H   H1496     1.0  0.55831  0.02352  0.10748  1.0000
  H   H1497     1.0  0.56937  0.00186  0.27923  1.0000
  S   S254      1.0  0.77360  0.96119  0.18001  1.0000
  C   C873      1.0  0.50758  0.86943  0.53229  1.0000
  C   C874      1.0  0.58153  0.07530  0.53281  1.0000
  H   H1498     1.0  0.56747  0.85068  0.51224  1.0000
  C   C875      1.0  0.74631  0.97957  0.14091  1.0000
  H   H1499     1.0  0.45204  0.06797  0.04753  1.0000
  S   S255      1.0  0.59115  0.94485  0.13402  1.0000
  H   H1500     1.0  0.62285  0.04181  0.22416  1.0000
  Fe  Fe124     1.0  0.85529  0.08297  0.10151  1.0000
  C   C876      1.0  0.45316  0.88307  0.23318  1.0000
  C   C877      1.0  0.41259  0.05806  0.12475  1.0000
  C   C878      1.0  0.56128  0.92660  0.26634  1.0000
  N   N64       1.0  0.72321  0.06718  0.39473  1.0000
  C   C879      1.0  0.69942  0.00885  0.08207  1.0000
  H   H1501     1.0  0.47091  0.02921  0.26775  1.0000
  H   H1502     1.0  0.65882  0.01124  0.44429  1.0000
  H   H1503     1.0  0.64485  0.92857  0.32369  1.0000
  H   H1504     1.0  0.43564  0.04181  0.13981  1.0000
  H   H1505     1.0  0.67717  0.85204  0.42399  1.0000
  C   C880      1.0  0.77916  0.02589  0.42239  1.0000
  H   H1506     1.0  0.73961  0.09209  0.26947  1.0000
  C   C881      1.0  0.65186  0.89606  0.28172  1.0000
  Fe  Fe125     1.0  0.60473  0.89817  0.10760  1.0000
  H   H1507     1.0  0.72391  0.00567  0.43112  1.0000
  H   H1508     1.0  0.67987  0.90999  0.25075  1.0000
  H   H1509     1.0  0.79674  0.02484  0.38588  1.0000
  C   C882      1.0  0.64492  0.02595  0.20421  1.0000
  H   H1510     1.0  0.44777  0.99373  0.23356  1.0000
  H   H1511     1.0  0.84785  0.08651  0.22773  1.0000
  Fe  Fe126     1.0  0.82207  0.00233  0.15641  1.0000
  H   H1512     1.0  0.66758  0.07130  0.45066  1.0000
  C   C883      1.0  0.73859  0.06479  0.34505  1.0000
  H   H1513     1.0  0.56880  0.85166  0.23439  1.0000
  C   C884      1.0  0.67843  0.07113  0.41336  1.0000
  H   H1514     1.0  0.53353  0.94348  0.27043  1.0000
  H   H1515     1.0  0.49937  0.85640  0.51231  1.0000
  C   C885      1.0  0.59872  0.95314  0.23903  1.0000
  H   H1516     1.0  0.49496  0.91670  0.23469  1.0000
  H   H1517     1.0  0.66003  0.03932  0.38159  1.0000
  H   H1518     1.0  0.49192  0.07843  0.08582  1.0000
  C   C886      1.0  0.46588  0.90136  0.25997  1.0000
  H   H1519     1.0  0.60034  0.90634  0.33745  1.0000
  C   C887      1.0  0.65384  0.03976  0.41803  1.0000
  C   C888      1.0  0.37961  0.93216  0.24742  1.0000
  C   C889      1.0  0.87169  0.94636  0.06180  1.0000
  H   H1520     1.0  0.77188  0.06541  0.32968  1.0000
  H   H1521     1.0  0.56829  0.00157  0.35658  1.0000
  H   H1522     1.0  0.51618  0.89953  0.50622  1.0000
  S   S256      1.0  0.48668  0.98005  0.14440  1.0000
  Fe  Fe127     1.0  0.63173  0.98190  0.05780  1.0000
  H   H1523     1.0  0.68164  0.95057  0.10845  1.0000
  H   H1524     1.0  0.84753  0.91560  0.16259  1.0000
  H   H1525     1.0  0.45833  0.90428  0.19450  1.0000
  C   C890      1.0  0.62039  0.84769  0.41975  1.0000
  H   H1526     1.0  0.67368  0.04233  0.18468  1.0000
  H   H1527     1.0  0.62228  0.94302  0.21225  1.0000
  H   H1528     1.0  0.76425  0.03786  0.11426  1.0000
  C   C891      1.0  0.49000  0.02768  0.23293  1.0000
  C   C892      1.0  0.69942  0.96965  0.10993  1.0000
  H   H1529     1.0  0.55275  0.07487  0.41226  1.0000
  Fe  Fe128     1.0  0.54414  0.96183  0.10022  1.0000
  C   C893      1.0  0.42205  0.05586  0.07470  1.0000
  H   H1530     1.0  0.79204  0.04828  0.42567  1.0000
  H   H1531     1.0  0.38433  0.04126  0.15073  1.0000
  C   C894      1.0  0.73406  0.03115  0.43127  1.0000
  H   H1532     1.0  0.61252  0.87663  0.41521  1.0000
  C   C895      1.0  0.74660  0.01873  0.11268  1.0000
  H   H1533     1.0  0.42304  0.86823  0.16235  1.0000
  H   H1534     1.0  0.76963  0.87359  0.21307  1.0000
  C   C896      1.0  0.80735  0.88263  0.13618  1.0000
  H   H1535     1.0  0.38860  0.90405  0.20038  1.0000
  H   H1536     1.0  0.66068  0.87122  0.30994  1.0000
