data_image0
_chemical_formula_structural       FeS2CHFeSH2SHCSFeS2FeS2HSCHFeSFe2S2FeSFeS3FeS2FeHSHC5H4CH3C6H4C6H4CH3C2H2CHCNH3CH6CH3CHSH3CHSH2CHC4H4C5HC2H2CH3CH4CHCH3CHNH3NHFeC2H2CHCH3CHCH2SHFeH2CHCFeH3C2NC8H8CNSH9CHCH2CHCH2C2HCSH6C2HNH4SH5SH2FeSH4CH2C2H7CHCHNSCSH5CFeSH2FeS2CSFeSCSHCHFeHSCS3HCH4C6NH5FeHC3HCH3C6H4CH6C3HCH3CFeCHC2HNC8H20CH4CFeC2H2CHSCH2C2HC4SHSNH11SHCHCH2C2H2CSH3SH7SH2CHCH3CH2CHFeCFeH5CHC2H5FeHSHCH3SH2FeSHCFeHS3H2C5H4CHC3HSHCH2C7SCH4CH4CH2C2H4SH3SFeHCFeCHC2HNHSCFeH4C2HCHFeHSC2H4SC4H3NCH2SH2CHCH3CH2CH5NCSHCFeHNC8H17FeH3CHCHSH2NCHC2HCFeHSCHCHCHC2H2C2H8CHCH2SH2CH3CH4SCHSH2C3HCH3FeS2FeS2FeSFeS3CH2CHCH8CSH2CSHCHSHSHC6H2CHCHCHC5H3CHCH2C2H3C2H3CH2CHCH2CH2CHC2NH3SH3C2H9CSH3C2H2CH2C2H4SCH2CNHCHFeH2CSNCH3C4H3CHCH2C2H4C2HCH3FeHCHCH2NH2C3HC2HNH7CHCH4C2SH5CHCH2S2FeC3HFeH13SC2H2CS2HCHCH2CH3CH2FeHFeSFeSFeHSHSHC2FeHSH2CS2C2H2CHSCHCHC2HC6H4CH2FeH3SCNHC3H2C4HCH8SH7CH5C2HCSH2FeSH3Fe2C3H2NCHCSH7C2H9C4HCNCHNHCH2NHFeH3CSH4SHCH4CH2CHCH5CH2SHCHFeC2NH3CH3C2H3CFeHSH2CHCHCHCHS2HSHCH5SHC3HCH2SC2HFeSC2S3HSCHCHCHNCH3SHCH3C4HC3H2CH5CHNCSHSHFeS2Fe3S3C2HC3HCH5C7H3NH5C2HCHFeCHC3H2CH2CH5C3H2CH4NH2CH5SCH2C4HC2H3CH3SC2FeH2CH3CH3CHCH2CH3CSH2SH4CH2CHSHCHCHNC2H2C3HNC3HC2H4C2H2C2H7CH2FeCSH3CH4CHNHCHC2FeC3SFeS2FeSFeSHS2HFeSFeCSCH2C2HCSHSC6H4C6H2CHC5H3FeC2SCHSH2C3H4SH3C3SH5CH4NH3CHCFeH4FeCHCH3CHC2H2SNC6HCH14CH3SHCHCHSH7CHSCH2NH2NH7CNSC2H3CH2SC2H2CHCH3C2HCH7CHCH2C2HFeH5CSCHCH5FeS2FeS2FeHFeS3H3SH7Fe2S2CHFeSHCH3C2H4C6H3CHFeH5SHFeH5CSHCHSC6H2CHC5H7SH2SHNH2NHC2HCH2SHCHNC8H13SH7CH3C2HCH2CH4C4HCH2CH3CHCHCSCH2CSH4C2H2CH2CH2CHC4HC2SCH2CFeCH4CH4C2HCHFeC2H2SFeNH2S2FeSFeSFeHFeS3H2SFeCSCH3CSFeSHFeH2SH4C4FeC2H6C2HS2H2C6H6CH3CHCHFeCSCHS2H2C2HCH2NC8H22C2HC2HNFeC2HC2H4C2FeH2CHCSH3C2H7C2H2CH11CSH2CHCHNC4HCH3CHCH3CH7SC2H5SCHC2FeSH2CSH2C2FeHCFeSFeS3NC2HCHFeH2CH2C2HFeH2C7H5CFeHS2HSH2C3H2C2HC3HSH7SHFeHCHSCSH2CH4SNC2H2C2NC4H2C2H8CH2CH8NC5HCHCH2FeH7C2H2C2H6SH2C2H3C2SCHSH4C2HCH2CH2SHCH2CHC2H8CH2FeS2FeS2FeCFeS3HCFeSH2SCFeSFeSHSH4CHC2HC3HCHCH2C3SH3CHCSH2C2H2C6H2CHC2HC3H5CNH4C4SH2CSCH7CHCSH3CSH4C3HCH3CHC2H2C2NC2HCH2CHCSH3FeH2CHNH3SHCH3NH2C2H10C3SFeHCH2CHC2H2CH4SHC2FeHC2H2CHCH3NHC2SHCH2C3H10C2SFeS4Fe2SH2SCHSHC3SN2H3CH5Fe2H2FeHCFeH2CHNHCH8C2HC3HCH2CH2C3H5C7H3C6H5C2SCH5CH2CHCH6SCHCHCH2C3FeH4C2H2CHSCFeH2NHSC2HSNC2H6FeHCH6CHSHCFeNC6H3CH8CH2SH2CHC2SHSHCHFeSCFeH3CHSHSHC2H3C2HCH9CH2CFeH3SH2SH4NS2H5FeSHSFe2SH2SCFeCFeS2FeSHNS2HFeSHFeS2FeSFeS3FeHSCH2CHC4HNH2C2H2C6H4C6H5CH5CH2CHCSHCFeH6SH2CHCHC3HSC4H6CH6CHSC2H2CHC2NH3C2SCNC8H6CH13C2H3CHC2H2CH5CH2SCH2CH2NSHCHCNCH2C2NCH3CH2SFeCH2FeCH10C3HC2H2CFeCH5CSCSHSH2SHFeS3HCFeS2HNH8CHC2HC2FeH4C6H4FeHSHC4HCHSC6FeH5SHCH11C3HCNC4HCFeCH4CH3NH3CH3SNSFeC2NSH3C3H9FeCH2C2H4S2CHCFeSCH7FeHCH2NSC3H2C4H3CHCH3CH2C3S2HCH5C3HCH3C3H4SH3FeH4CHCSHS2FeHSHFe2H2SH7C5H7FeHSCHCH3C7FeCH10SHC2H2SH2CH2NHC2H2CHC2FeCHC3HCH2CHCH8NC4SNHC5HCH8SH3Fe2SH2CHCH6SHC2HCH4CH3SHCHSHCHCHCNC6H14CH2CH4CHCHC2H5CNHCHNSC6HCNHCFeS2FeS2FeSFeS3H8FeSHSH2CH4CHCH2C2HC4H4CHC2HSC5H3C2H2C2SH3C3H2CH2CHC3H4CHSHCSH2CFeCH8CSCH2CH3CH4CHCHCH2CH6CHNH5CH3C3H3NSHCH3SCH2CH4C2H2CH4CFeHCSH2CH3CHCHNC2N2C3HCHC2H2C2H2C2HC3HSFeHCH2CHC2H8CH2C2H5CH5SHC3H2C2HS2FeC3HSCH4C2FeSFeSFeSFeHSCHFeH2FeCSC2HS2C2H2CH2SH4C8H5CHCH2CH2CH2CHC3H4CFeHNC3H11C2H5C3H5SHCNH2C2H3SH2FeHSHNC2HCH7S2H2CHSH2CS2HCH6C2H4C2HC3HC2H2CHCFeCN2HCHFeCH3NHC3HC4H9SH8CH2CSHCH3C2H2CH2SH3CH5CH2CH2CH2FeSCS4FeH2C2HCH3NHCHCHCHNC3HFeC4HCH3CH3SFeSHSCFeS2Fe3S3C2H5CH3C2HC6H3C3H3C2H2CH4CH8CH3C3H3CHCH4CHCHCH2C2HSCHCH5C2H8CH2NCHC2HCH2CHCFeHCH2CHSC2H2SH2NHSCHC3H4CH4NC5H8CH3NHSH3CH2CHCHCH3CHCH3CH4SH3CHCHCFeS2FeHFeSHFeS2C2H2SC5H2CH2C6H4C6H2C5SH4FeS2HFeHSHCHC4SH3CHCH2C2HCH3C2HNH3S2H10NH3SHFeHCH3CH3NH3CNC2H2FeSCH4CH2CHCH3CH3CHCSH5SNHC2HC3H2SH4FeCHC2H4C2HFeC2S2CHCH2CH4FeCHFeHSCH3SH5C2H2NH2FeS2FeS2FeHFeS3CH2SH2CH5FeS2CHFeCHCH3SC2H2C7HCHCH3C2H6C2H6CHC2H5CH2C6HSH3NC2H2NCH5CH2CH2CH3CSH2CFeCHCSH4CHC2HC2H2CHCHCHCHC2H2CNHCHCHCH3CH5C2HSHCHCHCNHC2H3C2HC2H6SH4CH2CHSFeH3CSCFeSFeSFeSFeSHCHS2FeCSCH6CHC5H2C8HCH3CH4CNC6H3C2H3C2HCSH5CH3CH4CH2SCHC2H5C3H3NHSH3CHCHCH2CH4CHCHNC6HCH14SH11SNC7H2CHFe2CNHCH2SHCSC2HS2CHC2H2CHC2HC2HCH2CHC2NFeHCH5CH4CH3SHSC2SHSHSHSCFeSC2HSNH3C2HC2FeSHSH2CSCH2CHCH2FeHNFeSH2C6H4S2CSCHFeHFeHC3H2C6H5C2HCH5CH4NFeCHCHC3HCH4SH2CH3CFeH4C2HCHCH9CSCH2SH7CHSH3CHSHC2HNSH2CHFeHFeCH2CH2SCHFeH3CFeH7CH4FeH3CH3C2H4FeSH2CH4SFeS2FeS2FeSFeS3CH2SNHSHFeCFeSCH7C4HCHCHCH3CHC2H2C2H3CH4C4H6C6H5C5H3CNC5H6CH5SH6CNH2CH2NH3CH2SH3CSH3CHSCHC4HCHC2HSH2S2CHCHCHC2HCHFeH2CH3NCHCHCH2CH2C2HCHSC2H3CFeCHCSH3FeCH2CH3CHC2H3CH3CH7CH2SFeS2C2HFeSH2SCHCFeCSCHC2HS2CH2SHSC2H3SH4C2FeH5CHSHC7HSH2SCHC2H4FeHC3HC2H2CHC6H2NC8H20NC5H3NH6SCH3FeHNH6CSHCHSFeCH3FeH3C2FeHCH4CHSHCSCH2CH2SH5CHCSH2SFeC2HCHSFeHCSCHC2H2CHCH4NH2SHSHFeC2FeHCH4CH3CHSFeHSHFe
_chemical_formula_sum              "Fe256 S512 C1792 H3072 N128"
_cell_length_a       39.6373
_cell_length_b       40.847
_cell_length_c       48.5825
_cell_angle_alpha    82.1224
_cell_angle_beta     81.2161
_cell_angle_gamma    89.8361

_space_group_name_H-M_alt    "P 1"
_space_group_IT_number       1

loop_
  _space_group_symop_operation_xyz
  'x, y, z'

loop_
  _atom_site_type_symbol
  _atom_site_label
  _atom_site_symmetry_multiplicity
  _atom_site_fract_x
  _atom_site_fract_y
  _atom_site_fract_z
  _atom_site_occupancy
  Fe  Fe1       1.0  0.34077  0.28397  0.01311  1.0000
  S   S1        1.0  0.34358  0.30275  0.05428  1.0000
  S   S2        1.0  0.29677  0.25765  0.00033  1.0000
  C   C1        1.0  0.19740  0.31633  0.03531  1.0000
  H   H1        1.0  0.19573  0.06448  0.00304  1.0000
  Fe  Fe2       1.0  0.39953  0.29025  0.04669  1.0000
  S   S3        1.0  0.43368  0.27394  0.07982  1.0000
  H   H2        1.0  0.15610  0.04338  0.20950  1.0000
  H   H3        1.0  0.32076  0.01785  0.01578  1.0000
  S   S4        1.0  0.39534  0.26725  0.00785  1.0000
  H   H4        1.0  0.07591  0.10648  0.00834  1.0000
  C   C2        1.0  0.01059  0.01898  0.98861  1.0000
  S   S5        1.0  0.34831  0.00087  0.21444  1.0000
  Fe  Fe3       1.0  0.41411  0.12794  0.02217  1.0000
  S   S6        1.0  0.37188  0.11259  0.00059  1.0000
  S   S7        1.0  0.40605  0.13467  0.06830  1.0000
  Fe  Fe4       1.0  0.40479  0.07077  0.98910  1.0000
  S   S8        1.0  0.04358  0.13446  0.06044  1.0000
  S   S9        1.0  0.41157  0.07296  0.18894  1.0000
  H   H5        1.0  0.02389  0.04879  0.07014  1.0000
  S   S10       1.0  0.44410  0.08276  0.01438  1.0000
  C   C3        1.0  0.41715  0.18713  0.21151  1.0000
  H   H6        1.0  0.05202  0.15536  0.97404  1.0000
  Fe  Fe5       1.0  0.08722  0.12962  0.08563  1.0000
  S   S11       1.0  0.09539  0.16288  0.11680  1.0000
  Fe  Fe6       1.0  0.38942  0.02487  0.18164  1.0000
  Fe  Fe7       1.0  0.14824  0.08725  0.09617  1.0000
  S   S12       1.0  0.16164  0.11624  0.12871  1.0000
  S   S13       1.0  0.18475  0.04751  0.08327  1.0000
  Fe  Fe8       1.0  0.10563  0.11675  0.14439  1.0000
  S   S14       1.0  0.08791  0.11928  0.19019  1.0000
  Fe  Fe9       1.0  0.15077  0.16089  0.09960  1.0000
  S   S15       1.0  0.18238  0.20529  0.10142  1.0000
  S   S16       1.0  0.09247  0.08257  0.11476  1.0000
  S   S17       1.0  0.14231  0.13231  0.06512  1.0000
  Fe  Fe10      1.0  0.29090  0.24429  0.16430  1.0000
  S   S18       1.0  0.25785  0.20177  0.18783  1.0000
  S   S19       1.0  0.31329  0.24666  0.11830  1.0000
  Fe  Fe11      1.0  0.22390  0.24055  0.20531  1.0000
  H   H7        1.0  0.07851  0.04569  0.00862  1.0000
  S   S20       1.0  0.32307  0.24815  0.19806  1.0000
  H   H8        1.0  0.42613  0.16261  0.16261  1.0000
  C   C4        1.0  0.15604  0.08335  0.97851  1.0000
  C   C5        1.0  0.25990  0.01199  0.12718  1.0000
  C   C6        1.0  0.10841  0.15421  0.19847  1.0000
  C   C7        1.0  0.13349  0.17175  0.17851  1.0000
  C   C8        1.0  0.15189  0.19792  0.18527  1.0000
  H   H9        1.0  0.40371  0.28173  0.13870  1.0000
  H   H10       1.0  0.25352  0.11691  0.02284  1.0000
  H   H11       1.0  0.13924  0.16526  0.15773  1.0000
  H   H12       1.0  0.17167  0.21074  0.16971  1.0000
  C   C9        1.0  0.20743  0.03246  0.11075  1.0000
  H   H13       1.0  0.39085  0.01214  0.09124  1.0000
  H   H14       1.0  0.16390  0.08671  0.02274  1.0000
  H   H15       1.0  0.46984  0.17629  0.14886  1.0000
  C   C10       1.0  0.26378  0.24417  0.02786  1.0000
  C   C11       1.0  0.26567  0.25058  0.05502  1.0000
  C   C12       1.0  0.24071  0.23800  0.07736  1.0000
  C   C13       1.0  0.21328  0.21937  0.07265  1.0000
  C   C14       1.0  0.21045  0.21361  0.04535  1.0000
  C   C15       1.0  0.23590  0.22594  0.02289  1.0000
  H   H16       1.0  0.28663  0.26474  0.05912  1.0000
  H   H17       1.0  0.24302  0.24246  0.09848  1.0000
  H   H18       1.0  0.18895  0.19954  0.04158  1.0000
  H   H19       1.0  0.23433  0.22088  0.00182  1.0000
  C   C16       1.0  0.34101  0.21648  0.10481  1.0000
  C   C17       1.0  0.34792  0.21618  0.07558  1.0000
  C   C18       1.0  0.36850  0.19184  0.06406  1.0000
  C   C19       1.0  0.38238  0.16732  0.08169  1.0000
  C   C20       1.0  0.37603  0.16776  0.11087  1.0000
  C   C21       1.0  0.35539  0.19217  0.12249  1.0000
  H   H20       1.0  0.33656  0.23416  0.06162  1.0000
  H   H21       1.0  0.37327  0.19187  0.04152  1.0000
  H   H22       1.0  0.38710  0.14894  0.12441  1.0000
  H   H23       1.0  0.35046  0.19206  0.14500  1.0000
  C   C22       1.0  0.03642  0.20874  0.00548  1.0000
  H   H24       1.0  0.01969  0.21662  0.02379  1.0000
  H   H25       1.0  0.46773  0.24882  0.99889  1.0000
  H   H26       1.0  0.11009  0.00838  0.03685  1.0000
  C   C23       1.0  0.10982  0.26491  0.09586  1.0000
  C   C24       1.0  0.29671  0.00363  0.02394  1.0000
  H   H27       1.0  0.23786  0.13564  0.18254  1.0000
  H   H28       1.0  0.11319  0.15232  0.97630  1.0000
  C   C25       1.0  0.11831  0.14142  0.99733  1.0000
  H   H29       1.0  0.36648  0.12213  0.16744  1.0000
  C   C26       1.0  0.46172  0.24013  0.07740  1.0000
  N   N1        1.0  0.28284  0.99000  0.00052  1.0000
  H   H30       1.0  0.48163  0.27414  0.19473  1.0000
  H   H31       1.0  0.42981  0.08997  0.11780  1.0000
  H   H32       1.0  0.20011  0.14985  0.20361  1.0000
  C   C27       1.0  0.45694  0.21544  0.06103  1.0000
  H   H33       1.0  0.45686  0.28085  0.16612  1.0000
  H   H34       1.0  0.03994  0.19155  0.09075  1.0000
  H   H35       1.0  0.19692  0.01713  0.18196  1.0000
  H   H36       1.0  0.43575  0.21678  0.04934  1.0000
  H   H37       1.0  0.42917  0.16242  0.21178  1.0000
  H   H38       1.0  0.32476  0.15864  0.19129  1.0000
  C   C28       1.0  0.10432  0.10563  0.00632  1.0000
  H   H39       1.0  0.10486  0.24027  0.08985  1.0000
  H   H40       1.0  0.48412  0.18099  0.19063  1.0000
  H   H41       1.0  0.44508  0.29953  0.19712  1.0000
  C   C29       1.0  0.01665  0.18985  0.08205  1.0000
  H   H42       1.0  0.40538  0.25327  0.20068  1.0000
  S   S21       1.0  0.36156  0.01853  0.14576  1.0000
  H   H43       1.0  0.38204  0.04055  0.04476  1.0000
  H   H44       1.0  0.19900  0.14123  0.16885  1.0000
  H   H45       1.0  0.03191  0.17124  0.16614  1.0000
  C   C30       1.0  0.17836  0.08581  0.00161  1.0000
  H   H46       1.0  0.41038  0.22396  0.16127  1.0000
  S   S22       1.0  0.25373  0.28299  0.17838  1.0000
  H   H47       1.0  0.41668  0.32079  0.14471  1.0000
  H   H48       1.0  0.05856  0.20439  0.17157  1.0000
  C   C31       1.0  0.01145  0.16376  0.06721  1.0000
  H   H49       1.0  0.16539  0.03826  0.14329  1.0000
  C   C32       1.0  0.24133  0.02213  0.10501  1.0000
  C   C33       1.0  0.99223  0.21473  0.08463  1.0000
  C   C34       1.0  0.47569  0.07579  0.09190  1.0000
  C   C35       1.0  0.38940  0.01491  0.04704  1.0000
  H   H50       1.0  0.03301  0.21068  0.14403  1.0000
  H   H51       1.0  0.18768  0.29294  0.02994  1.0000
  H   H52       1.0  0.11191  0.02793  0.98699  1.0000
  H   H53       1.0  0.34194  0.09514  0.08755  1.0000
  C   C36       1.0  0.24400  0.01086  0.15511  1.0000
  C   C37       1.0  0.39406  0.99789  0.02369  1.0000
  C   C38       1.0  0.47917  0.18846  0.06019  1.0000
  C   C39       1.0  0.19172  0.03108  0.13862  1.0000
  C   C40       1.0  0.20969  0.01950  0.16058  1.0000
  H   H54       1.0  0.47793  0.04543  0.21716  1.0000
  C   C41       1.0  0.39401  0.30439  0.14727  1.0000
  C   C42       1.0  0.33798  0.14018  0.20360  1.0000
  H   H55       1.0  0.46488  0.03590  0.05674  1.0000
  H   H56       1.0  0.01110  0.02393  0.11677  1.0000
  C   C43       1.0  0.39410  0.99873  0.07348  1.0000
  H   H57       1.0  0.16027  0.26283  0.07205  1.0000
  H   H58       1.0  0.20308  0.28904  0.08868  1.0000
  H   H59       1.0  0.29992  0.32059  0.11653  1.0000
  C   C44       1.0  0.47900  0.02306  0.07301  1.0000
  H   H60       1.0  0.28629  0.00493  0.12272  1.0000
  H   H61       1.0  0.14569  0.25772  0.97818  1.0000
  H   H62       1.0  0.22140  0.31170  0.04424  1.0000
  H   H63       1.0  0.38359  0.29779  0.16987  1.0000
  C   C45       1.0  0.37940  0.09618  0.20585  1.0000
  H   H64       1.0  0.42847  0.04805  0.11148  1.0000
  C   C46       1.0  0.36169  0.11968  0.19009  1.0000
  H   H65       1.0  0.19775  0.28425  0.13947  1.0000
  H   H66       1.0  0.25776  0.11004  0.21904  1.0000
  H   H67       1.0  0.25541  0.03521  0.99125  1.0000
  C   C47       1.0  0.44545  0.06753  0.11585  1.0000
  H   H68       1.0  0.07391  0.24870  0.00491  1.0000
  N   N2        1.0  0.11796  0.08073  0.98739  1.0000
  H   H69       1.0  0.24631  0.08128  0.04975  1.0000
  H   H70       1.0  0.09188  0.21276  0.99030  1.0000
  H   H71       1.0  0.24287  0.31609  0.97612  1.0000
  N   N3        1.0  0.02181  0.21945  0.97891  1.0000
  H   H72       1.0  0.34268  0.30392  0.14009  1.0000
  Fe  Fe12      1.0  0.40680  0.31829  0.98483  1.0000
  C   C48       1.0  0.43208  0.24717  0.20375  1.0000
  C   C49       1.0  0.18424  0.30513  0.09923  1.0000
  H   H73       1.0  0.01025  0.01734  0.16439  1.0000
  H   H74       1.0  0.20987  0.08157  0.18280  1.0000
  C   C50       1.0  0.19892  0.09686  0.19920  1.0000
  H   H75       1.0  0.01245  0.20664  0.20770  1.0000
  C   C51       1.0  0.10670  0.04648  0.00171  1.0000
  H   H76       1.0  0.07987  0.21161  0.02733  1.0000
  H   H77       1.0  0.45897  0.01007  0.08937  1.0000
  H   H78       1.0  0.45405  0.06034  0.13643  1.0000
  C   C52       1.0  0.00452  0.21115  0.18658  1.0000
  H   H79       1.0  0.11411  0.26075  0.11797  1.0000
  C   C53       1.0  0.45550  0.27668  0.18924  1.0000
  H   H80       1.0  0.01584  0.27144  0.01486  1.0000
  H   H81       1.0  0.31919  0.06683  0.11520  1.0000
  S   S23       1.0  0.44290  0.15886  0.98367  1.0000
  H   H82       1.0  0.19495  0.10833  0.99592  1.0000
  Fe  Fe13      1.0  0.32232  0.99068  0.17858  1.0000
  H   H83       1.0  0.39393  0.18493  0.20146  1.0000
  H   H84       1.0  0.01584  0.14691  0.21197  1.0000
  C   C54       1.0  0.43666  0.21578  0.16416  1.0000
  H   H85       1.0  0.15024  0.02648  0.02145  1.0000
  C   C55       1.0  0.20982  0.13297  0.18831  1.0000
  Fe  Fe14      1.0  0.28274  0.28289  0.21446  1.0000
  H   H86       1.0  0.48686  0.20942  0.99858  1.0000
  H   H87       1.0  0.43645  0.18775  0.12929  1.0000
  H   H88       1.0  0.31680  0.05340  0.97778  1.0000
  C   C56       1.0  0.12304  0.03232  0.02754  1.0000
  C   C57       1.0  0.00031  0.05750  0.06202  1.0000
  N   N4        1.0  0.28018  0.12909  0.07429  1.0000
  C   C58       1.0  0.24495  0.12926  0.06633  1.0000
  C   C59       1.0  0.28294  0.15624  0.09189  1.0000
  C   C60       1.0  0.28571  0.09577  0.09041  1.0000
  C   C61       1.0  0.30702  0.13493  0.04853  1.0000
  C   C62       1.0  0.23953  0.10733  0.04391  1.0000
  C   C63       1.0  0.25927  0.15279  0.12038  1.0000
  C   C64       1.0  0.31875  0.09219  0.10367  1.0000
  C   C65       1.0  0.30361  0.16688  0.02811  1.0000
  H   H89       1.0  0.22556  0.12089  0.08504  1.0000
  H   H90       1.0  0.23764  0.15472  0.05864  1.0000
  H   H91       1.0  0.27728  0.18057  0.08050  1.0000
  H   H92       1.0  0.30940  0.15865  0.09603  1.0000
  H   H93       1.0  0.26387  0.08860  0.10751  1.0000
  H   H94       1.0  0.28666  0.07623  0.07652  1.0000
  H   H95       1.0  0.33285  0.13610  0.05454  1.0000
  H   H96       1.0  0.30746  0.11378  0.03633  1.0000
  C   C66       1.0  0.14041  0.28166  0.07522  1.0000
  N   N5        1.0  0.44123  0.21392  0.19468  1.0000
  S   S24       1.0  0.38879  0.01831  0.99065  1.0000
  H   H97       1.0  0.23200  0.15337  0.11775  1.0000
  H   H98       1.0  0.26441  0.13025  0.13444  1.0000
  H   H99       1.0  0.26396  0.17436  0.13104  1.0000
  H   H100      1.0  0.21205  0.10750  0.04208  1.0000
  H   H101      1.0  0.32025  0.10939  0.11923  1.0000
  H   H102      1.0  0.01334  0.06622  0.12143  1.0000
  H   H103      1.0  0.27934  0.16780  0.01942  1.0000
  H   H104      1.0  0.32450  0.16839  0.00992  1.0000
  H   H105      1.0  0.30618  0.18934  0.03806  1.0000
  C   C67       1.0  0.27333  0.01857  0.98019  1.0000
  H   H106      1.0  0.45435  0.23433  0.15045  1.0000
  C   C68       1.0  0.07264  0.22143  0.00658  1.0000
  H   H107      1.0  0.16367  0.26262  0.13009  1.0000
  H   H108      1.0  0.14606  0.14348  0.99777  1.0000
  C   C69       1.0  0.04286  0.00850  0.97794  1.0000
  H   H109      1.0  0.00811  0.07693  0.04377  1.0000
  C   C70       1.0  0.44267  0.18345  0.15103  1.0000
  H   H110      1.0  0.25352  0.02287  0.08349  1.0000
  H   H111      1.0  0.27884  0.02176  0.03309  1.0000
  C   C71       1.0  0.03340  0.19839  0.16583  1.0000
  C   C72       1.0  0.47792  0.20569  0.19687  1.0000
  H   H112      1.0  0.48814  0.01743  0.12642  1.0000
  C   C73       1.0  0.00455  0.27576  0.99520  1.0000
  S   S25       1.0  0.11609  0.31387  0.00126  1.0000
  H   H113      1.0  0.15658  0.30231  0.14274  1.0000
  H   H114      1.0  0.17102  0.09567  0.19924  1.0000
  H   H115      1.0  0.10882  0.09829  0.02818  1.0000
  H   H116      1.0  0.37163  0.31192  0.10909  1.0000
  H   H117      1.0  0.03661  0.18140  0.01002  1.0000
  H   H118      1.0  0.12017  0.04823  0.04442  1.0000
  C   C74       1.0  0.17430  0.28771  0.12954  1.0000
  C   C75       1.0  0.14439  0.20776  0.21184  1.0000
  H   H119      1.0  0.31511  0.99106  0.06395  1.0000
  N   N6        1.0  0.15565  0.31288  0.08226  1.0000
  H   H120      1.0  0.47345  0.12406  0.18767  1.0000
  H   H121      1.0  0.13072  0.28645  0.05475  1.0000
  H   H122      1.0  0.18485  0.31992  0.18353  1.0000
  H   H123      1.0  0.08628  0.27942  0.09435  1.0000
  S   S26       1.0  0.16721  0.24086  0.22013  1.0000
  H   H124      1.0  0.47474  0.16919  0.04786  1.0000
  H   H125      1.0  0.47796  0.30211  0.00192  1.0000
  H   H126      1.0  0.46431  0.08626  0.07309  1.0000
  H   H127      1.0  0.00451  0.23859  0.18133  1.0000
  H   H128      1.0  0.10560  0.15707  0.01266  1.0000
  S   S27       1.0  0.26552  0.99913  0.18404  1.0000
  H   H129      1.0  0.11589  0.31874  0.11725  1.0000
  H   H130      1.0  0.99670  0.23511  0.09574  1.0000
  Fe  Fe15      1.0  0.46953  0.11177  0.97438  1.0000
  S   S28       1.0  0.00042  0.06051  0.97959  1.0000
  H   H131      1.0  0.47571  0.04624  0.97284  1.0000
  H   H132      1.0  0.25857  0.07187  0.20502  1.0000
  H   H133      1.0  0.00756  0.30266  0.98755  1.0000
  H   H134      1.0  0.99426  0.05706  0.16864  1.0000
  C   C76       1.0  0.36610  0.31882  0.13073  1.0000
  H   H135      1.0  0.48750  0.08510  0.17692  1.0000
  H   H136      1.0  0.21334  0.00739  0.01986  1.0000
  C   C77       1.0  0.99608  0.04398  0.12596  1.0000
  C   C78       1.0  0.48959  0.23803  0.09230  1.0000
  H   H137      1.0  0.23062  0.98943  0.05073  1.0000
  H   H138      1.0  0.49023  0.09684  0.09692  1.0000
  H   H139      1.0  0.38309  0.21063  0.24294  1.0000
  H   H140      1.0  0.15609  0.01179  0.23843  1.0000
  H   H141      1.0  0.14580  0.09528  0.44735  1.0000
  H   H142      1.0  0.41045  0.17527  0.38008  1.0000
  H   H143      1.0  0.03805  0.05644  0.38247  1.0000
  C   C79       1.0  0.46798  0.04686  0.43576  1.0000
  H   H144      1.0  0.00141  0.12093  0.42151  1.0000
  C   C80       1.0  0.11150  0.11858  0.41980  1.0000
  H   H145      1.0  0.11654  0.01011  0.46927  1.0000
  N   N7        1.0  0.07565  0.11760  0.41288  1.0000
  S   S29       1.0  0.30355  0.16339  0.25039  1.0000
  C   C81       1.0  0.45736  0.07634  0.27132  1.0000
  S   S30       1.0  0.24696  0.18752  0.44339  1.0000
  H   H146      1.0  0.42583  0.13420  0.38871  1.0000
  H   H147      1.0  0.15699  0.99127  0.46258  1.0000
  H   H148      1.0  0.45547  0.09680  0.22929  1.0000
  H   H149      1.0  0.14091  0.05139  0.24487  1.0000
  H   H150      1.0  0.09037  0.14391  0.37109  1.0000
  C   C82       1.0  0.48148  0.31493  0.46395  1.0000
  Fe  Fe16      1.0  0.19574  0.21119  0.44528  1.0000
  S   S31       1.0  0.18433  0.24541  0.40782  1.0000
  H   H151      1.0  0.27833  0.30766  0.33423  1.0000
  H   H152      1.0  0.99813  0.12819  0.45703  1.0000
  Fe  Fe17      1.0  0.09883  0.00869  0.33649  1.0000
  S   S32       1.0  0.12769  0.01992  0.37042  1.0000
  S   S33       1.0  0.05062  0.03397  0.32792  1.0000
  C   C83       1.0  0.33540  0.19861  0.39412  1.0000
  S   S34       1.0  0.02618  0.27033  0.41872  1.0000
  Fe  Fe18      1.0  0.17381  0.02153  0.33725  1.0000
  S   S35       1.0  0.21322  0.06208  0.33193  1.0000
  C   C84       1.0  0.47494  0.09597  0.24357  1.0000
  S   S36       1.0  0.14413  0.01523  0.30282  1.0000
  H   H153      1.0  0.35475  0.19066  0.37762  1.0000
  C   C85       1.0  0.12180  0.08891  0.43990  1.0000
  H   H154      1.0  0.32284  0.31573  0.32504  1.0000
  Fe  Fe19      1.0  0.02784  0.21579  0.33268  1.0000
  H   H155      1.0  0.20179  0.09137  0.27079  1.0000
  S   S37       1.0  0.07436  0.18782  0.31752  1.0000
  C   C86       1.0  0.45629  0.03277  0.41421  1.0000
  S   S38       1.0  0.42524  0.25037  0.39390  1.0000
  S   S39       1.0  0.44221  0.22019  0.32049  1.0000
  S   S40       1.0  0.25146  0.24239  0.24180  1.0000
  H   H156      1.0  0.02623  0.08045  0.24630  1.0000
  C   C87       1.0  0.43797  0.23821  0.42670  1.0000
  H   H157      1.0  0.32408  0.20070  0.43817  1.0000
  H   H158      1.0  0.38362  0.13893  0.38211  1.0000
  H   H159      1.0  0.29213  0.06985  0.24276  1.0000
  H   H160      1.0  0.25726  0.04153  0.25447  1.0000
  C   C88       1.0  0.05736  0.07693  0.32214  1.0000
  C   C89       1.0  0.02973  0.09813  0.32025  1.0000
  C   C90       1.0  0.03465  0.13245  0.31852  1.0000
  C   C91       1.0  0.06746  0.14551  0.31752  1.0000
  C   C92       1.0  0.09527  0.12439  0.31800  1.0000
  C   C93       1.0  0.09014  0.09014  0.32087  1.0000
  N   N8        1.0  0.20898  0.08325  0.22722  1.0000
  H   H161      1.0  0.40229  0.26991  0.44771  1.0000
  H   H162      1.0  0.12067  0.13445  0.31711  1.0000
  H   H163      1.0  0.11156  0.07400  0.32245  1.0000
  H   H164      1.0  0.19970  0.03896  0.25762  1.0000
  H   H165      1.0  0.14409  0.09289  0.27303  1.0000
  Fe  Fe20      1.0  0.00887  0.25746  0.37965  1.0000
  H   H166      1.0  0.30524  0.30773  0.36138  1.0000
  C   C94       1.0  0.14068  0.25385  0.41181  1.0000
  C   C95       1.0  0.11945  0.24422  0.43744  1.0000
  C   C96       1.0  0.08427  0.25017  0.43989  1.0000
  H   H167      1.0  0.13011  0.23242  0.45541  1.0000
  C   C97       1.0  0.24759  0.08416  0.22347  1.0000
  H   H168      1.0  0.38604  0.07423  0.24752  1.0000
  H   H169      1.0  0.42255  0.19723  0.25474  1.0000
  H   H170      1.0  0.04686  0.14746  0.38429  1.0000
  C   C98       1.0  0.22431  0.08207  0.42024  1.0000
  C   C99       1.0  0.21264  0.05118  0.41587  1.0000
  C   C100      1.0  0.20945  0.04503  0.38872  1.0000
  C   C101      1.0  0.21918  0.06932  0.36566  1.0000
  C   C102      1.0  0.23257  0.09966  0.36981  1.0000
  C   C103      1.0  0.23438  0.10637  0.39720  1.0000
  H   H171      1.0  0.20562  0.03208  0.43354  1.0000
  H   H172      1.0  0.19970  0.02131  0.38566  1.0000
  H   H173      1.0  0.24072  0.11824  0.35193  1.0000
  H   H174      1.0  0.24396  0.13009  0.40046  1.0000
  C   C104      1.0  0.12679  0.26949  0.38881  1.0000
  H   H175      1.0  0.10215  0.08239  0.45868  1.0000
  H   H176      1.0  0.48590  0.30109  0.44569  1.0000
  H   H177      1.0  0.40275  0.12972  0.43533  1.0000
  H   H178      1.0  0.43236  0.04051  0.40749  1.0000
  H   H179      1.0  0.11547  0.14076  0.42993  1.0000
  H   H180      1.0  0.02712  0.09897  0.37947  1.0000
  C   C105      1.0  0.07029  0.26469  0.41645  1.0000
  C   C106      1.0  0.40286  0.19127  0.24227  1.0000
  C   C107      1.0  0.08033  0.18096  0.39850  1.0000
  H   H181      1.0  0.34360  0.10995  0.27150  1.0000
  C   C108      1.0  0.15721  0.11024  0.25503  1.0000
  H   H182      1.0  0.14298  0.27780  0.36919  1.0000
  H   H183      1.0  0.01549  0.15958  0.42951  1.0000
  H   H184      1.0  0.39006  0.16786  0.25309  1.0000
  C   C109      1.0  0.33238  0.13274  0.42663  1.0000
  Fe  Fe21      1.0  0.47776  0.25930  0.29471  1.0000
  C   C110      1.0  0.34856  0.11264  0.24876  1.0000
  H   H185      1.0  0.13063  0.12061  0.40023  1.0000
  C   C111      1.0  0.46257  0.21399  0.43005  1.0000
  C   C112      1.0  0.01465  0.13258  0.43617  1.0000
  H   H186      1.0  0.07670  0.06395  0.41573  1.0000
  N   N9        1.0  0.18774  0.21071  0.32451  1.0000
  C   C113      1.0  0.20544  0.23994  0.33241  1.0000
  C   C114      1.0  0.16447  0.19459  0.35025  1.0000
  C   C115      1.0  0.16637  0.22130  0.30174  1.0000
  C   C116      1.0  0.21446  0.18713  0.31403  1.0000
  C   C117      1.0  0.22810  0.26152  0.30818  1.0000
  C   C118      1.0  0.18231  0.17538  0.37350  1.0000
  C   C119      1.0  0.14163  0.24981  0.30705  1.0000
  C   C120      1.0  0.20073  0.15500  0.30606  1.0000
  H   H187      1.0  0.18670  0.25639  0.34267  1.0000
  H   H188      1.0  0.22217  0.23200  0.34837  1.0000
  H   H189      1.0  0.14581  0.17728  0.34459  1.0000
  H   H190      1.0  0.14850  0.21348  0.36023  1.0000
  H   H191      1.0  0.18260  0.22829  0.28097  1.0000
  H   H192      1.0  0.15014  0.20036  0.29853  1.0000
  H   H193      1.0  0.23123  0.19909  0.29489  1.0000
  H   H194      1.0  0.23182  0.18018  0.32977  1.0000
  H   H195      1.0  0.23530  0.28467  0.31547  1.0000
  H   H196      1.0  0.25214  0.24892  0.30134  1.0000
  H   H197      1.0  0.21466  0.26911  0.29012  1.0000
  H   H198      1.0  0.16507  0.17291  0.39390  1.0000
  H   H199      1.0  0.18827  0.15012  0.36879  1.0000
  H   H200      1.0  0.20593  0.18760  0.37683  1.0000
  H   H201      1.0  0.15524  0.27347  0.30705  1.0000
  H   H202      1.0  0.12347  0.24385  0.32686  1.0000
  H   H203      1.0  0.12611  0.25381  0.28969  1.0000
  H   H204      1.0  0.18452  0.14005  0.32392  1.0000
  H   H205      1.0  0.22268  0.13949  0.29915  1.0000
  H   H206      1.0  0.18619  0.16026  0.28830  1.0000
  C   C121      1.0  0.35181  0.15430  0.46582  1.0000
  H   H207      1.0  0.31036  0.18662  0.39393  1.0000
  H   H208      1.0  0.25754  0.08126  0.26735  1.0000
  H   H209      1.0  0.47853  0.12189  0.24755  1.0000
  H   H210      1.0  0.36713  0.21046  0.42351  1.0000
  C   C122      1.0  0.09164  0.27417  0.39096  1.0000
  Fe  Fe22      1.0  0.46182  0.23701  0.35729  1.0000
  C   C123      1.0  0.07169  0.08592  0.40081  1.0000
  C   C124      1.0  0.34604  0.19251  0.42361  1.0000
  H   H211      1.0  0.09072  0.08536  0.38145  1.0000
  H   H212      1.0  0.06081  0.13421  0.45352  1.0000
  C   C125      1.0  0.19587  0.10353  0.25018  1.0000
  H   H213      1.0  0.20978  0.12775  0.24711  1.0000
  S   S41       1.0  0.03872  0.26848  0.33651  1.0000
  C   C126      1.0  0.39312  0.15209  0.42345  1.0000
  H   H214      1.0  0.40939  0.17218  0.42786  1.0000
  H   H215      1.0  0.33517  0.02576  0.30149  1.0000
  C   C127      1.0  0.19732  0.04759  0.23528  1.0000
  C   C128      1.0  0.33168  0.13691  0.23298  1.0000
  H   H216      1.0  0.15292  0.13578  0.26002  1.0000
  C   C129      1.0  0.02197  0.05350  0.25328  1.0000
  C   C130      1.0  0.07258  0.14659  0.39066  1.0000
  C   C131      1.0  0.05049  0.11880  0.43937  1.0000
  C   C132      1.0  0.31713  0.01455  0.28988  1.0000
  S   S42       1.0  0.48558  0.13371  0.31400  1.0000
  H   H217      1.0  0.11190  0.19930  0.25215  1.0000
  S   S43       1.0  0.44164  0.07475  0.45295  1.0000
  N   N10       1.0  0.35611  0.15782  0.43410  1.0000
  H   H218      1.0  0.42623  0.30369  0.31136  1.0000
  H   H219      1.0  0.41321  0.32108  0.46088  1.0000
  H   H220      1.0  0.03774  0.04731  0.27014  1.0000
  H   H221      1.0  0.04655  0.09367  0.45150  1.0000
  H   H222      1.0  0.06790  0.24287  0.45972  1.0000
  H   H223      1.0  0.06599  0.18543  0.41900  1.0000
  H   H224      1.0  0.01313  0.14875  0.31806  1.0000
  H   H225      1.0  0.08090  0.15135  0.24064  1.0000
  H   H226      1.0  0.07359  0.20048  0.38209  1.0000
  H   H227      1.0  0.10779  0.18472  0.39899  1.0000
  H   H228      1.0  0.30549  0.13725  0.43580  1.0000
  S   S44       1.0  0.16613  0.16383  0.46090  1.0000
  H   H229      1.0  0.33222  0.22561  0.38836  1.0000
  C   C133      1.0  0.40328  0.15032  0.39177  1.0000
  H   H230      1.0  0.29708  0.00172  0.34558  1.0000
  C   C134      1.0  0.03643  0.07853  0.39356  1.0000
  H   H231      1.0  0.33216  0.13503  0.40369  1.0000
  H   H232      1.0  0.35010  0.99445  0.46657  1.0000
  C   C135      1.0  0.33981  0.09617  0.43615  1.0000
  C   C136      1.0  0.47127  0.20360  0.45672  1.0000
  H   H233      1.0  0.32232  0.08031  0.42763  1.0000
  H   H234      1.0  0.14416  0.10881  0.23677  1.0000
  C   C137      1.0  0.26395  0.06811  0.24875  1.0000
  S   S45       1.0  0.46575  0.29462  0.25777  1.0000
  H   H235      1.0  0.44688  0.31743  0.41702  1.0000
  H   H236      1.0  0.32399  0.02556  0.26754  1.0000
  H   H237      1.0  0.44604  0.05284  0.26760  1.0000
  S   S46       1.0  0.22641  0.08929  0.45471  1.0000
  H   H238      1.0  0.43237  0.24706  0.22657  1.0000
  H   H239      1.0  0.29144  0.02308  0.29756  1.0000
  H   H240      1.0  0.47386  0.20225  0.41243  1.0000
  H   H241      1.0  0.33464  0.08979  0.45935  1.0000
  H   H242      1.0  0.12761  0.06702  0.42884  1.0000
  H   H243      1.0  0.00438  0.08797  0.32111  1.0000
  H   H244      1.0  0.22083  0.31024  0.25082  1.0000
  S   S47       1.0  0.00138  0.20396  0.37705  1.0000
  H   H245      1.0  0.36630  0.08955  0.42808  1.0000
  H   H246      1.0  0.08128  0.28571  0.37293  1.0000
  C   C138      1.0  0.42232  0.25218  0.45002  1.0000
  H   H247      1.0  0.01761  0.07166  0.41282  1.0000
  C   C139      1.0  0.11811  0.19149  0.23158  1.0000
  H   H248      1.0  0.43579  0.09102  0.28031  1.0000
  H   H249      1.0  0.22969  0.30579  0.36188  1.0000
  H   H250      1.0  0.48410  0.22889  0.23441  1.0000
  C   C140      1.0  0.37257  0.09246  0.23523  1.0000
  H   H251      1.0  0.15566  0.03276  0.47030  1.0000
  H   H252      1.0  0.39286  0.00703  0.45364  1.0000
  C   C141      1.0  0.48851  0.20503  0.22612  1.0000
  H   H253      1.0  0.99105  0.01097  0.31099  1.0000
  Fe  Fe23      1.0  0.21742  0.14152  0.46331  1.0000
  C   C142      1.0  0.47462  0.00755  0.40221  1.0000
  Fe  Fe24      1.0  0.48820  0.18769  0.31853  1.0000
  H   H254      1.0  0.21432  0.03136  0.22284  1.0000
  H   H255      1.0  0.36449  0.20568  0.47093  1.0000
  H   H256      1.0  0.46477  0.99583  0.38634  1.0000
  H   H257      1.0  0.47545  0.18469  0.24139  1.0000
  H   H258      1.0  0.00620  0.99303  0.23821  1.0000
  C   C143      1.0  0.10043  0.16444  0.22503  1.0000
  H   H259      1.0  0.25332  0.99959  0.33917  1.0000
  C   C144      1.0  0.16050  0.03876  0.23166  1.0000
  C   C145      1.0  0.30011  0.31979  0.34061  1.0000
  H   H260      1.0  0.04185  0.99373  0.27506  1.0000
  H   H261      1.0  0.47431  0.07181  0.28750  1.0000
  H   H262      1.0  0.03137  0.04111  0.23478  1.0000
  H   H263      1.0  0.48928  0.18402  0.45949  1.0000
  H   H264      1.0  0.24995  0.99028  0.29704  1.0000
  Fe  Fe25      1.0  0.28803  0.20745  0.22228  1.0000
  H   H265      1.0  0.30176  0.28340  0.56375  1.0000
  S   S48       1.0  0.21893  0.27104  0.59529  1.0000
  H   H266      1.0  0.23319  0.20953  0.62720  1.0000
  C   C146      1.0  0.45721  0.13376  0.66767  1.0000
  H   H267      1.0  0.32223  0.99368  0.65181  1.0000
  H   H268      1.0  0.13991  0.31872  0.53862  1.0000
  H   H269      1.0  0.20496  0.17964  0.67269  1.0000
  S   S49       1.0  0.42484  0.25876  0.60393  1.0000
  H   H270      1.0  0.15703  0.28416  0.63184  1.0000
  H   H271      1.0  0.29472  0.17404  0.55915  1.0000
  Fe  Fe26      1.0  0.42439  0.09074  0.55371  1.0000
  S   S50       1.0  0.41918  0.12263  0.51345  1.0000
  H   H272      1.0  0.05638  0.01064  0.56647  1.0000
  C   C147      1.0  0.31429  0.26936  0.58050  1.0000
  Fe  Fe27      1.0  0.46534  0.15004  0.51979  1.0000
  H   H273      1.0  0.14728  0.21085  0.60375  1.0000
  S   S51       1.0  0.46751  0.12156  0.56214  1.0000
  S   S52       1.0  0.29403  0.21452  0.50037  1.0000
  S   S53       1.0  0.46691  0.20523  0.51313  1.0000
  H   H274      1.0  0.09727  0.28242  0.62799  1.0000
  H   H275      1.0  0.35343  0.24282  0.61694  1.0000
  C   C148      1.0  0.08758  0.14817  0.53641  1.0000
  C   C149      1.0  0.02680  0.14114  0.55267  1.0000
  C   C150      1.0  0.02333  0.12161  0.53185  1.0000
  C   C151      1.0  0.05260  0.11383  0.51392  1.0000
  C   C152      1.0  0.08471  0.12790  0.51567  1.0000
  H   H276      1.0  0.05020  0.09790  0.49837  1.0000
  H   H277      1.0  0.10706  0.12320  0.50109  1.0000
  H   H278      1.0  0.12825  0.25406  0.67696  1.0000
  H   H279      1.0  0.37948  0.29286  0.51496  1.0000
  C   C153      1.0  0.42595  0.25744  0.69730  1.0000
  H   H280      1.0  0.06066  0.16771  0.57241  1.0000
  C   C154      1.0  0.41852  0.28750  0.65208  1.0000
  C   C155      1.0  0.42381  0.25838  0.63994  1.0000
  C   C156      1.0  0.32258  0.03473  0.59065  1.0000
  H   H281      1.0  0.05840  0.26439  0.62096  1.0000
  S   S54       1.0  0.14428  0.19271  0.70957  1.0000
  H   H282      1.0  0.34165  0.27673  0.57613  1.0000
  C   C157      1.0  0.07607  0.28591  0.61547  1.0000
  H   H283      1.0  0.29325  0.17287  0.61103  1.0000
  H   H284      1.0  0.02383  0.27866  0.58027  1.0000
  C   C158      1.0  0.41931  0.28696  0.68091  1.0000
  C   C159      1.0  0.16459  0.21470  0.67779  1.0000
  C   C160      1.0  0.19451  0.20250  0.66387  1.0000
  C   C161      1.0  0.21049  0.21942  0.63812  1.0000
  C   C162      1.0  0.19748  0.24935  0.62679  1.0000
  C   C163      1.0  0.16764  0.26155  0.64077  1.0000
  C   C164      1.0  0.15106  0.24416  0.66612  1.0000
  S   S55       1.0  0.37539  0.08003  0.58426  1.0000
  C   C165      1.0  0.35365  0.29031  0.51126  1.0000
  H   H285      1.0  0.38562  0.16081  0.57911  1.0000
  H   H286      1.0  0.06057  0.30689  0.62243  1.0000
  H   H287      1.0  0.33719  0.15705  0.55645  1.0000
  H   H288      1.0  0.99468  0.08344  0.63802  1.0000
  C   C166      1.0  0.35813  0.04002  0.58560  1.0000
  H   H289      1.0  0.41607  0.19165  0.56181  1.0000
  H   H290      1.0  0.26047  0.27946  0.49789  1.0000
  H   H291      1.0  0.36443  0.03851  0.49033  1.0000
  H   H292      1.0  0.31840  0.22738  0.66187  1.0000
  C   C167      1.0  0.45653  0.21847  0.47980  1.0000
  H   H293      1.0  0.16413  0.26884  0.71416  1.0000
  H   H294      1.0  0.06923  0.22372  0.55666  1.0000
  C   C168      1.0  0.34169  0.25951  0.50689  1.0000
  C   C169      1.0  0.08971  0.29403  0.58377  1.0000
  H   H295      1.0  0.00287  0.24056  0.47494  1.0000
  H   H296      1.0  0.29906  0.19287  0.65103  1.0000
  H   H297      1.0  0.35920  0.20073  0.62897  1.0000
  H   H298      1.0  0.33499  0.15696  0.60916  1.0000
  S   S56       1.0  0.02288  0.14892  0.64267  1.0000
  H   H299      1.0  0.47860  0.05761  0.68891  1.0000
  H   H300      1.0  0.18032  0.04451  0.54451  1.0000
  H   H301      1.0  0.06493  0.05307  0.54996  1.0000
  S   S57       1.0  0.12615  0.16771  0.53969  1.0000
  Fe  Fe28      1.0  0.16964  0.17682  0.50357  1.0000
  H   H302      1.0  0.32431  0.15567  0.47491  1.0000
  C   C170      1.0  0.99972  0.21088  0.51524  1.0000
  Fe  Fe29      1.0  0.45634  0.08893  0.49266  1.0000
  C   C171      1.0  0.31861  0.17420  0.59745  1.0000
  H   H303      1.0  0.17972  0.08091  0.51980  1.0000
  C   C172      1.0  0.05873  0.15334  0.55559  1.0000
  C   C173      1.0  0.12668  0.24639  0.57371  1.0000
  H   H304      1.0  0.35862  0.23882  0.50746  1.0000
  N   N11       1.0  0.33307  0.20899  0.59257  1.0000
  H   H305      1.0  0.10703  0.19831  0.59617  1.0000
  S   S58       1.0  0.99097  0.19574  0.70611  1.0000
  C   C174      1.0  0.18279  0.99837  0.66660  1.0000
  Fe  Fe30      1.0  0.24441  0.20003  0.48728  1.0000
  H   H306      1.0  0.10965  0.22971  0.61880  1.0000
  H   H307      1.0  0.42023  0.25373  0.49448  1.0000
  H   H308      1.0  0.15700  0.15016  0.64525  1.0000
  H   H309      1.0  0.14751  0.26348  0.57631  1.0000
  C   C175      1.0  0.34071  0.21806  0.62007  1.0000
  C   C176      1.0  0.30732  0.23205  0.58086  1.0000
  H   H310      1.0  0.40296  0.19002  0.59848  1.0000
  C   C177      1.0  0.12181  0.21994  0.59976  1.0000
  H   H311      1.0  0.41438  0.31051  0.63925  1.0000
  Fe  Fe31      1.0  0.03311  0.17364  0.67891  1.0000
  H   H312      1.0  0.11965  0.17400  0.64952  1.0000
  S   S59       1.0  0.01013  0.28975  0.69879  1.0000
  C   C178      1.0  0.42901  0.22870  0.65656  1.0000
  C   C179      1.0  0.30803  0.25515  0.50237  1.0000
  H   H313      1.0  0.28149  0.22645  0.59313  1.0000
  H   H314      1.0  0.13743  0.23296  0.55594  1.0000
  H   H315      1.0  0.41600  0.30957  0.69022  1.0000
  H   H316      1.0  0.30200  0.13411  0.57714  1.0000
  S   S60       1.0  0.21921  0.15146  0.50723  1.0000
  C   C180      1.0  0.28661  0.28249  0.50113  1.0000
  C   C181      1.0  0.30976  0.21813  0.64358  1.0000
  C   C182      1.0  0.37957  0.01336  0.58145  1.0000
  C   C183      1.0  0.03083  0.25984  0.56607  1.0000
  H   H317      1.0  0.10247  0.25925  0.52275  1.0000
  H   H318      1.0  0.12455  0.14116  0.67592  1.0000
  H   H319      1.0  0.45370  0.11319  0.62967  1.0000
  N   N12       1.0  0.12102  0.01464  0.52746  1.0000
  C   C184      1.0  0.36565  0.21169  0.57174  1.0000
  H   H320      1.0  0.43290  0.20623  0.64713  1.0000
  H   H321      1.0  0.37750  0.23675  0.56930  1.0000
  S   S61       1.0  0.45840  0.05449  0.53255  1.0000
  H   H322      1.0  0.28939  0.23470  0.63714  1.0000
  H   H323      1.0  0.36042  0.20874  0.55041  1.0000
  C   C185      1.0  0.31301  0.15949  0.57080  1.0000
  H   H324      1.0  0.08185  0.29626  0.53032  1.0000
  C   C186      1.0  0.06467  0.24286  0.57100  1.0000
  H   H325      1.0  0.05966  0.22863  0.59238  1.0000
  H   H326      1.0  0.40697  0.01696  0.57834  1.0000
  H   H327      1.0  0.43429  0.20529  0.69793  1.0000
  C   C187      1.0  0.12466  0.99880  0.55668  1.0000
  H   H328      1.0  0.45339  0.02841  0.66037  1.0000
  H   H329      1.0  0.43924  0.08699  0.66178  1.0000
  C   C188      1.0  0.10245  0.27941  0.53611  1.0000
  H   H330      1.0  0.30509  0.22821  0.55901  1.0000
  H   H331      1.0  0.47679  0.15342  0.65950  1.0000
  H   H332      1.0  0.30588  0.05526  0.59403  1.0000
  H   H333      1.0  0.02925  0.03640  0.65601  1.0000
  H   H334      1.0  0.00307  0.21652  0.64364  1.0000
  N   N13       1.0  0.09558  0.26551  0.56696  1.0000
  C   C189      1.0  0.39368  0.18687  0.57862  1.0000
  S   S62       1.0  0.06716  0.21820  0.67311  1.0000
  H   H335      1.0  0.43651  0.04980  0.63026  1.0000
  C   C190      1.0  0.43021  0.22826  0.68520  1.0000
  Fe  Fe32      1.0  0.08729  0.19307  0.71095  1.0000
  H   H336      1.0  0.28117  0.99941  0.59336  1.0000
  N   N14       1.0  0.12648  0.09610  0.62823  1.0000
  C   C191      1.0  0.09977  0.07058  0.62618  1.0000
  C   C192      1.0  0.14924  0.08035  0.64833  1.0000
  C   C193      1.0  0.14714  0.10438  0.59933  1.0000
  C   C194      1.0  0.10866  0.12608  0.63803  1.0000
  C   C195      1.0  0.07505  0.08074  0.60492  1.0000
  C   C196      1.0  0.13094  0.06620  0.67798  1.0000
  C   C197      1.0  0.17712  0.12913  0.59617  1.0000
  C   C198      1.0  0.12930  0.14851  0.65280  1.0000
  H   H337      1.0  0.11192  0.04720  0.62083  1.0000
  H   H338      1.0  0.08331  0.06380  0.64681  1.0000
  H   H339      1.0  0.16937  0.09762  0.65137  1.0000
  H   H340      1.0  0.16369  0.05995  0.63932  1.0000
  H   H341      1.0  0.15764  0.08139  0.59152  1.0000
  H   H342      1.0  0.13083  0.11546  0.58401  1.0000
  H   H343      1.0  0.09930  0.14170  0.62019  1.0000
  H   H344      1.0  0.08559  0.11809  0.65367  1.0000
  H   H345      1.0  0.05472  0.06144  0.60749  1.0000
  H   H346      1.0  0.06227  0.10431  0.60833  1.0000
  H   H347      1.0  0.08802  0.08249  0.58290  1.0000
  H   H348      1.0  0.11255  0.08366  0.68725  1.0000
  H   H349      1.0  0.11743  0.04251  0.67766  1.0000
  H   H350      1.0  0.15018  0.06053  0.69226  1.0000
  H   H351      1.0  0.19578  0.12151  0.61050  1.0000
  H   H352      1.0  0.16784  0.15439  0.59848  1.0000
  H   H353      1.0  0.19123  0.13074  0.57441  1.0000
  Fe  Fe33      1.0  0.02771  0.23758  0.70439  1.0000
  H   H354      1.0  0.00989  0.24095  0.57079  1.0000
  H   H355      1.0  0.07204  0.31213  0.57475  1.0000
  H   H356      1.0  0.12127  0.06362  0.53982  1.0000
  C   C199      1.0  0.13656  0.29876  0.52600  1.0000
  H   H357      1.0  0.20529  0.01240  0.65601  1.0000
  C   C200      1.0  0.15731  0.99075  0.65124  1.0000
  H   H358      1.0  0.30165  0.27802  0.60013  1.0000
  S   S63       1.0  0.43144  0.31934  0.53642  1.0000
  H   H359      1.0  0.11373  0.01422  0.57297  1.0000
  H   H360      1.0  0.18909  0.04270  0.50695  1.0000
  N   N15       1.0  0.20692  0.30033  0.71756  1.0000
  C   C201      1.0  0.21782  0.30244  0.68621  1.0000
  H   H361      1.0  0.02535  0.22075  0.51674  1.0000
  C   C202      1.0  0.05854  0.02778  0.54646  1.0000
  C   C203      1.0  0.33231  0.31754  0.51078  1.0000
  H   H362      1.0  0.29909  0.02379  0.66980  1.0000
  C   C204      1.0  0.46028  0.10424  0.65091  1.0000
  Fe  Fe34      1.0  0.42469  0.31088  0.58316  1.0000
  H   H363      1.0  0.42264  0.01183  0.49112  1.0000
  S   S64       1.0  0.19481  0.22682  0.48793  1.0000
  C   C205      1.0  0.01194  0.04946  0.67080  1.0000
  H   H364      1.0  0.24909  0.28047  0.65314  1.0000
  C   C206      1.0  0.24482  0.27751  0.67651  1.0000
  H   H365      1.0  0.03135  0.27124  0.54395  1.0000
  C   C207      1.0  0.37445  0.02813  0.50970  1.0000
  H   H366      1.0  0.38806  0.04863  0.51648  1.0000
  C   C208      1.0  0.31038  0.99889  0.67294  1.0000
  C   C209      1.0  0.13454  0.04975  0.52329  1.0000
  H   H367      1.0  0.13701  0.31045  0.50391  1.0000
  H   H368      1.0  0.15210  0.99731  0.55900  1.0000
  C   C210      1.0  0.17311  0.05408  0.52376  1.0000
  C   C211      1.0  0.29889  0.31373  0.50508  1.0000
  H   H369      1.0  0.39934  0.17735  0.47318  1.0000
  H   H370      1.0  0.15883  0.28223  0.52614  1.0000
  H   H371      1.0  0.11367  0.30870  0.58232  1.0000
  H   H372      1.0  0.40815  0.99053  0.52521  1.0000
  H   H373      1.0  0.00244  0.03191  0.68987  1.0000
  H   H374      1.0  0.00444  0.14758  0.56627  1.0000
  H   H375      1.0  0.46325  0.01500  0.62654  1.0000
  H   H376      1.0  0.23634  0.25162  0.68418  1.0000
  C   C212      1.0  0.45909  0.03717  0.63750  1.0000
  H   H377      1.0  0.19546  0.29897  0.67554  1.0000
  C   C213      1.0  0.30857  0.00316  0.59032  1.0000
  H   H378      1.0  0.00396  0.18622  0.50852  1.0000
  H   H379      1.0  0.08114  0.03164  0.50315  1.0000
  S   S65       1.0  0.16368  0.99958  0.61464  1.0000
  H   H380      1.0  0.36465  0.17610  0.50140  1.0000
  H   H381      1.0  0.36054  0.12979  0.47482  1.0000
  C   C214      1.0  0.39967  0.99981  0.50473  1.0000
  H   H382      1.0  0.43208  0.14535  0.66607  1.0000
  H   H383      1.0  0.03279  0.02865  0.54001  1.0000
  H   H384      1.0  0.12902  0.06345  0.50310  1.0000
  C   C215      1.0  0.08416  0.01555  0.52302  1.0000
  H   H385      1.0  0.35306  0.02047  0.52689  1.0000
  H   H386      1.0  0.46002  0.30331  0.47943  1.0000
  H   H387      1.0  0.02750  0.06858  0.67760  1.0000
  H   H388      1.0  0.26980  0.28225  0.68297  1.0000
  S   S66       1.0  0.05609  0.14645  0.71452  1.0000
  C   C216      1.0  0.14229  0.00842  0.47558  1.0000
  H   H389      1.0  0.45718  0.12547  0.69038  1.0000
  S   S67       1.0  0.99765  0.04176  0.47729  1.0000
  H   H390      1.0  0.19865  0.99348  0.70757  1.0000
  H   H391      1.0  0.33053  0.00063  0.68623  1.0000
  C   C217      1.0  0.37137  0.18001  0.47813  1.0000
  C   C218      1.0  0.02980  0.31542  0.71802  1.0000
  C   C219      1.0  0.43216  0.24284  0.47644  1.0000
  H   H392      1.0  0.07504  0.99087  0.52008  1.0000
  C   C220      1.0  0.14076  0.99451  0.50688  1.0000
  H   H393      1.0  0.13687  0.31661  0.71570  1.0000
  H   H394      1.0  0.99390  0.00795  0.63773  1.0000
  H   H395      1.0  0.16743  0.99074  0.51112  1.0000
  Fe  Fe35      1.0  0.19274  0.17412  0.90602  1.0000
  S   S68       1.0  0.20754  0.15152  0.86681  1.0000
  S   S69       1.0  0.21630  0.15556  0.94402  1.0000
  Fe  Fe36      1.0  0.13933  0.21632  0.88134  1.0000
  S   S70       1.0  0.14920  0.19683  0.83968  1.0000
  S   S71       1.0  0.10050  0.25515  0.89020  1.0000
  Fe  Fe37      1.0  0.15126  0.14725  0.86618  1.0000
  S   S72       1.0  0.13516  0.09552  0.86169  1.0000
  Fe  Fe38      1.0  0.20432  0.20281  0.84443  1.0000
  S   S73       1.0  0.24714  0.22239  0.81026  1.0000
  S   S74       1.0  0.13662  0.16639  0.90734  1.0000
  S   S75       1.0  0.19432  0.22606  0.88400  1.0000
  C   C221      1.0  0.33250  0.16548  0.93110  1.0000
  H   H396      1.0  0.32167  0.02723  0.95024  1.0000
  H   H397      1.0  0.08851  0.02453  0.80370  1.0000
  C   C222      1.0  0.01975  0.22748  0.81087  1.0000
  H   H398      1.0  0.18595  0.26232  0.77308  1.0000
  C   C223      1.0  0.44709  0.28153  0.83115  1.0000
  H   H399      1.0  0.20159  0.11015  0.72584  1.0000
  H   H400      1.0  0.99713  0.06249  0.85578  1.0000
  H   H401      1.0  0.38357  0.24475  0.87828  1.0000
  H   H402      1.0  0.14670  0.12935  0.74295  1.0000
  H   H403      1.0  0.38896  0.16451  0.86495  1.0000
  H   H404      1.0  0.01644  0.06959  0.89888  1.0000
  H   H405      1.0  0.20408  0.04788  0.73908  1.0000
  H   H406      1.0  0.23031  0.09754  0.82458  1.0000
  C   C224      1.0  0.24918  0.25961  0.93397  1.0000
  S   S76       1.0  0.37711  0.17112  0.92759  1.0000
  H   H407      1.0  0.34035  0.06128  0.80538  1.0000
  H   H408      1.0  0.16212  0.06392  0.74487  1.0000
  C   C225      1.0  0.30318  0.04088  0.96373  1.0000
  S   S77       1.0  0.06456  0.00103  0.72996  1.0000
  H   H409      1.0  0.03902  0.25055  0.86315  1.0000
  C   C226      1.0  0.16719  0.26520  0.75822  1.0000
  H   H410      1.0  0.45649  0.05451  0.82979  1.0000
  S   S78       1.0  0.02734  0.05592  0.78779  1.0000
  H   H411      1.0  0.19868  0.16579  0.73844  1.0000
  S   S79       1.0  0.43166  0.25727  0.73227  1.0000
  H   H412      1.0  0.42283  0.07517  0.88427  1.0000
  C   C227      1.0  0.43177  0.03217  0.80016  1.0000
  C   C228      1.0  0.44971  0.05756  0.80886  1.0000
  C   C229      1.0  0.24175  0.15914  0.76062  1.0000
  C   C230      1.0  0.45921  0.08671  0.79045  1.0000
  C   C231      1.0  0.43376  0.06441  0.75432  1.0000
  C   C232      1.0  0.18465  0.26977  0.72727  1.0000
  H   H413      1.0  0.01886  0.28808  0.85362  1.0000
  H   H414      1.0  0.35752  0.21821  0.84697  1.0000
  C   C233      1.0  0.20808  0.03474  0.91819  1.0000
  H   H415      1.0  0.36845  0.10300  0.90422  1.0000
  C   C234      1.0  0.22548  0.04028  0.89056  1.0000
  H   H416      1.0  0.08011  0.25733  0.81988  1.0000
  C   C235      1.0  0.37708  0.26843  0.86594  1.0000
  H   H417      1.0  0.19426  0.05470  0.92673  1.0000
  C   C236      1.0  0.10485  0.08579  0.84103  1.0000
  C   C237      1.0  0.07784  0.10663  0.83568  1.0000
  C   C238      1.0  0.05421  0.09738  0.81911  1.0000
  C   C239      1.0  0.05770  0.06748  0.80777  1.0000
  C   C240      1.0  0.10814  0.05592  0.82984  1.0000
  H   H418      1.0  0.07511  0.12967  0.84435  1.0000
  H   H419      1.0  0.03319  0.11338  0.81495  1.0000
  H   H420      1.0  0.12912  0.03989  0.83383  1.0000
  C   C241      1.0  0.10797  0.27349  0.91940  1.0000
  H   H421      1.0  0.32957  0.12321  0.96298  1.0000
  C   C242      1.0  0.18743  0.06375  0.75204  1.0000
  H   H422      1.0  0.42583  0.25158  0.80518  1.0000
  H   H423      1.0  0.38963  0.13114  0.82519  1.0000
  C   C243      1.0  0.12797  0.25759  0.93839  1.0000
  C   C244      1.0  0.31545  0.14043  0.95073  1.0000
  H   H424      1.0  0.22113  0.06420  0.80726  1.0000
  H   H425      1.0  0.07680  0.31556  0.91001  1.0000
  H   H426      1.0  0.13990  0.23443  0.93465  1.0000
  C   C245      1.0  0.25127  0.26558  0.80742  1.0000
  C   C246      1.0  0.28255  0.28136  0.79566  1.0000
  H   H427      1.0  0.05857  0.29289  0.80518  1.0000
  H   H428      1.0  0.33738  0.14101  0.87784  1.0000
  H   H429      1.0  0.03397  0.21678  0.93420  1.0000
  C   C247      1.0  0.22307  0.28451  0.81582  1.0000
  H   H430      1.0  0.30421  0.26685  0.78858  1.0000
  H   H431      1.0  0.32350  0.09930  0.81499  1.0000
  C   C248      1.0  0.20325  0.15558  0.75999  1.0000
  H   H432      1.0  0.19876  0.27255  0.82467  1.0000
  C   C249      1.0  0.26103  0.15864  0.93777  1.0000
  H   H433      1.0  0.34725  0.30336  0.82254  1.0000
  H   H434      1.0  0.28005  0.31076  0.95207  1.0000
  C   C250      1.0  0.22182  0.28615  0.93792  1.0000
  H   H435      1.0  0.19122  0.17291  0.77422  1.0000
  H   H436      1.0  0.10186  0.14556  0.78044  1.0000
  C   C251      1.0  0.35504  0.07227  0.84442  1.0000
  H   H437      1.0  0.05801  0.18987  0.80302  1.0000
  C   C252      1.0  0.42378  0.03556  0.77284  1.0000
  C   C253      1.0  0.29739  0.10733  0.87491  1.0000
  N   N16       1.0  0.23476  0.32152  0.93239  1.0000
  H   H438      1.0  0.33399  0.05554  0.85622  1.0000
  H   H439      1.0  0.48356  0.21206  0.84411  1.0000
  H   H440      1.0  0.13971  0.08080  0.92521  1.0000
  S   S80       1.0  0.43143  0.09728  0.94853  1.0000
  H   H441      1.0  0.13594  0.17500  0.77121  1.0000
  H   H442      1.0  0.27854  0.12738  0.87678  1.0000
  H   H443      1.0  0.33884  0.27605  0.90151  1.0000
  C   C254      1.0  0.19054  0.10835  0.79842  1.0000
  C   C255      1.0  0.12942  0.14932  0.78129  1.0000
  H   H444      1.0  0.09712  0.07131  0.92099  1.0000
  H   H445      1.0  0.13649  0.09959  0.77328  1.0000
  H   H446      1.0  0.18581  0.12836  0.81189  1.0000
  H   H447      1.0  0.17035  0.08926  0.80684  1.0000
  H   H448      1.0  0.39711  0.03976  0.88071  1.0000
  H   H449      1.0  0.41540  0.13399  0.88166  1.0000
  H   H450      1.0  0.20797  0.28042  0.95985  1.0000
  H   H451      1.0  0.19964  0.24709  0.72440  1.0000
  H   H452      1.0  0.42452  0.23239  0.84001  1.0000
  C   C256      1.0  0.35942  0.23940  0.82966  1.0000
  S   S81       1.0  0.18436  0.99555  0.96795  1.0000
  H   H453      1.0  0.03637  0.24306  0.79364  1.0000
  H   H454      1.0  0.44379  0.30631  0.81944  1.0000
  H   H455      1.0  0.26269  0.30195  0.86825  1.0000
  C   C257      1.0  0.10082  0.08728  0.96144  1.0000
  C   C258      1.0  0.20780  0.00333  0.93400  1.0000
  H   H456      1.0  0.21877  0.30536  0.88275  1.0000
  H   H457      1.0  0.13275  0.14657  0.80369  1.0000
  C   C259      1.0  0.31378  0.18597  0.91364  1.0000
  H   H458      1.0  0.32082  0.26015  0.87445  1.0000
  H   H459      1.0  0.39103  0.20761  0.80322  1.0000
  C   C260      1.0  0.15006  0.12369  0.76546  1.0000
  C   C261      1.0  0.28573  0.31598  0.79263  1.0000
  H   H460      1.0  0.23625  0.23494  0.93786  1.0000
  H   H461      1.0  0.01198  0.26465  0.95249  1.0000
  H   H462      1.0  0.05902  0.16161  0.93656  1.0000
  H   H463      1.0  0.33448  0.30314  0.87020  1.0000
  S   S82       1.0  0.48318  0.17408  0.72697  1.0000
  C   C262      1.0  0.08501  0.04705  0.81292  1.0000
  H   H464      1.0  0.29270  0.06065  0.94950  1.0000
  H   H465      1.0  0.28884  0.09126  0.86057  1.0000
  C   C263      1.0  0.23716  0.29786  0.73305  1.0000
  N   N17       1.0  0.00398  0.24770  0.83309  1.0000
  H   H466      1.0  0.18471  0.05191  0.77421  1.0000
  C   C264      1.0  0.39394  0.11815  0.84599  1.0000
  H   H467      1.0  0.34457  0.06794  0.90025  1.0000
  Fe  Fe39      1.0  0.01601  0.17194  0.74172  1.0000
  H   H468      1.0  0.39874  0.05146  0.91439  1.0000
  H   H469      1.0  0.22449  0.06425  0.87808  1.0000
  C   C265      1.0  0.36703  0.08381  0.89017  1.0000
  S   S83       1.0  0.26384  0.02127  0.84400  1.0000
  N   N18       1.0  0.38315  0.26609  0.83477  1.0000
  C   C266      1.0  0.03030  0.26607  0.84494  1.0000
  H   H470      1.0  0.23106  0.09593  0.74814  1.0000
  H   H471      1.0  0.44773  0.28350  0.85359  1.0000
  H   H472      1.0  0.39395  0.28768  0.87113  1.0000
  C   C267      1.0  0.33308  0.12301  0.86351  1.0000
  C   C268      1.0  0.36879  0.22410  0.80222  1.0000
  C   C269      1.0  0.40759  0.14469  0.86141  1.0000
  C   C270      1.0  0.24378  0.01480  0.87907  1.0000
  H   H473      1.0  0.26379  0.19809  0.90312  1.0000
  H   H474      1.0  0.24704  0.09883  0.78840  1.0000
  H   H475      1.0  0.37764  0.05631  0.84115  1.0000
  C   C271      1.0  0.39836  0.06146  0.89198  1.0000
  H   H476      1.0  0.00952  0.31546  0.80105  1.0000
  C   C272      1.0  0.27979  0.13747  0.95453  1.0000
  H   H477      1.0  0.02452  0.17645  0.83107  1.0000
  H   H478      1.0  0.26720  0.25892  0.94934  1.0000
  C   C273      1.0  0.05769  0.30456  0.73113  1.0000
  C   C274      1.0  0.22433  0.09153  0.80419  1.0000
  H   H479      1.0  0.00099  0.20613  0.86653  1.0000
  H   H480      1.0  0.14953  0.28550  0.76286  1.0000
  H   H481      1.0  0.16496  0.06163  0.96830  1.0000
  H   H482      1.0  0.07293  0.08160  0.96683  1.0000
  C   C275      1.0  0.11529  0.06907  0.93641  1.0000
  C   C276      1.0  0.22582  0.31914  0.81147  1.0000
  H   H483      1.0  0.05775  0.20428  0.83633  1.0000
  C   C277      1.0  0.04247  0.20608  0.95430  1.0000
  H   H484      1.0  0.41151  0.29474  0.78001  1.0000
  H   H485      1.0  0.36834  0.09623  0.80045  1.0000
  H   H486      1.0  0.10239  0.11382  0.95265  1.0000
  Fe  Fe40      1.0  0.03278  0.00679  0.77108  1.0000
  H   H487      1.0  0.47271  0.27308  0.82257  1.0000
  C   C278      1.0  0.37524  0.29919  0.81938  1.0000
  H   H488      1.0  0.11943  0.04239  0.94232  1.0000
  C   C279      1.0  0.41981  0.25634  0.82731  1.0000
  H   H489      1.0  0.09242  0.31569  0.75886  1.0000
  H   H490      1.0  0.20248  0.28142  0.92473  1.0000
  N   N19       1.0  0.18753  0.12135  0.76829  1.0000
  H   H491      1.0  0.42502  0.00959  0.81427  1.0000
  H   H492      1.0  0.29611  0.09318  0.89620  1.0000
  C   C280      1.0  0.34631  0.08355  0.81473  1.0000
  C   C281      1.0  0.27812  0.18218  0.91660  1.0000
  C   C282      1.0  0.20337  0.09892  0.74782  1.0000
  H   H493      1.0  0.06954  0.21447  0.95143  1.0000
  C   C283      1.0  0.09244  0.30335  0.92457  1.0000
  C   C284      1.0  0.04127  0.19800  0.82124  1.0000
  H   H494      1.0  0.41511  0.10102  0.84113  1.0000
  N   N20       1.0  0.36227  0.09933  0.86102  1.0000
  H   H495      1.0  0.25921  0.00970  0.96452  1.0000
  H   H496      1.0  0.34697  0.20857  0.79931  1.0000
  H   H497      1.0  0.33156  0.13821  0.84290  1.0000
  H   H498      1.0  0.43073  0.15659  0.84804  1.0000
  H   H499      1.0  0.15147  0.24205  0.76231  1.0000
  H   H500      1.0  0.22853  0.29770  0.75589  1.0000
  H   H501      1.0  0.32687  0.20483  0.89798  1.0000
  C   C285      1.0  0.45103  0.09003  0.76322  1.0000
  H   H502      1.0  0.26356  0.26259  0.91235  1.0000
  C   C286      1.0  0.24372  0.31844  0.87835  1.0000
  H   H503      1.0  0.16274  0.10512  0.96205  1.0000
  H   H504      1.0  0.37412  0.24285  0.78336  1.0000
  H   H505      1.0  0.24987  0.18513  0.75244  1.0000
  H   H506      1.0  0.07814  0.29429  0.83557  1.0000
  C   C287      1.0  0.34053  0.27741  0.87832  1.0000
  C   C288      1.0  0.11499  0.30016  0.96865  1.0000
  S   S84       1.0  0.40122  0.00426  0.76141  1.0000
  H   H507      1.0  0.24741  0.15482  0.78249  1.0000
  H   H508      1.0  0.25027  0.27381  0.73200  1.0000
  H   H509      1.0  0.36710  0.29804  0.77560  1.0000
  H   H510      1.0  0.06020  0.02539  0.96357  1.0000
  H   H511      1.0  0.42779  0.06709  0.73314  1.0000
  C   C289      1.0  0.09623  0.31685  0.94905  1.0000
  H   H512      1.0  0.33295  0.24864  0.82985  1.0000
  C   C290      1.0  0.38694  0.30588  0.78729  1.0000
  H   H513      1.0  0.99981  0.10694  0.73860  1.0000
  H   H514      1.0  0.16792  0.32037  0.91458  1.0000
  S   S85       1.0  0.47970  0.11922  0.80234  1.0000
  S   S86       1.0  0.05000  0.21556  0.74220  1.0000
  Fe  Fe41      1.0  0.47640  0.22510  0.73859  1.0000
  C   C291      1.0  0.06334  0.27814  0.82492  1.0000
  C   C292      1.0  0.04215  0.16811  0.95539  1.0000
  C   C293      1.0  0.13126  0.27079  0.96305  1.0000
  H   H515      1.0  0.00630  0.28470  0.77749  1.0000
  Fe  Fe42      1.0  0.40179  0.14081  0.96147  1.0000
  H   H516      1.0  0.06911  0.28123  0.72771  1.0000
  H   H517      1.0  0.45797  0.11226  0.74894  1.0000
  H   H518      1.0  0.25747  0.14334  0.74711  1.0000
  H   H519      1.0  0.18719  0.99741  0.82598  1.0000
  H   H520      1.0  0.28945  0.31691  0.72809  1.0000
  H   H521      1.0  0.16960  0.00584  0.86946  1.0000
  H   H522      1.0  0.01638  0.15802  0.95475  1.0000
  H   H523      1.0  0.99732  0.31774  0.89223  1.0000
  H   H524      1.0  0.47938  0.99433  0.85748  1.0000
  H   H525      1.0  0.04944  0.26584  0.96704  1.0000
  H   H526      1.0  0.28269  0.32056  0.90439  1.0000
  H   H527      1.0  0.46682  0.20728  0.88128  1.0000
  H   H528      1.0  0.38535  0.31969  0.82871  1.0000
  S   S87       1.0  0.48912  0.21209  0.78186  1.0000
  C   C294      1.0  0.49020  0.20620  0.86558  1.0000
  C   C295      1.0  0.99305  0.29643  0.79526  1.0000
  H   H529      1.0  0.26674  0.11862  0.97033  1.0000
  H   H530      1.0  0.99961  0.21723  0.80054  1.0000
  C   C296      1.0  0.02270  0.25655  0.97212  1.0000
  S   S88       1.0  0.09807  0.39511  0.03852  1.0000
  S   S89       1.0  0.18074  0.44099  0.04718  1.0000
  H   H531      1.0  0.04178  0.53176  0.20711  1.0000
  C   C297      1.0  0.22135  0.40905  0.19525  1.0000
  H   H532      1.0  0.19327  0.59588  0.17960  1.0000
  C   C298      1.0  0.48147  0.49936  0.02334  1.0000
  H   H533      1.0  0.29377  0.49375  0.00888  1.0000
  H   H534      1.0  0.27923  0.37253  0.01615  1.0000
  C   C299      1.0  0.03229  0.45727  0.11839  1.0000
  H   H535      1.0  0.19478  0.45766  0.12114  1.0000
  H   H536      1.0  0.45565  0.50602  0.03097  1.0000
  H   H537      1.0  0.21841  0.50403  0.98302  1.0000
  C   C300      1.0  0.26978  0.39197  0.02809  1.0000
  H   H538      1.0  0.23628  0.46135  0.07173  1.0000
  H   H539      1.0  0.15006  0.34213  0.04258  1.0000
  Fe  Fe43      1.0  0.43955  0.57797  0.02103  1.0000
  H   H540      1.0  0.48056  0.62479  0.08023  1.0000
  Fe  Fe44      1.0  0.39005  0.61482  0.06137  1.0000
  S   S90       1.0  0.34483  0.60235  0.04157  1.0000
  Fe  Fe45      1.0  0.36748  0.55228  0.04129  1.0000
  S   S91       1.0  0.33498  0.50692  0.05636  1.0000
  Fe  Fe46      1.0  0.37981  0.61448  0.00018  1.0000
  H   H541      1.0  0.06050  0.52371  0.06796  1.0000
  S   S92       1.0  0.41032  0.56306  0.06402  1.0000
  H   H542      1.0  0.10714  0.33723  0.08404  1.0000
  S   S93       1.0  0.40917  0.46381  0.15979  1.0000
  H   H543      1.0  0.40475  0.48016  0.00527  1.0000
  C   C301      1.0  0.01305  0.54247  0.99186  1.0000
  C   C302      1.0  0.41644  0.47856  0.98321  1.0000
  Fe  Fe47      1.0  0.13468  0.58420  0.12123  1.0000
  H   H544      1.0  0.30785  0.60413  0.21081  1.0000
  S   S94       1.0  0.16997  0.54053  0.12079  1.0000
  H   H545      1.0  0.22058  0.39779  0.21746  1.0000
  H   H546      1.0  0.23065  0.44507  0.13732  1.0000
  C   C303      1.0  0.00319  0.48689  0.01724  1.0000
  S   S95       1.0  0.07932  0.58400  0.14045  1.0000
  S   S96       1.0  0.12497  0.61175  0.07979  1.0000
  C   C304      1.0  0.19184  0.52868  0.14949  1.0000
  C   C305      1.0  0.22491  0.51589  0.14488  1.0000
  H   H547      1.0  0.23738  0.51456  0.12365  1.0000
  H   H548      1.0  0.26739  0.49471  0.16402  1.0000
  C   C306      1.0  0.03909  0.51588  0.12264  1.0000
  H   H549      1.0  0.25149  0.36650  0.18290  1.0000
  S   S97       1.0  0.41354  0.34075  0.02314  1.0000
  C   C307      1.0  0.48073  0.57438  0.18387  1.0000
  H   H550      1.0  0.14701  0.45863  0.21139  1.0000
  C   C308      1.0  0.45597  0.61197  0.14943  1.0000
  H   H551      1.0  0.20598  0.59407  0.98318  1.0000
  C   C309      1.0  0.29179  0.40716  0.04277  1.0000
  C   C310      1.0  0.40969  0.37221  0.09051  1.0000
  H   H552      1.0  0.38091  0.39307  0.17367  1.0000
  C   C311      1.0  0.38702  0.46983  0.13104  1.0000
  C   C312      1.0  0.35175  0.47491  0.13510  1.0000
  C   C313      1.0  0.33491  0.48364  0.11184  1.0000
  C   C314      1.0  0.35347  0.48762  0.08464  1.0000
  C   C315      1.0  0.38836  0.48090  0.08062  1.0000
  C   C316      1.0  0.40511  0.47176  0.10379  1.0000
  H   H553      1.0  0.33765  0.47333  0.15612  1.0000
  H   H554      1.0  0.30802  0.48929  0.11496  1.0000
  H   H555      1.0  0.40266  0.48403  0.05960  1.0000
  H   H556      1.0  0.43229  0.46772  0.10054  1.0000
  C   C317      1.0  0.18308  0.37365  0.17398  1.0000
  H   H557      1.0  0.48876  0.35402  0.00988  1.0000
  H   H558      1.0  0.45748  0.53876  0.22035  1.0000
  Fe  Fe48      1.0  0.07108  0.61653  0.10084  1.0000
  H   H559      1.0  0.36503  0.59289  0.19752  1.0000
  H   H560      1.0  0.48262  0.51989  0.19241  1.0000
  H   H561      1.0  0.17949  0.51761  0.22108  1.0000
  S   S98       1.0  0.02703  0.61286  0.07693  1.0000
  C   C318      1.0  0.24196  0.50453  0.16770  1.0000
  N   N21       1.0  0.22533  0.57029  0.02037  1.0000
  H   H562      1.0  0.18356  0.35620  0.05872  1.0000
  C   C319      1.0  0.23646  0.53995  0.00714  1.0000
  C   C320      1.0  0.25182  0.57864  0.03768  1.0000
  C   C321      1.0  0.19030  0.56625  0.03790  1.0000
  H   H563      1.0  0.33804  0.41454  0.98290  1.0000
  H   H564      1.0  0.11773  0.37701  0.11681  1.0000
  C   C322      1.0  0.25648  0.55317  0.06318  1.0000
  C   C323      1.0  0.17910  0.53103  0.05214  1.0000
  C   C324      1.0  0.21509  0.53063  0.98522  1.0000
  C   C325      1.0  0.05857  0.49717  0.07724  1.0000
  H   H565      1.0  0.23654  0.51783  0.02319  1.0000
  C   C326      1.0  0.99721  0.49778  0.09441  1.0000
  H   H566      1.0  0.27726  0.58316  0.02421  1.0000
  H   H567      1.0  0.24555  0.60190  0.04652  1.0000
  H   H568      1.0  0.18813  0.58229  0.05485  1.0000
  H   H569      1.0  0.17006  0.57480  0.02512  1.0000
  H   H570      1.0  0.32539  0.34203  0.17010  1.0000
  H   H571      1.0  0.26342  0.54317  0.99657  1.0000
  H   H572      1.0  0.34414  0.35789  0.08937  1.0000
  H   H573      1.0  0.34393  0.45904  0.00972  1.0000
  S   S99       1.0  0.35221  0.33308  0.98643  1.0000
  H   H574      1.0  0.15413  0.43334  0.15991  1.0000
  H   H575      1.0  0.23396  0.55237  0.07984  1.0000
  H   H576      1.0  0.27854  0.56107  0.07248  1.0000
  H   H577      1.0  0.26228  0.52814  0.05767  1.0000
  H   H578      1.0  0.17404  0.51467  0.03681  1.0000
  H   H579      1.0  0.15468  0.53268  0.06635  1.0000
  H   H580      1.0  0.19759  0.51899  0.06500  1.0000
  C   C327      1.0  0.29900  0.57930  0.15268  1.0000
  H   H581      1.0  0.27184  0.57152  0.19527  1.0000
  H   H582      1.0  0.24601  0.57061  0.16903  1.0000
  H   H583      1.0  0.15899  0.37380  0.16478  1.0000
  H   H584      1.0  0.30179  0.55243  0.15151  1.0000
  H   H585      1.0  0.29662  0.59146  0.13123  1.0000
  C   C328      1.0  0.22998  0.62045  0.20120  1.0000
  C   C329      1.0  0.41452  0.55525  0.13726  1.0000
  H   H586      1.0  0.43384  0.38704  0.08628  1.0000
  C   C330      1.0  0.27930  0.43205  0.05847  1.0000
  S   S100      1.0  0.15836  0.39712  0.98400  1.0000
  H   H587      1.0  0.47736  0.44022  0.13193  1.0000
  H   H588      1.0  0.38894  0.55500  0.15017  1.0000
  Fe  Fe49      1.0  0.06976  0.43082  0.01116  1.0000
  S   S101      1.0  0.01674  0.44656  0.02779  1.0000
  H   H589      1.0  0.21904  0.39140  0.01669  1.0000
  H   H590      1.0  0.04858  0.43041  0.08197  1.0000
  H   H591      1.0  0.25593  0.40204  0.15595  1.0000
  Fe  Fe50      1.0  0.11003  0.36858  0.00073  1.0000
  Fe  Fe51      1.0  0.14435  0.42646  0.01935  1.0000
  C   C331      1.0  0.38847  0.60447  0.18454  1.0000
  C   C332      1.0  0.25249  0.39386  0.17882  1.0000
  C   C333      1.0  0.02464  0.51024  0.99902  1.0000
  H   H592      1.0  0.38679  0.34916  0.18251  1.0000
  H   H593      1.0  0.29610  0.44397  0.06981  1.0000
  N   N22       1.0  0.35923  0.35517  0.13046  1.0000
  C   C334      1.0  0.33407  0.36442  0.11045  1.0000
  H   H594      1.0  0.45012  0.64729  0.18042  1.0000
  C   C335      1.0  0.34328  0.36240  0.15928  1.0000
  S   S102      1.0  0.11514  0.46454  0.99485  1.0000
  H   H595      1.0  0.19412  0.57885  0.21555  1.0000
  H   H596      1.0  0.41667  0.34615  0.08893  1.0000
  H   H597      1.0  0.13388  0.40091  0.20542  1.0000
  H   H598      1.0  0.33018  0.39169  0.10748  1.0000
  H   H599      1.0  0.27580  0.40162  0.18658  1.0000
  H   H600      1.0  0.39475  0.38172  0.07368  1.0000
  H   H601      1.0  0.32760  0.38506  0.15742  1.0000
  C   C336      1.0  0.21677  0.63298  0.00616  1.0000
  C   C337      1.0  0.44318  0.55219  0.15541  1.0000
  H   H602      1.0  0.05134  0.48406  0.06036  1.0000
  H   H603      1.0  0.32716  0.64467  0.20514  1.0000
  H   H604      1.0  0.00304  0.42939  0.09371  1.0000
  H   H605      1.0  0.26734  0.63870  0.13160  1.0000
  H   H606      1.0  0.09691  0.46001  0.08876  1.0000
  H   H607      1.0  0.05020  0.50364  0.99063  1.0000
  H   H608      1.0  0.38464  0.60527  0.16244  1.0000
  H   H609      1.0  0.19463  0.63232  0.02320  1.0000
  H   H610      1.0  0.20384  0.37086  0.15639  1.0000
  C   C338      1.0  0.28739  0.64063  0.17968  1.0000
  C   C339      1.0  0.20438  0.43740  0.13551  1.0000
  C   C340      1.0  0.19241  0.51744  0.19977  1.0000
  C   C341      1.0  0.30269  0.63086  0.20681  1.0000
  H   H611      1.0  0.35369  0.49939  0.99378  1.0000
  C   C342      1.0  0.24533  0.44195  0.05951  1.0000
  N   N23       1.0  0.25744  0.61990  0.17613  1.0000
  C   C343      1.0  0.17571  0.52949  0.17702  1.0000
  H   H612      1.0  0.23942  0.64391  0.01267  1.0000
  N   N24       1.0  0.44898  0.58116  0.17045  1.0000
  H   H613      1.0  0.48568  0.53830  0.06589  1.0000
  C   C344      1.0  0.30389  0.48278  0.98967  1.0000
  H   H614      1.0  0.41001  0.37296  0.13428  1.0000
  H   H615      1.0  0.05602  0.45307  0.12793  1.0000
  N   N25       1.0  0.18708  0.40544  0.18584  1.0000
  H   H616      1.0  0.03066  0.40510  0.11367  1.0000
  Fe  Fe52      1.0  0.37374  0.47323  0.19840  1.0000
  H   H617      1.0  0.17419  0.61748  0.20729  1.0000
  H   H618      1.0  0.01104  0.45322  0.13640  1.0000
  H   H619      1.0  0.20459  0.41500  0.12499  1.0000
  C   C345      1.0  0.41934  0.58463  0.19317  1.0000
  S   S103      1.0  0.39831  0.56291  0.99846  1.0000
  H   H620      1.0  0.47344  0.44745  0.03901  1.0000
  H   H621      1.0  0.43380  0.61929  0.13909  1.0000
  H   H622      1.0  0.28878  0.45970  0.99078  1.0000
  H   H623      1.0  0.43682  0.52926  0.17057  1.0000
  S   S104      1.0  0.33553  0.39766  0.04099  1.0000
  H   H624      1.0  0.48539  0.59418  0.19656  1.0000
  C   C346      1.0  0.22338  0.42746  0.04448  1.0000
  H   H625      1.0  0.38400  0.40317  0.11932  1.0000
  H   H626      1.0  0.46694  0.54711  0.14145  1.0000
  H   H627      1.0  0.28581  0.35094  0.13952  1.0000
  H   H628      1.0  0.14555  0.38455  0.08420  1.0000
  C   C347      1.0  0.02847  0.42932  0.10061  1.0000
  H   H629      1.0  0.04198  0.54155  0.11125  1.0000
  H   H630      1.0  0.38946  0.62998  0.18989  1.0000
  C   C348      1.0  0.19621  0.60208  0.20052  1.0000
  H   H631      1.0  0.23915  0.60901  0.22082  1.0000
  C   C349      1.0  0.09512  0.48676  0.08142  1.0000
  H   H632      1.0  0.18388  0.45797  0.17217  1.0000
  H   H633      1.0  0.26934  0.64049  0.07100  1.0000
  H   H634      1.0  0.25008  0.60148  0.98323  1.0000
  H   H635      1.0  0.22777  0.43553  0.19521  1.0000
  H   H636      1.0  0.06397  0.51050  0.13007  1.0000
  C   C350      1.0  0.01244  0.51632  0.14936  1.0000
  H   H637      1.0  0.35264  0.36943  0.20113  1.0000
  H   H638      1.0  0.18747  0.53500  0.99088  1.0000
  S   S105      1.0  0.14916  0.62957  0.13822  1.0000
  H   H639      1.0  0.22399  0.64613  0.20496  1.0000
  C   C351      1.0  0.13930  0.36653  0.10356  1.0000
  H   H640      1.0  0.47435  0.51680  0.10033  1.0000
  Fe  Fe53      1.0  0.09305  0.63147  0.15455  1.0000
  C   C352      1.0  0.39075  0.37662  0.11990  1.0000
  C   C353      1.0  0.24536  0.63401  0.14901  1.0000
  N   N26       1.0  0.03182  0.49196  0.10318  1.0000
  H   H641      1.0  0.10571  0.50131  0.09589  1.0000
  H   H642      1.0  0.11198  0.49151  0.06076  1.0000
  H   H643      1.0  0.42795  0.59711  0.20997  1.0000
  C   C354      1.0  0.36773  0.36864  0.18000  1.0000
  H   H644      1.0  0.20308  0.34119  0.20764  1.0000
  H   H645      1.0  0.28198  0.35829  0.10303  1.0000
  H   H646      1.0  0.41816  0.57693  0.12079  1.0000
  C   C355      1.0  0.18095  0.43413  0.16418  1.0000
  C   C356      1.0  0.26745  0.58454  0.17446  1.0000
  H   H647      1.0  0.21067  0.65014  0.98784  1.0000
  H   H648      1.0  0.15006  0.53875  0.18086  1.0000
  H   H649      1.0  0.10236  0.65112  0.00386  1.0000
  C   C357      1.0  0.23570  0.40252  0.02855  1.0000
  Fe  Fe54      1.0  0.35746  0.35064  0.02713  1.0000
  H   H650      1.0  0.99227  0.58433  0.21161  1.0000
  S   S106      1.0  0.07717  0.40089  0.97540  1.0000
  H   H651      1.0  0.00886  0.54295  0.06334  1.0000
  H   H652      1.0  0.32287  0.58789  0.15893  1.0000
  C   C358      1.0  0.22569  0.50540  0.19525  1.0000
  H   H653      1.0  0.01965  0.53612  0.16098  1.0000
  C   C359      1.0  0.18209  0.34168  0.19506  1.0000
  H   H654      1.0  0.22872  0.61612  0.14173  1.0000
  C   C360      1.0  0.22493  0.59871  0.99699  1.0000
  H   H655      1.0  0.20413  0.33303  0.01519  1.0000
  C   C361      1.0  0.34203  0.47608  0.99016  1.0000
  H   H656      1.0  0.41498  0.53343  0.12597  1.0000
  S   S107      1.0  0.39123  0.63790  0.10154  1.0000
  S   S108      1.0  0.34272  0.51905  0.20220  1.0000
  H   H657      1.0  0.30821  0.64095  0.16153  1.0000
  S   S109      1.0  0.42368  0.63077  0.01985  1.0000
  H   H658      1.0  0.20702  0.64698  0.08524  1.0000
  C   C362      1.0  0.29852  0.34737  0.11829  1.0000
  H   H659      1.0  0.40957  0.55973  0.20337  1.0000
  H   H660      1.0  0.16119  0.36465  0.11531  1.0000
  H   H661      1.0  0.47580  0.60716  0.13189  1.0000
  H   H662      1.0  0.99341  0.48221  0.07811  1.0000
  H   H663      1.0  0.15733  0.33832  0.20940  1.0000
  S   S110      1.0  0.06702  0.64353  0.19615  1.0000
  H   H664      1.0  0.01164  0.49280  0.16386  1.0000
  C   C363      1.0  0.15947  0.40581  0.21099  1.0000
  C   C364      1.0  0.48050  0.54159  0.20398  1.0000
  C   C365      1.0  0.00148  0.64828  0.07262  1.0000
  H   H665      1.0  0.02979  0.56059  0.97802  1.0000
  C   C366      1.0  0.46706  0.64290  0.16097  1.0000
  H   H666      1.0  0.39664  0.43008  0.98447  1.0000
  H   H667      1.0  0.44276  0.46952  0.98412  1.0000
  S   S111      1.0  0.33108  0.43787  0.21839  1.0000
  C   C367      1.0  0.12808  0.33267  0.09696  1.0000
  C   C368      1.0  0.17064  0.33348  0.05491  1.0000
  H   H668      1.0  0.19892  0.32799  0.10028  1.0000
  Fe  Fe55      1.0  0.35114  0.44316  0.25840  1.0000
  S   S112      1.0  0.35808  0.40211  0.29298  1.0000
  C   C369      1.0  0.22484  0.33394  0.25743  1.0000
  C   C370      1.0  0.18310  0.64302  0.33833  1.0000
  S   S113      1.0  0.17886  0.45570  0.35465  1.0000
  S   S114      1.0  0.16579  0.40055  0.29640  1.0000
  S   S115      1.0  0.09682  0.45475  0.40704  1.0000
  H   H669      1.0  0.01617  0.58425  0.35576  1.0000
  S   S116      1.0  0.42481  0.51857  0.41676  1.0000
  C   C371      1.0  0.23166  0.36062  0.35019  1.0000
  H   H670      1.0  0.39669  0.39263  0.23896  1.0000
  C   C372      1.0  0.29342  0.53256  0.42354  1.0000
  H   H671      1.0  0.37749  0.38484  0.44014  1.0000
  C   C373      1.0  0.05663  0.47245  0.41398  1.0000
  H   H672      1.0  0.35885  0.34613  0.45648  1.0000
  N   N27       1.0  0.03654  0.37994  0.35608  1.0000
  C   C374      1.0  0.04412  0.49440  0.39336  1.0000
  H   H673      1.0  0.24304  0.36054  0.40357  1.0000
  H   H674      1.0  0.05929  0.50062  0.37283  1.0000
  H   H675      1.0  0.48131  0.56048  0.30265  1.0000
  S   S117      1.0  0.45623  0.65522  0.46962  1.0000
  H   H676      1.0  0.13887  0.43362  0.24472  1.0000
  C   C375      1.0  0.43707  0.56141  0.33627  1.0000
  H   H677      1.0  0.04614  0.44691  0.45631  1.0000
  H   H678      1.0  0.99701  0.57805  0.28925  1.0000
  H   H679      1.0  0.00213  0.52534  0.38342  1.0000
  C   C376      1.0  0.11199  0.63823  0.37231  1.0000
  C   C377      1.0  0.19737  0.34981  0.27181  1.0000
  C   C378      1.0  0.20166  0.38146  0.27919  1.0000
  C   C379      1.0  0.29499  0.35719  0.33979  1.0000
  H   H680      1.0  0.17248  0.33777  0.27669  1.0000
  C   C380      1.0  0.38777  0.37224  0.28280  1.0000
  C   C381      1.0  0.40321  0.37335  0.25477  1.0000
  C   C382      1.0  0.42695  0.34928  0.24715  1.0000
  H   H681      1.0  0.02100  0.50218  0.28950  1.0000
  H   H682      1.0  0.47298  0.40683  0.41951  1.0000
  C   C383      1.0  0.39622  0.34708  0.30313  1.0000
  H   H683      1.0  0.45711  0.41528  0.46986  1.0000
  H   H684      1.0  0.42966  0.40482  0.41512  1.0000
  H   H685      1.0  0.18178  0.61795  0.35094  1.0000
  H   H686      1.0  0.38442  0.34615  0.32482  1.0000
  H   H687      1.0  0.16328  0.38580  0.22819  1.0000
  C   C384      1.0  0.45242  0.34452  0.41220  1.0000
  H   H688      1.0  0.28666  0.39197  0.25463  1.0000
  N   N28       1.0  0.99325  0.55485  0.25222  1.0000
  C   C385      1.0  0.01182  0.50832  0.39934  1.0000
  S   S118      1.0  0.38161  0.56284  0.25793  1.0000
  H   H689      1.0  0.31894  0.47633  0.40998  1.0000
  S   S119      1.0  0.31765  0.48579  0.26792  1.0000
  H   H690      1.0  0.01247  0.41062  0.38651  1.0000
  Fe  Fe56      1.0  0.12993  0.51875  0.30871  1.0000
  S   S120      1.0  0.14085  0.52792  0.35082  1.0000
  S   S121      1.0  0.10729  0.55941  0.28122  1.0000
  Fe  Fe57      1.0  0.16406  0.45059  0.31251  1.0000
  Fe  Fe58      1.0  0.12608  0.47474  0.36486  1.0000
  Fe  Fe59      1.0  0.19246  0.50848  0.33657  1.0000
  S   S122      1.0  0.23572  0.53972  0.34440  1.0000
  S   S123      1.0  0.10993  0.46705  0.32400  1.0000
  S   S124      1.0  0.18267  0.50202  0.29323  1.0000
  C   C386      1.0  0.01540  0.43968  0.34551  1.0000
  C   C387      1.0  0.31710  0.58124  0.27787  1.0000
  H   H691      1.0  0.20654  0.64204  0.32269  1.0000
  C   C388      1.0  0.21315  0.32750  0.36299  1.0000
  C   C389      1.0  0.07664  0.58463  0.29777  1.0000
  C   C390      1.0  0.05763  0.57359  0.32408  1.0000
  H   H692      1.0  0.06216  0.54943  0.33494  1.0000
  C   C391      1.0  0.03688  0.46437  0.44048  1.0000
  H   H693      1.0  0.04218  0.57849  0.23439  1.0000
  H   H694      1.0  0.18857  0.63920  0.25567  1.0000
  H   H695      1.0  0.43018  0.59684  0.39369  1.0000
  H   H696      1.0  0.19173  0.32373  0.35134  1.0000
  H   H697      1.0  0.26779  0.59615  0.29680  1.0000
  C   C392      1.0  0.45555  0.59969  0.38036  1.0000
  C   C393      1.0  0.21056  0.57533  0.42998  1.0000
  C   C394      1.0  0.19769  0.54504  0.42536  1.0000
  C   C395      1.0  0.20427  0.53478  0.39879  1.0000
  C   C396      1.0  0.22456  0.55447  0.37673  1.0000
  C   C397      1.0  0.23685  0.58527  0.38097  1.0000
  C   C398      1.0  0.22958  0.59592  0.40759  1.0000
  H   H698      1.0  0.18279  0.52930  0.44244  1.0000
  H   H699      1.0  0.19448  0.51111  0.39558  1.0000
  H   H700      1.0  0.25227  0.60059  0.36370  1.0000
  N   N29       1.0  0.44728  0.36064  0.43866  1.0000
  H   H701      1.0  0.08430  0.62420  0.26304  1.0000
  H   H702      1.0  0.07553  0.52889  0.22764  1.0000
  H   H703      1.0  0.31095  0.55514  0.28335  1.0000
  H   H704      1.0  0.46176  0.61133  0.29451  1.0000
  H   H705      1.0  0.08149  0.38667  0.39626  1.0000
  C   C399      1.0  0.34971  0.59175  0.26440  1.0000
  C   C400      1.0  0.35763  0.62565  0.25796  1.0000
  H   H706      1.0  0.43877  0.35023  0.22547  1.0000
  C   C401      1.0  0.04509  0.35576  0.38028  1.0000
  H   H707      1.0  0.33672  0.43894  0.44963  1.0000
  Fe  Fe60      1.0  0.44281  0.53770  0.45313  1.0000
  C   C402      1.0  0.45687  0.49753  0.39777  1.0000
  H   H708      1.0  0.41979  0.59896  0.29197  1.0000
  C   C403      1.0  0.28492  0.48521  0.46109  1.0000
  C   C404      1.0  0.36516  0.59155  0.33335  1.0000
  C   C405      1.0  0.26171  0.38026  0.25916  1.0000
  H   H709      1.0  0.20170  0.32801  0.38528  1.0000
  H   H710      1.0  0.14180  0.48464  0.45390  1.0000
  C   C406      1.0  0.04549  0.63624  0.29613  1.0000
  H   H711      1.0  0.08552  0.33299  0.33599  1.0000
  H   H712      1.0  0.08175  0.34359  0.40895  1.0000
  C   C407      1.0  0.04729  0.52756  0.22898  1.0000
  H   H713      1.0  0.13171  0.62941  0.38538  1.0000
  H   H714      1.0  0.48105  0.40604  0.29556  1.0000
  H   H715      1.0  0.08793  0.62462  0.38208  1.0000
  H   H716      1.0  0.17059  0.43800  0.45802  1.0000
  H   H717      1.0  0.38217  0.34863  0.42207  1.0000
  C   C408      1.0  0.29759  0.35924  0.40254  1.0000
  C   C409      1.0  0.15709  0.43783  0.22474  1.0000
  C   C410      1.0  0.99259  0.50106  0.42620  1.0000
  H   H718      1.0  0.00058  0.38170  0.32627  1.0000
  H   H719      1.0  0.08833  0.39577  0.33763  1.0000
  C   C411      1.0  0.45361  0.61504  0.34980  1.0000
  H   H720      1.0  0.04253  0.55165  0.26598  1.0000
  H   H721      1.0  0.36737  0.56573  0.32875  1.0000
  H   H722      1.0  0.31924  0.65578  0.33678  1.0000
  H   H723      1.0  0.48772  0.33753  0.37486  1.0000
  N   N30       1.0  0.42977  0.59781  0.33482  1.0000
  H   H724      1.0  0.05398  0.42393  0.37048  1.0000
  H   H725      1.0  0.03903  0.50229  0.23905  1.0000
  C   C412      1.0  0.47543  0.35211  0.45589  1.0000
  H   H726      1.0  0.23975  0.61929  0.41107  1.0000
  H   H727      1.0  0.99060  0.52605  0.30995  1.0000
  H   H728      1.0  0.33160  0.57893  0.45934  1.0000
  H   H729      1.0  0.41225  0.41266  0.46675  1.0000
  H   H730      1.0  0.10012  0.35800  0.30339  1.0000
  S   S125      1.0  0.48697  0.57253  0.44965  1.0000
  C   C413      1.0  0.47272  0.45744  0.36590  1.0000
  H   H731      1.0  0.05764  0.34162  0.30958  1.0000
  H   H732      1.0  0.29936  0.38542  0.40600  1.0000
  C   C414      1.0  0.06562  0.38393  0.33184  1.0000
  C   C415      1.0  0.02566  0.62476  0.32195  1.0000
  C   C416      1.0  0.99372  0.50857  0.29421  1.0000
  C   C417      1.0  0.11916  0.48378  0.47058  1.0000
  H   H733      1.0  0.47073  0.61648  0.39007  1.0000
  C   C418      1.0  0.03170  0.59336  0.33587  1.0000
  C   C419      1.0  0.25715  0.34916  0.25087  1.0000
  H   H734      1.0  0.00992  0.34145  0.34097  1.0000
  H   H735      1.0  0.27518  0.54790  0.43547  1.0000
  H   H736      1.0  0.02524  0.35575  0.39915  1.0000
  C   C420      1.0  0.33276  0.52496  0.45984  1.0000
  H   H737      1.0  0.05864  0.40093  0.31377  1.0000
  H   H738      1.0  0.26273  0.32497  0.39185  1.0000
  H   H739      1.0  0.32822  0.54382  0.38362  1.0000
  S   S126      1.0  0.20558  0.58450  0.46463  1.0000
  C   C421      1.0  0.39364  0.60180  0.34897  1.0000
  C   C422      1.0  0.00516  0.47904  0.44672  1.0000
  Fe  Fe61      1.0  0.36108  0.51753  0.24389  1.0000
  H   H740      1.0  0.30238  0.57739  0.39334  1.0000
  H   H741      1.0  0.40197  0.63292  0.44266  1.0000
  C   C423      1.0  0.33394  0.48783  0.42391  1.0000
  H   H742      1.0  0.36446  0.60843  0.31370  1.0000
  H   H743      1.0  0.29281  0.36682  0.31755  1.0000
  H   H744      1.0  0.18192  0.44502  0.23027  1.0000
  C   C424      1.0  0.26552  0.35230  0.38960  1.0000
  H   H745      1.0  0.31937  0.36788  0.34360  1.0000
  H   H746      1.0  0.42093  0.47049  0.38002  1.0000
  H   H747      1.0  0.33995  0.59357  0.34644  1.0000
  C   C425      1.0  0.12145  0.63033  0.34205  1.0000
  H   H748      1.0  0.43017  0.54859  0.35812  1.0000
  C   C426      1.0  0.43466  0.61292  0.30435  1.0000
  H   H749      1.0  0.43401  0.35410  0.39804  1.0000
  H   H750      1.0  0.09538  0.52208  0.44486  1.0000
  C   C427      1.0  0.00554  0.36692  0.34624  1.0000
  H   H751      1.0  0.30043  0.63848  0.37135  1.0000
  H   H752      1.0  0.35388  0.50364  0.40960  1.0000
  H   H753      1.0  0.13376  0.62903  0.28960  1.0000
  C   C428      1.0  0.38162  0.35784  0.44252  1.0000
  S   S127      1.0  0.99100  0.64770  0.33560  1.0000
  H   H754      1.0  0.02865  0.63568  0.45199  1.0000
  H   H755      1.0  0.10156  0.46537  0.46520  1.0000
  S   S128      1.0  0.24481  0.49000  0.22474  1.0000
  H   H756      1.0  0.09819  0.63421  0.33192  1.0000
  H   H757      1.0  0.23746  0.42160  0.27715  1.0000
  H   H758      1.0  0.38293  0.63382  0.24769  1.0000
  H   H759      1.0  0.46830  0.57547  0.38134  1.0000
  C   C429      1.0  0.07012  0.61577  0.28366  1.0000
  H   H760      1.0  0.03345  0.44642  0.32577  1.0000
  H   H761      1.0  0.39901  0.65492  0.30727  1.0000
  C   C430      1.0  0.33285  0.64899  0.26501  1.0000
  H   H762      1.0  0.04474  0.33005  0.37527  1.0000
  S   S129      1.0  0.39608  0.47517  0.23770  1.0000
  H   H763      1.0  0.42084  0.54933  0.32365  1.0000
  C   C431      1.0  0.41997  0.32307  0.29553  1.0000
  H   H764      1.0  0.38300  0.65349  0.39715  1.0000
  C   C432      1.0  0.31729  0.55637  0.40176  1.0000
  H   H765      1.0  0.43888  0.44489  0.44630  1.0000
  N   N31       1.0  0.31117  0.50832  0.44255  1.0000
  C   C433      1.0  0.44759  0.47486  0.38105  1.0000
  C   C434      1.0  0.42572  0.64974  0.29874  1.0000
  H   H766      1.0  0.27719  0.51922  0.41166  1.0000
  H   H767      1.0  0.48000  0.61694  0.33782  1.0000
  C   C435      1.0  0.30048  0.63832  0.27911  1.0000
  C   C436      1.0  0.23394  0.39679  0.27255  1.0000
  C   C437      1.0  0.07954  0.36172  0.39007  1.0000
  H   H768      1.0  0.36846  0.46903  0.45415  1.0000
  N   N32       1.0  0.26527  0.36799  0.35962  1.0000
  C   C438      1.0  0.26860  0.40498  0.35884  1.0000
  C   C439      1.0  0.10262  0.51799  0.46628  1.0000
  C   C440      1.0  0.41378  0.34845  0.45604  1.0000
  H   H769      1.0  0.33818  0.56679  0.41082  1.0000
  C   C441      1.0  0.26496  0.42615  0.33059  1.0000
  C   C442      1.0  0.29273  0.60450  0.28567  1.0000
  H   H770      1.0  0.46731  0.36908  0.31860  1.0000
  H   H771      1.0  0.38898  0.62787  0.35265  1.0000
  H   H772      1.0  0.24918  0.41375  0.37523  1.0000
  H   H773      1.0  0.29398  0.41199  0.36359  1.0000
  C   C443      1.0  0.44738  0.39767  0.43054  1.0000
  C   C444      1.0  0.07750  0.35200  0.31990  1.0000
  H   H774      1.0  0.21243  0.37975  0.35529  1.0000
  H   H775      1.0  0.23487  0.36182  0.32692  1.0000
  C   C445      1.0  0.02998  0.41309  0.36606  1.0000
  C   C446      1.0  0.03165  0.55448  0.24613  1.0000
  H   H776      1.0  0.28498  0.42094  0.31325  1.0000
  H   H777      1.0  0.23943  0.42315  0.32461  1.0000
  H   H778      1.0  0.26793  0.45272  0.33269  1.0000
  H   H779      1.0  0.16956  0.60933  0.30072  1.0000
  H   H780      1.0  0.38906  0.58691  0.37018  1.0000
  H   H781      1.0  0.32143  0.35218  0.38977  1.0000
  H   H782      1.0  0.46540  0.43961  0.35324  1.0000
  C   C447      1.0  0.35370  0.45995  0.43900  1.0000
  H   H783      1.0  0.35805  0.53239  0.44714  1.0000
  H   H784      1.0  0.44586  0.64105  0.35093  1.0000
  Fe  Fe62      1.0  0.30145  0.48379  0.22569  1.0000
  C   C448      1.0  0.47422  0.55248  0.32554  1.0000
  S   S130      1.0  0.29162  0.33085  0.23104  1.0000
  H   H785      1.0  0.12580  0.60317  0.34360  1.0000
  H   H786      1.0  0.10161  0.35784  0.37394  1.0000
  H   H787      1.0  0.01647  0.62251  0.24841  1.0000
  C   C449      1.0  0.43831  0.41826  0.45502  1.0000
  H   H788      1.0  0.28564  0.63818  0.22516  1.0000
  H   H789      1.0  0.26996  0.47216  0.44809  1.0000
  H   H790      1.0  0.29582  0.34414  0.42360  1.0000
  H   H791      1.0  0.37255  0.44989  0.42308  1.0000
  C   C450      1.0  0.48802  0.34943  0.39407  1.0000
  H   H792      1.0  0.47649  0.52515  0.32887  1.0000
  N   N33       1.0  0.15160  0.64917  0.32427  1.0000
  H   H793      1.0  0.01111  0.46254  0.35546  1.0000
  C   C451      1.0  0.41477  0.65402  0.42938  1.0000
  H   H794      1.0  0.12066  0.53830  0.46738  1.0000
  C   C452      1.0  0.43534  0.32409  0.26751  1.0000
  C   C453      1.0  0.15788  0.63421  0.29718  1.0000
  Fe  Fe63      1.0  0.20638  0.63776  0.47187  1.0000
  C   C454      1.0  0.49030  0.38359  0.30758  1.0000
  C   C455      1.0  0.18044  0.65494  0.27229  1.0000
  C   C456      1.0  0.31842  0.55643  0.47169  1.0000
  S   S131      1.0  0.17925  0.35049  0.62289  1.0000
  Fe  Fe64      1.0  0.24216  0.39284  0.55960  1.0000
  S   S132      1.0  0.20917  0.42176  0.58868  1.0000
  S   S133      1.0  0.27646  0.42079  0.52293  1.0000
  Fe  Fe65      1.0  0.22352  0.38424  0.62272  1.0000
  S   S134      1.0  0.23429  0.39556  0.66439  1.0000
  Fe  Fe66      1.0  0.16835  0.38539  0.58580  1.0000
  S   S135      1.0  0.11650  0.40660  0.58522  1.0000
  H   H795      1.0  0.14638  0.52177  0.50475  1.0000
  S   S136      1.0  0.45663  0.50446  0.49028  1.0000
  S   S137      1.0  0.42736  0.39921  0.54182  1.0000
  H   H796      1.0  0.28218  0.33474  0.50465  1.0000
  Fe  Fe67      1.0  0.42223  0.38404  0.58883  1.0000
  S   S138      1.0  0.42053  0.41393  0.62515  1.0000
  Fe  Fe68      1.0  0.39054  0.35666  0.54233  1.0000
  C   C457      1.0  0.45169  0.62533  0.65318  1.0000
  S   S139      1.0  0.38047  0.52377  0.55148  1.0000
  C   C458      1.0  0.30759  0.44473  0.63264  1.0000
  H   H797      1.0  0.17490  0.58378  0.67771  1.0000
  H   H798      1.0  0.31982  0.48741  0.66699  1.0000
  C   C459      1.0  0.45632  0.43709  0.62998  1.0000
  C   C460      1.0  0.15227  0.64402  0.72034  1.0000
  H   H799      1.0  0.30303  0.43040  0.61563  1.0000
  C   C461      1.0  0.46074  0.44134  0.65740  1.0000
  S   S140      1.0  0.07203  0.45207  0.71250  1.0000
  H   H800      1.0  0.27515  0.44929  0.68883  1.0000
  S   S141      1.0  0.14616  0.51729  0.69483  1.0000
  C   C462      1.0  0.30641  0.44667  0.53312  1.0000
  C   C463      1.0  0.29704  0.46523  0.55517  1.0000
  C   C464      1.0  0.32012  0.48841  0.56107  1.0000
  C   C465      1.0  0.35269  0.49308  0.54502  1.0000
  C   C466      1.0  0.36234  0.47396  0.52343  1.0000
  C   C467      1.0  0.33925  0.45080  0.51754  1.0000
  H   H801      1.0  0.27172  0.46235  0.56721  1.0000
  H   H802      1.0  0.31250  0.50317  0.57774  1.0000
  H   H803      1.0  0.38758  0.47690  0.51128  1.0000
  H   H804      1.0  0.34690  0.43576  0.50108  1.0000
  C   C468      1.0  0.08651  0.38666  0.57012  1.0000
  C   C469      1.0  0.09559  0.37480  0.54440  1.0000
  C   C470      1.0  0.07019  0.36307  0.53082  1.0000
  C   C471      1.0  0.03603  0.36161  0.54377  1.0000
  C   C472      1.0  0.02717  0.37273  0.56980  1.0000
  C   C473      1.0  0.05233  0.38556  0.58279  1.0000
  H   H805      1.0  0.11507  0.58173  0.69408  1.0000
  H   H806      1.0  0.04518  0.39442  0.60284  1.0000
  C   C474      1.0  0.17310  0.48494  0.68697  1.0000
  H   H807      1.0  0.47592  0.44992  0.58599  1.0000
  C   C475      1.0  0.19477  0.43061  0.70059  1.0000
  C   C476      1.0  0.21152  0.43036  0.67313  1.0000
  C   C477      1.0  0.21003  0.45796  0.65283  1.0000
  C   C478      1.0  0.19130  0.48554  0.65989  1.0000
  C   C479      1.0  0.15640  0.49639  0.50386  1.0000
  H   H808      1.0  0.26677  0.33700  0.70220  1.0000
  H   H809      1.0  0.22364  0.45822  0.63178  1.0000
  H   H810      1.0  0.18997  0.50676  0.64415  1.0000
  Fe  Fe69      1.0  0.42275  0.53775  0.51527  1.0000
  C   C480      1.0  0.11756  0.59987  0.70877  1.0000
  C   C481      1.0  0.35416  0.41595  0.69582  1.0000
  S   S142      1.0  0.03962  0.54255  0.53717  1.0000
  C   C482      1.0  0.14370  0.64421  0.67144  1.0000
  H   H811      1.0  0.13384  0.64427  0.62848  1.0000
  S   S143      1.0  0.46530  0.57259  0.51823  1.0000
  H   H812      1.0  0.31221  0.39823  0.65803  1.0000
  H   H813      1.0  0.34186  0.36591  0.68736  1.0000
  C   C483      1.0  0.09237  0.58706  0.52298  1.0000
  C   C484      1.0  0.05882  0.58121  0.53654  1.0000
  C   C485      1.0  0.04195  0.60527  0.55116  1.0000
  H   H814      1.0  0.47010  0.36235  0.47614  1.0000
  H   H815      1.0  0.01601  0.60072  0.56173  1.0000
  H   H816      1.0  0.06529  0.45103  0.59750  1.0000
  H   H817      1.0  0.20839  0.65136  0.71447  1.0000
  S   S144      1.0  0.34753  0.35644  0.51637  1.0000
  H   H818      1.0  0.12201  0.37526  0.53475  1.0000
  H   H819      1.0  0.10567  0.61753  0.65372  1.0000
  H   H820      1.0  0.28255  0.45295  0.64231  1.0000
  C   C486      1.0  0.09877  0.47407  0.52212  1.0000
  C   C487      1.0  0.17226  0.48707  0.53093  1.0000
  C   C488      1.0  0.06543  0.45714  0.51773  1.0000
  S   S145      1.0  0.00464  0.34447  0.52820  1.0000
  H   H821      1.0  0.10498  0.46236  0.54274  1.0000
  H   H822      1.0  0.09277  0.50011  0.52479  1.0000
  H   H823      1.0  0.15298  0.48595  0.55011  1.0000
  H   H824      1.0  0.18606  0.46341  0.53104  1.0000
  H   H825      1.0  0.19137  0.50646  0.53218  1.0000
  C   C489      1.0  0.13251  0.62649  0.64809  1.0000
  H   H826      1.0  0.05205  0.44513  0.53841  1.0000
  H   H827      1.0  0.99979  0.59001  0.69208  1.0000
  H   H828      1.0  0.00084  0.37180  0.57987  1.0000
  H   H829      1.0  0.07700  0.35463  0.51058  1.0000
  N   N34       1.0  0.37204  0.64404  0.55137  1.0000
  H   H830      1.0  0.47149  0.33815  0.69782  1.0000
  H   H831      1.0  0.04738  0.47578  0.50998  1.0000
  H   H832      1.0  0.05837  0.56662  0.63236  1.0000
  C   C490      1.0  0.45378  0.54287  0.65996  1.0000
  H   H833      1.0  0.41353  0.57767  0.58610  1.0000
  C   C491      1.0  0.04718  0.47138  0.59933  1.0000
  Fe  Fe70      1.0  0.46709  0.35997  0.53990  1.0000
  H   H834      1.0  0.06908  0.43768  0.50389  1.0000
  H   H835      1.0  0.03854  0.53987  0.66308  1.0000
  H   H836      1.0  0.32344  0.46663  0.62243  1.0000
  H   H837      1.0  0.21340  0.56600  0.71045  1.0000
  Fe  Fe71      1.0  0.45212  0.60017  0.47837  1.0000
  C   C492      1.0  0.33683  0.64652  0.56778  1.0000
  H   H838      1.0  0.33868  0.61534  0.60808  1.0000
  C   C493      1.0  0.17930  0.60158  0.69222  1.0000
  H   H839      1.0  0.03232  0.50953  0.62448  1.0000
  H   H840      1.0  0.07890  0.51988  0.48127  1.0000
  H   H841      1.0  0.43326  0.61746  0.57584  1.0000
  C   C494      1.0  0.33405  0.64144  0.60003  1.0000
  H   H842      1.0  0.40267  0.60261  0.53921  1.0000
  C   C495      1.0  0.40815  0.60450  0.58193  1.0000
  C   C496      1.0  0.10910  0.61693  0.52386  1.0000
  H   H843      1.0  0.34901  0.59983  0.51799  1.0000
  H   H844      1.0  0.04882  0.48739  0.57887  1.0000
  S   S146      1.0  0.19985  0.35908  0.55368  1.0000
  N   N35       1.0  0.08749  0.50749  0.61996  1.0000
  C   C497      1.0  0.11587  0.48292  0.61692  1.0000
  C   C498      1.0  0.09213  0.53266  0.59381  1.0000
  C   C499      1.0  0.05290  0.49095  0.62319  1.0000
  C   C500      1.0  0.08930  0.52342  0.64584  1.0000
  C   C501      1.0  0.11397  0.45301  0.64023  1.0000
  C   C502      1.0  0.12219  0.55748  0.59104  1.0000
  H   H845      1.0  0.04624  0.65318  0.56448  1.0000
  C   C503      1.0  0.06316  0.55071  0.65162  1.0000
  H   H846      1.0  0.11772  0.47317  0.59652  1.0000
  H   H847      1.0  0.14106  0.49503  0.61639  1.0000
  H   H848      1.0  0.06854  0.54706  0.59189  1.0000
  H   H849      1.0  0.09628  0.52022  0.57459  1.0000
  H   H850      1.0  0.04745  0.47400  0.64341  1.0000
  H   H851      1.0  0.06224  0.59833  0.71907  1.0000
  H   H852      1.0  0.08474  0.50467  0.66492  1.0000
  H   H853      1.0  0.11539  0.53321  0.64609  1.0000
  H   H854      1.0  0.13553  0.43642  0.63481  1.0000
  H   H855      1.0  0.11731  0.46060  0.66064  1.0000
  H   H856      1.0  0.09023  0.43800  0.64234  1.0000
  H   H857      1.0  0.14683  0.54503  0.59249  1.0000
  H   H858      1.0  0.12496  0.57274  0.57010  1.0000
  H   H859      1.0  0.11755  0.57478  0.60685  1.0000
  C   C504      1.0  0.37411  0.47961  0.65685  1.0000
  H   H860      1.0  0.28257  0.40733  0.70045  1.0000
  H   H861      1.0  0.10554  0.56847  0.51178  1.0000
  H   H862      1.0  0.48093  0.37465  0.67208  1.0000
  S   S147      1.0  0.46456  0.34793  0.58636  1.0000
  H   H863      1.0  0.07322  0.56735  0.66477  1.0000
  C   C505      1.0  0.14145  0.43818  0.50061  1.0000
  H   H864      1.0  0.34216  0.48075  0.69608  1.0000
  C   C506      1.0  0.33950  0.47161  0.67597  1.0000
  H   H865      1.0  0.27217  0.50952  0.49896  1.0000
  S   S148      1.0  0.26018  0.35785  0.59399  1.0000
  H   H866      1.0  0.34849  0.62940  0.48724  1.0000
  H   H867      1.0  0.37591  0.46993  0.63648  1.0000
  H   H868      1.0  0.13505  0.62103  0.51333  1.0000
  H   H869      1.0  0.02125  0.45986  0.60400  1.0000
  H   H870      1.0  0.22776  0.32746  0.67678  1.0000
  H   H871      1.0  0.44317  0.42938  0.67513  1.0000
  H   H872      1.0  0.07752  0.63471  0.69615  1.0000
  C   C507      1.0  0.29343  0.43273  0.69888  1.0000
  H   H873      1.0  0.30747  0.64659  0.60918  1.0000
  S   S149      1.0  0.38126  0.34538  0.58953  1.0000
  C   C508      1.0  0.15543  0.33752  0.71012  1.0000
  H   H874      1.0  0.37917  0.41650  0.68175  1.0000
  H   H875      1.0  0.39558  0.47010  0.66763  1.0000
  N   N36       1.0  0.12895  0.47314  0.49923  1.0000
  H   H876      1.0  0.39531  0.61193  0.60188  1.0000
  H   H877      1.0  0.20152  0.61720  0.68111  1.0000
  N   N37       1.0  0.32832  0.43575  0.68115  1.0000
  H   H878      1.0  0.37778  0.50684  0.65202  1.0000
  H   H879      1.0  0.14589  0.42850  0.52228  1.0000
  H   H880      1.0  0.42879  0.61424  0.66745  1.0000
  H   H881      1.0  0.43557  0.56205  0.65399  1.0000
  H   H882      1.0  0.03985  0.65540  0.49399  1.0000
  H   H883      1.0  0.35148  0.41750  0.64275  1.0000
  H   H884      1.0  0.12173  0.42140  0.49588  1.0000
  C   C509      1.0  0.05908  0.63487  0.55274  1.0000
  N   N38       1.0  0.14822  0.62237  0.69826  1.0000
  S   S150      1.0  0.40647  0.56852  0.47797  1.0000
  C   C510      1.0  0.32588  0.42261  0.65392  1.0000
  C   C511      1.0  0.38629  0.60997  0.55799  1.0000
  H   H885      1.0  0.43895  0.52278  0.67452  1.0000
  H   H886      1.0  0.31720  0.63184  0.51722  1.0000
  H   H887      1.0  0.29054  0.55955  0.47332  1.0000
  C   C512      1.0  0.08309  0.61727  0.71433  1.0000
  H   H888      1.0  0.16168  0.34329  0.68692  1.0000
  H   H889      1.0  0.31899  0.62783  0.56305  1.0000
  S   S151      1.0  0.20478  0.64570  0.51684  1.0000
  C   C513      1.0  0.34436  0.62611  0.51060  1.0000
  C   C514      1.0  0.34503  0.37902  0.70537  1.0000
  H   H890      1.0  0.19621  0.40966  0.71652  1.0000
  H   H891      1.0  0.14922  0.60570  0.64296  1.0000
  C   C515      1.0  0.09267  0.64078  0.53891  1.0000
  H   H892      1.0  0.24119  0.48083  0.49402  1.0000
  C   C516      1.0  0.48828  0.46026  0.66218  1.0000
  H   H893      1.0  0.14249  0.35952  0.71771  1.0000
  H   H894      1.0  0.32442  0.55574  0.49338  1.0000
  H   H895      1.0  0.46927  0.55994  0.69617  1.0000
  C   C517      1.0  0.17489  0.45757  0.70733  1.0000
  C   C518      1.0  0.48177  0.55572  0.67484  1.0000
  H   H896      1.0  0.36532  0.59100  0.56310  1.0000
  C   C519      1.0  0.36872  0.64995  0.52050  1.0000
  H   H897      1.0  0.36638  0.36706  0.71511  1.0000
  H   H898      1.0  0.48459  0.32643  0.65148  1.0000
  H   H899      1.0  0.47584  0.37860  0.70798  1.0000
  H   H900      1.0  0.46511  0.53161  0.64118  1.0000
  H   H901      1.0  0.35947  0.42705  0.71445  1.0000
  H   H902      1.0  0.47635  0.61617  0.68927  1.0000
  H   H903      1.0  0.17761  0.49913  0.48588  1.0000
  C   C520      1.0  0.48607  0.36195  0.69252  1.0000
  H   H904      1.0  0.20472  0.35331  0.71619  1.0000
  C   C521      1.0  0.17427  0.43263  0.48036  1.0000
  H   H905      1.0  0.99639  0.58581  0.64393  1.0000
  H   H906      1.0  0.39384  0.64772  0.50728  1.0000
  C   C522      1.0  0.47931  0.45267  0.60724  1.0000
  C   C523      1.0  0.19102  0.58067  0.71787  1.0000
  H   H907      1.0  0.99544  0.35533  0.71068  1.0000
  Fe  Fe72      1.0  0.21451  0.32663  0.59126  1.0000
  H   H908      1.0  0.44884  0.65261  0.64994  1.0000
  H   H909      1.0  0.18103  0.40613  0.48413  1.0000
  H   H910      1.0  0.45232  0.61782  0.63214  1.0000
  H   H911      1.0  0.19640  0.44697  0.48402  1.0000
  H   H912      1.0  0.41055  0.35712  0.47700  1.0000
  C   C524      1.0  0.25931  0.50051  0.48261  1.0000
  S   S152      1.0  0.99199  0.48890  0.68884  1.0000
  C   C525      1.0  0.48433  0.61712  0.66624  1.0000
  H   H913      1.0  0.33848  0.50721  0.47789  1.0000
  C   C526      1.0  0.01659  0.34669  0.72116  1.0000
  H   H914      1.0  0.29744  0.46562  0.47383  1.0000
  H   H915      1.0  0.44201  0.65339  0.53434  1.0000
  H   H916      1.0  0.24396  0.52014  0.47271  1.0000
  H   H917      1.0  0.48783  0.58113  0.61911  1.0000
  H   H918      1.0  0.32190  0.37533  0.72151  1.0000
  Fe  Fe73      1.0  0.37443  0.40104  0.82271  1.0000
  S   S153      1.0  0.35519  0.41600  0.78180  1.0000
  S   S154      1.0  0.42383  0.37551  0.82563  1.0000
  Fe  Fe74      1.0  0.31854  0.43428  0.85617  1.0000
  S   S155      1.0  0.29408  0.45358  0.81868  1.0000
  S   S156      1.0  0.30073  0.44362  0.90007  1.0000
  Fe  Fe75      1.0  0.30351  0.40266  0.80694  1.0000
  H   H919      1.0  0.44762  0.45401  0.90398  1.0000
  Fe  Fe76      1.0  0.34751  0.46548  0.79688  1.0000
  S   S157      1.0  0.36262  0.51181  0.76649  1.0000
  S   S158      1.0  0.32362  0.38245  0.84639  1.0000
  S   S159      1.0  0.37081  0.45136  0.83582  1.0000
  H   H920      1.0  0.19912  0.59607  0.73286  1.0000
  H   H921      1.0  0.00085  0.38441  0.91753  1.0000
  H   H922      1.0  0.02007  0.39084  0.74038  1.0000
  S   S160      1.0  0.14119  0.44431  0.91518  1.0000
  H   H923      1.0  0.26423  0.43840  0.73952  1.0000
  H   H924      1.0  0.08159  0.63022  0.73311  1.0000
  H   H925      1.0  0.01824  0.41485  0.93568  1.0000
  H   H926      1.0  0.00877  0.44579  0.83202  1.0000
  H   H927      1.0  0.02992  0.37245  0.94132  1.0000
  H   H928      1.0  0.18808  0.46311  0.94964  1.0000
  H   H929      1.0  0.36147  0.63849  0.86955  1.0000
  Fe  Fe77      1.0  0.10063  0.49408  0.72388  1.0000
  Fe  Fe78      1.0  0.05098  0.49977  0.77655  1.0000
  S   S161      1.0  0.09908  0.47149  0.76861  1.0000
  S   S162      1.0  0.04804  0.52396  0.81629  1.0000
  C   C527      1.0  0.26392  0.32638  0.72464  1.0000
  H   H930      1.0  0.36779  0.42302  0.91940  1.0000
  Fe  Fe79      1.0  0.06500  0.43285  0.75836  1.0000
  S   S163      1.0  0.07444  0.37973  0.77360  1.0000
  H   H931      1.0  0.36479  0.61500  0.84108  1.0000
  C   C528      1.0  0.47262  0.61566  0.88017  1.0000
  H   H932      1.0  0.25733  0.34672  0.73744  1.0000
  H   H933      1.0  0.19102  0.35590  0.89371  1.0000
  H   H934      1.0  0.30976  0.32816  0.78324  1.0000
  C   C529      1.0  0.46272  0.35168  0.86506  1.0000
  C   C530      1.0  0.43012  0.36142  0.86010  1.0000
  H   H935      1.0  0.22403  0.54487  0.96433  1.0000
  H   H936      1.0  0.21351  0.37039  0.93429  1.0000
  H   H937      1.0  0.28567  0.55820  0.94808  1.0000
  H   H938      1.0  0.16093  0.45710  0.72831  1.0000
  C   C531      1.0  0.25646  0.43951  0.90621  1.0000
  C   C532      1.0  0.23942  0.42621  0.88696  1.0000
  C   C533      1.0  0.20378  0.42748  0.88968  1.0000
  C   C534      1.0  0.18538  0.44115  0.91209  1.0000
  C   C535      1.0  0.20234  0.45255  0.93226  1.0000
  C   C536      1.0  0.23796  0.45187  0.92925  1.0000
  H   H939      1.0  0.19060  0.41830  0.87427  1.0000
  H   H940      1.0  0.39176  0.33288  0.78100  1.0000
  H   H941      1.0  0.24799  0.37647  0.96509  1.0000
  C   C537      1.0  0.10704  0.55740  0.79068  1.0000
  H   H942      1.0  0.10808  0.54066  0.77521  1.0000
  Fe  Fe80      1.0  0.17975  0.65415  0.84076  1.0000
  H   H943      1.0  0.07686  0.40739  0.91075  1.0000
  H   H944      1.0  0.37583  0.47528  0.92006  1.0000
  H   H945      1.0  0.47724  0.42162  0.86840  1.0000
  H   H946      1.0  0.03535  0.37900  0.85764  1.0000
  H   H947      1.0  0.28863  0.36026  0.96976  1.0000
  S   S164      1.0  0.16563  0.63355  0.80299  1.0000
  H   H948      1.0  0.00555  0.44836  0.89465  1.0000
  Fe  Fe81      1.0  0.21140  0.63478  0.89375  1.0000
  H   H949      1.0  0.45449  0.59530  0.75062  1.0000
  H   H950      1.0  0.33473  0.57851  0.96789  1.0000
  H   H951      1.0  0.41439  0.55723  0.73552  1.0000
  H   H952      1.0  0.17110  0.56260  0.72905  1.0000
  H   H953      1.0  0.06642  0.45931  0.91475  1.0000
  C   C538      1.0  0.35230  0.63672  0.84929  1.0000
  S   S165      1.0  0.46196  0.61106  0.80598  1.0000
  H   H954      1.0  0.41900  0.50341  0.97089  1.0000
  C   C539      1.0  0.18795  0.33115  0.72372  1.0000
  H   H955      1.0  0.43369  0.65491  0.92934  1.0000
  S   S166      1.0  0.25941  0.37823  0.79311  1.0000
  C   C540      1.0  0.39118  0.53828  0.77768  1.0000
  C   C541      1.0  0.39110  0.53974  0.80630  1.0000
  C   C542      1.0  0.41340  0.56171  0.81479  1.0000
  C   C543      1.0  0.43600  0.58221  0.79473  1.0000
  C   C544      1.0  0.43657  0.58024  0.76615  1.0000
  C   C545      1.0  0.41399  0.55854  0.75765  1.0000
  H   H956      1.0  0.37332  0.52449  0.82188  1.0000
  H   H957      1.0  0.41283  0.56315  0.83692  1.0000
  C   C546      1.0  0.36070  0.48552  0.93799  1.0000
  H   H958      1.0  0.25368  0.41618  0.86933  1.0000
  C   C547      1.0  0.13193  0.60386  0.80769  1.0000
  C   C548      1.0  0.10529  0.60123  0.83048  1.0000
  C   C549      1.0  0.07949  0.57666  0.83322  1.0000
  C   C550      1.0  0.08006  0.55495  0.81305  1.0000
  C   C551      1.0  0.13293  0.58135  0.78833  1.0000
  H   H959      1.0  0.10430  0.61827  0.84575  1.0000
  H   H960      1.0  0.05874  0.57489  0.85065  1.0000
  H   H961      1.0  0.15435  0.58188  0.77181  1.0000
  H   H962      1.0  0.44590  0.48892  0.87768  1.0000
  H   H963      1.0  0.37003  0.53126  0.95622  1.0000
  H   H964      1.0  0.18997  0.33806  0.95771  1.0000
  H   H965      1.0  0.03321  0.48802  0.91361  1.0000
  S   S167      1.0  0.23736  0.59300  0.91682  1.0000
  H   H966      1.0  0.07997  0.45057  0.83963  1.0000
  H   H967      1.0  0.15138  0.62918  0.74134  1.0000
  S   S168      1.0  0.01596  0.45945  0.76870  1.0000
  H   H968      1.0  0.40271  0.52233  0.92820  1.0000
  N   N39       1.0  0.04914  0.42199  0.87572  1.0000
  H   H969      1.0  0.48357  0.35291  0.84768  1.0000
  H   H970      1.0  0.06286  0.37419  0.89579  1.0000
  N   N40       1.0  0.36097  0.46241  0.96500  1.0000
  H   H971      1.0  0.47524  0.53165  0.82791  1.0000
  C   C552      1.0  0.25652  0.32569  0.95475  1.0000
  C   C553      1.0  0.45314  0.64839  0.87662  1.0000
  H   H972      1.0  0.33461  0.48739  0.93210  1.0000
  C   C554      1.0  0.05501  0.39888  0.90149  1.0000
  H   H973      1.0  0.28086  0.37394  0.93502  1.0000
  H   H974      1.0  0.00408  0.40588  0.82199  1.0000
  S   S169      1.0  0.15717  0.63535  0.88527  1.0000
  H   H975      1.0  0.25116  0.46202  0.94418  1.0000
  C   C555      1.0  0.05755  0.35531  0.75190  1.0000
  H   H976      1.0  0.10013  0.44331  0.86972  1.0000
  N   N41       1.0  0.20049  0.52805  0.85325  1.0000
  C   C556      1.0  0.18421  0.53284  0.88261  1.0000
  C   C557      1.0  0.23508  0.51331  0.85514  1.0000
  C   C558      1.0  0.17810  0.50386  0.84303  1.0000
  C   C559      1.0  0.20265  0.56101  0.83472  1.0000
  C   C560      1.0  0.14660  0.54355  0.88595  1.0000
  C   C561      1.0  0.25865  0.53192  0.87051  1.0000
  C   C562      1.0  0.19054  0.49349  0.81395  1.0000
  C   C563      1.0  0.23154  0.56615  0.80922  1.0000
  H   H977      1.0  0.18550  0.50985  0.89757  1.0000
  H   H978      1.0  0.19832  0.55201  0.89068  1.0000
  H   H979      1.0  0.24943  0.51076  0.83413  1.0000
  H   H980      1.0  0.23214  0.48780  0.86626  1.0000
  H   H981      1.0  0.17394  0.48085  0.85841  1.0000
  H   H982      1.0  0.15225  0.51404  0.84153  1.0000
  H   H983      1.0  0.17837  0.56565  0.82647  1.0000
  H   H984      1.0  0.20551  0.58171  0.84696  1.0000
  H   H985      1.0  0.14230  0.56443  0.86983  1.0000
  H   H986      1.0  0.12916  0.52253  0.88533  1.0000
  H   H987      1.0  0.13950  0.55184  0.90688  1.0000
  H   H988      1.0  0.31735  0.43571  0.95610  1.0000
  H   H989      1.0  0.25096  0.52653  0.89367  1.0000
  S   S170      1.0  0.23392  0.64921  0.84890  1.0000
  H   H990      1.0  0.17365  0.47309  0.81078  1.0000
  H   H991      1.0  0.21680  0.48382  0.81184  1.0000
  H   H992      1.0  0.18794  0.51394  0.79691  1.0000
  H   H993      1.0  0.25685  0.56834  0.81592  1.0000
  H   H994      1.0  0.22737  0.58976  0.79595  1.0000
  H   H995      1.0  0.23242  0.54646  0.79569  1.0000
  H   H996      1.0  0.30570  0.42291  0.74205  1.0000
  C   C564      1.0  0.40310  0.35939  0.88255  1.0000
  H   H997      1.0  0.41303  0.44960  0.94995  1.0000
  H   H998      1.0  0.11105  0.38472  0.86323  1.0000
  H   H999      1.0  0.47792  0.50334  0.78320  1.0000
  C   C565      1.0  0.25647  0.33032  0.90398  1.0000
  C   C566      1.0  0.02397  0.39263  0.92510  1.0000
  H   H1000     1.0  0.38523  0.39869  0.94784  1.0000
  C   C567      1.0  0.33349  0.62788  0.94601  1.0000
  H   H1001     1.0  0.24152  0.34011  0.86221  1.0000
  H   H1002     1.0  0.28520  0.52313  0.86585  1.0000
  C   C568      1.0  0.31738  0.64906  0.92706  1.0000
  H   H1003     1.0  0.36168  0.53788  0.92161  1.0000
  H   H1004     1.0  0.12710  0.41272  0.83251  1.0000
  H   H1005     1.0  0.02845  0.47006  0.86409  1.0000
  H   H1006     1.0  0.44211  0.44501  0.82463  1.0000
  C   C569      1.0  0.44160  0.33842  0.91493  1.0000
  C   C570      1.0  0.25721  0.33492  0.80015  1.0000
  C   C571      1.0  0.46286  0.47992  0.78908  1.0000
  C   C572      1.0  0.02119  0.42154  0.83110  1.0000
  H   H1007     1.0  0.46982  0.60427  0.90248  1.0000
  C   C573      1.0  0.27646  0.60559  0.92535  1.0000
  H   H1008     1.0  0.26019  0.35761  0.89900  1.0000
  H   H1009     1.0  0.06935  0.49212  0.88566  1.0000
  C   C574      1.0  0.10329  0.40259  0.84610  1.0000
  H   H1010     1.0  0.34463  0.38850  0.93937  1.0000
  H   H1011     1.0  0.01211  0.64456  0.95510  1.0000
  H   H1012     1.0  0.47419  0.46059  0.77680  1.0000
  C   C575      1.0  0.40875  0.34734  0.90994  1.0000
  H   H1013     1.0  0.27577  0.65499  0.90320  1.0000
  C   C576      1.0  0.45792  0.46809  0.82096  1.0000
  H   H1014     1.0  0.15786  0.36109  0.92163  1.0000
  C   C577      1.0  0.08305  0.43137  0.85769  1.0000
  S   S171      1.0  0.01541  0.60575  0.77049  1.0000
  C   C578      1.0  0.26888  0.36129  0.95583  1.0000
  H   H1015     1.0  0.08905  0.38951  0.83281  1.0000
  H   H1016     1.0  0.48177  0.33575  0.76845  1.0000
  C   C579      1.0  0.36166  0.40945  0.94093  1.0000
  S   S172      1.0  0.05500  0.52535  0.73202  1.0000
  H   H1017     1.0  0.08327  0.33926  0.95335  1.0000
  H   H1018     1.0  0.25878  0.55903  0.86408  1.0000
  H   H1019     1.0  0.12042  0.58454  0.72899  1.0000
  H   H1020     1.0  0.42598  0.64185  0.88517  1.0000
  C   C580      1.0  0.32220  0.59497  0.95343  1.0000
  C   C581      1.0  0.44808  0.46175  0.88112  1.0000
  H   H1021     1.0  0.04550  0.42446  0.81631  1.0000
  H   H1022     1.0  0.27643  0.62956  0.79984  1.0000
  C   C582      1.0  0.02613  0.40431  0.86032  1.0000
  H   H1023     1.0  0.36966  0.61956  0.79537  1.0000
  H   H1024     1.0  0.20361  0.33376  0.81697  1.0000
  C   C583      1.0  0.29435  0.58359  0.94238  1.0000
  H   H1025     1.0  0.37785  0.36676  0.87886  1.0000
  H   H1026     1.0  0.99642  0.53742  0.78173  1.0000
  C   C584      1.0  0.05162  0.47420  0.90018  1.0000
  H   H1027     1.0  0.44184  0.48687  0.83083  1.0000
  C   C585      1.0  0.03207  0.45320  0.88340  1.0000
  C   C586      1.0  0.39687  0.45380  0.96992  1.0000
  C   C587      1.0  0.48105  0.44903  0.86501  1.0000
  C   C588      1.0  0.29133  0.44072  0.72922  1.0000
  H   H1028     1.0  0.46154  0.59773  0.86861  1.0000
  C   C589      1.0  0.17934  0.34486  0.91512  1.0000
  C   C590      1.0  0.37491  0.52095  0.93625  1.0000
  S   S173      1.0  0.36779  0.64313  0.95976  1.0000
  C   C591      1.0  0.20480  0.34423  0.93617  1.0000
  H   H1029     1.0  0.42520  0.45030  0.87537  1.0000
  H   H1030     1.0  0.38783  0.34502  0.92717  1.0000
  C   C592      1.0  0.03058  0.36675  0.73792  1.0000
  Fe  Fe82      1.0  0.12463  0.43157  0.96123  1.0000
  C   C593      1.0  0.34294  0.43071  0.96230  1.0000
  H   H1031     1.0  0.30981  0.61283  0.81808  1.0000
  H   H1032     1.0  0.38657  0.62312  0.74683  1.0000
  H   H1033     1.0  0.00006  0.40077  0.87263  1.0000
  H   H1034     1.0  0.31521  0.61849  0.78032  1.0000
  C   C594      1.0  0.28867  0.63807  0.91701  1.0000
  H   H1035     1.0  0.00503  0.65113  0.91018  1.0000
  H   H1036     1.0  0.35240  0.65191  0.74727  1.0000
  H   H1037     1.0  0.43742  0.48476  0.78263  1.0000
  H   H1038     1.0  0.18116  0.33157  0.74676  1.0000
  C   C595      1.0  0.07115  0.32424  0.74847  1.0000
  C   C596      1.0  0.46852  0.34055  0.89245  1.0000
  H   H1039     1.0  0.32425  0.63278  0.85464  1.0000
  C   C597      1.0  0.30449  0.62942  0.79936  1.0000
  H   H1040     1.0  0.49006  0.52115  0.86166  1.0000
  Fe  Fe83      1.0  0.48490  0.65296  0.77312  1.0000
  C   C598      1.0  0.37775  0.64692  0.75369  1.0000
  C   C599      1.0  0.37707  0.64524  0.78576  1.0000
  H   H1041     1.0  0.40400  0.64822  0.78916  1.0000
  H   H1042     1.0  0.47715  0.64489  0.92774  1.0000
  S   S174      1.0  0.45024  0.32510  0.94892  1.0000
  Fe  Fe84      1.0  0.02557  0.48179  0.72311  1.0000
  N   N42       1.0  0.48995  0.46172  0.83394  1.0000
  H   H1043     1.0  0.29975  0.50047  0.97112  1.0000
  H   H1044     1.0  0.30005  0.46623  0.73013  1.0000
  S   S175      1.0  0.12172  0.85632  0.99026  1.0000
  S   S176      1.0  0.18408  0.83790  0.04294  1.0000
  Fe  Fe85      1.0  0.35695  0.72272  0.02487  1.0000
  S   S177      1.0  0.37302  0.75035  0.05797  1.0000
  Fe  Fe86      1.0  0.38825  0.96971  0.14631  1.0000
  S   S178      1.0  0.42155  0.79442  0.00527  1.0000
  Fe  Fe87      1.0  0.42604  0.74708  0.03399  1.0000
  H   H1045     1.0  0.05193  0.74181  0.08966  1.0000
  Fe  Fe88      1.0  0.36761  0.79517  0.02677  1.0000
  S   S179      1.0  0.34465  0.84386  0.03547  1.0000
  S   S180      1.0  0.41044  0.71596  0.00311  1.0000
  S   S181      1.0  0.34695  0.76778  0.99608  1.0000
  H   H1046     1.0  0.36043  0.89390  0.07927  1.0000
  H   H1047     1.0  0.41713  0.82718  0.06339  1.0000
  S   S182      1.0  0.16253  0.70109  0.07190  1.0000
  Fe  Fe89      1.0  0.27654  0.74660  0.19830  1.0000
  C   C600      1.0  0.47721  0.67746  0.06860  1.0000
  S   S183      1.0  0.29202  0.74507  0.15183  1.0000
  C   C601      1.0  0.05504  0.75030  0.06668  1.0000
  H   H1048     1.0  0.07837  0.96907  0.97804  1.0000
  H   H1049     1.0  0.24186  0.68696  0.15451  1.0000
  H   H1050     1.0  0.26628  0.87851  0.11532  1.0000
  C   C602      1.0  0.11978  0.87756  0.20965  1.0000
  S   S184      1.0  0.24354  0.78914  0.20987  1.0000
  Fe  Fe90      1.0  0.09825  0.90571  0.99502  1.0000
  S   S185      1.0  0.34654  0.94117  0.17657  1.0000
  H   H1051     1.0  0.12640  0.69997  0.01902  1.0000
  Fe  Fe91      1.0  0.16545  0.94282  0.97718  1.0000
  H   H1052     1.0  0.13655  0.85623  0.20642  1.0000
  H   H1053     1.0  0.15502  0.74638  0.01425  1.0000
  S   S186      1.0  0.13720  0.92193  0.01953  1.0000
  H   H1054     1.0  0.28022  0.66688  0.17978  1.0000
  H   H1055     1.0  0.20071  0.96686  0.03646  1.0000
  H   H1056     1.0  0.13261  0.76216  0.04510  1.0000
  H   H1057     1.0  0.11172  0.70892  0.98597  1.0000
  C   C603      1.0  0.40337  0.96472  0.02676  1.0000
  C   C604      1.0  0.31885  0.71406  0.13905  1.0000
  C   C605      1.0  0.34771  0.70396  0.15111  1.0000
  C   C606      1.0  0.36986  0.68086  0.13920  1.0000
  Fe  Fe92      1.0  0.37629  0.95379  0.20953  1.0000
  C   C607      1.0  0.33322  0.67603  0.10457  1.0000
  C   C608      1.0  0.31175  0.70009  0.11567  1.0000
  H   H1058     1.0  0.35358  0.71474  0.16898  1.0000
  H   H1059     1.0  0.13398  0.89983  0.19781  1.0000
  H   H1060     1.0  0.25599  0.84578  0.14468  1.0000
  H   H1061     1.0  0.28960  0.70775  0.10605  1.0000
  H   H1062     1.0  0.43967  0.91117  0.20641  1.0000
  H   H1063     1.0  0.43176  0.86664  0.06867  1.0000
  C   C609      1.0  0.22613  0.66685  0.14952  1.0000
  C   C610      1.0  0.20626  0.69572  0.06189  1.0000
  H   H1064     1.0  0.05707  0.70075  0.05743  1.0000
  S   S187      1.0  0.47468  0.74554  0.05375  1.0000
  S   S188      1.0  0.41996  0.97871  0.17924  1.0000
  H   H1065     1.0  0.08103  0.65872  0.03729  1.0000
  H   H1066     1.0  0.04743  0.78259  0.98348  1.0000
  C   C611      1.0  0.22881  0.83978  0.03990  1.0000
  C   C612      1.0  0.24669  0.81109  0.04714  1.0000
  C   C613      1.0  0.28235  0.81208  0.04499  1.0000
  C   C614      1.0  0.30022  0.84211  0.03651  1.0000
  C   C615      1.0  0.28233  0.87102  0.02982  1.0000
  C   C616      1.0  0.24670  0.86975  0.03097  1.0000
  H   H1067     1.0  0.23306  0.78796  0.05415  1.0000
  H   H1068     1.0  0.29595  0.78967  0.05047  1.0000
  H   H1069     1.0  0.29619  0.89419  0.02339  1.0000
  H   H1070     1.0  0.23290  0.89193  0.02546  1.0000
  H   H1071     1.0  0.39153  0.78921  0.11223  1.0000
  H   H1072     1.0  0.27578  0.73683  0.02238  1.0000
  C   C617      1.0  0.36276  0.83433  0.11564  1.0000
  H   H1073     1.0  0.23953  0.96119  0.99430  1.0000
  H   H1074     1.0  0.25833  0.94517  0.02393  1.0000
  H   H1075     1.0  0.34021  0.85424  0.19572  1.0000
  C   C618      1.0  0.30132  0.83614  0.11467  1.0000
  H   H1076     1.0  0.06081  0.66831  0.00627  1.0000
  C   C619      1.0  0.26605  0.85146  0.12196  1.0000
  H   H1077     1.0  0.48708  0.76924  0.20948  1.0000
  Fe  Fe93      1.0  0.40138  0.76367  0.97669  1.0000
  C   C620      1.0  0.25704  0.66296  0.06358  1.0000
  S   S189      1.0  0.23833  0.70751  0.21981  1.0000
  C   C621      1.0  0.99968  0.67153  0.09140  1.0000
  H   H1078     1.0  0.02938  0.71489  0.01917  1.0000
  S   S190      1.0  0.08116  0.66382  0.11641  1.0000
  S   S191      1.0  0.04218  0.91201  0.01006  1.0000
  H   H1079     1.0  0.01212  0.66694  0.10975  1.0000
  H   H1080     1.0  0.36198  0.81952  0.18400  1.0000
  C   C622      1.0  0.22282  0.98442  0.03075  1.0000
  C   C623      1.0  0.14552  0.70042  0.20761  1.0000
  H   H1081     1.0  0.09707  0.71761  0.06035  1.0000
  C   C624      1.0  0.03020  0.95341  0.00299  1.0000
  H   H1082     1.0  0.08759  0.78444  0.01638  1.0000
  H   H1083     1.0  0.07512  0.82522  0.21414  1.0000
  N   N43       1.0  0.15208  0.77888  0.12898  1.0000
  C   C625      1.0  0.13476  0.74547  0.13132  1.0000
  C   C626      1.0  0.18454  0.77873  0.10819  1.0000
  C   C627      1.0  0.12852  0.80437  0.11720  1.0000
  C   C628      1.0  0.15851  0.78454  0.15782  1.0000
  C   C629      1.0  0.09978  0.74057  0.15053  1.0000
  C   C630      1.0  0.21048  0.75203  0.11590  1.0000
  C   C631      1.0  0.14001  0.84084  0.11400  1.0000
  C   C632      1.0  0.18751  0.80929  0.15898  1.0000
  H   H1084     1.0  0.13070  0.74015  0.11020  1.0000
  H   H1085     1.0  0.15110  0.72535  0.13954  1.0000
  H   H1086     1.0  0.19838  0.80280  0.10449  1.0000
  H   H1087     1.0  0.17849  0.77512  0.08709  1.0000
  H   H1088     1.0  0.12378  0.79928  0.09609  1.0000
  H   H1089     1.0  0.10319  0.80325  0.13070  1.0000
  H   H1090     1.0  0.13483  0.79265  0.17035  1.0000
  H   H1091     1.0  0.16563  0.76081  0.16956  1.0000
  H   H1092     1.0  0.09262  0.71390  0.15402  1.0000
  H   H1093     1.0  0.10026  0.74800  0.17156  1.0000
  H   H1094     1.0  0.07921  0.75355  0.14053  1.0000
  H   H1095     1.0  0.23571  0.75817  0.10269  1.0000
  H   H1096     1.0  0.21436  0.74965  0.13815  1.0000
  H   H1097     1.0  0.20245  0.72772  0.11125  1.0000
  H   H1098     1.0  0.13881  0.84947  0.13480  1.0000
  H   H1099     1.0  0.12208  0.85625  0.10250  1.0000
  H   H1100     1.0  0.16565  0.84580  0.10145  1.0000
  H   H1101     1.0  0.18187  0.82006  0.17894  1.0000
  H   H1102     1.0  0.19125  0.83008  0.14173  1.0000
  H   H1103     1.0  0.21193  0.79623  0.16004  1.0000
  H   H1104     1.0  0.29750  0.80901  0.12045  1.0000
  H   H1105     1.0  0.06976  0.77393  0.06274  1.0000
  C   C633      1.0  0.40424  0.96579  0.07650  1.0000
  C   C634      1.0  0.30966  0.96913  0.98611  1.0000
  H   H1106     1.0  0.48208  0.97902  0.05232  1.0000
  C   C635      1.0  0.09135  0.67239  0.20849  1.0000
  C   C636      1.0  0.03222  0.76627  0.00115  1.0000
  H   H1107     1.0  0.48774  0.87205  0.20610  1.0000
  N   N44       1.0  0.32969  0.84852  0.12819  1.0000
  Fe  Fe94      1.0  0.13553  0.65696  0.09837  1.0000
  C   C637      1.0  0.33268  0.88573  0.12277  1.0000
  C   C638      1.0  0.32189  0.83787  0.15950  1.0000
  H   H1108     1.0  0.10837  0.76710  0.98706  1.0000
  C   C639      1.0  0.33651  0.90137  0.09163  1.0000
  C   C640      1.0  0.35094  0.84351  0.17647  1.0000
  H   H1109     1.0  0.38514  0.84579  0.12218  1.0000
  H   H1110     1.0  0.35523  0.89459  0.13091  1.0000
  H   H1111     1.0  0.29918  0.85093  0.16881  1.0000
  H   H1112     1.0  0.31460  0.81113  0.16403  1.0000
  C   C641      1.0  0.08529  0.66865  0.01459  1.0000
  C   C642      1.0  0.40900  0.94885  0.05308  1.0000
  Fe  Fe95      1.0  0.16336  0.87465  0.01114  1.0000
  H   H1113     1.0  0.33798  0.92866  0.09059  1.0000
  H   H1114     1.0  0.31457  0.89567  0.08133  1.0000
  C   C643      1.0  0.99736  0.96351  0.01331  1.0000
  H   H1115     1.0  0.37174  0.86048  0.16514  1.0000
  C   C644      1.0  0.36283  0.66699  0.11569  1.0000
  S   S192      1.0  0.41188  0.94559  0.10915  1.0000
  H   H1116     1.0  0.32475  0.96054  0.04117  1.0000
  H   H1117     1.0  0.46590  0.66488  0.14487  1.0000
  H   H1118     1.0  0.41686  0.92341  0.05526  1.0000
  C   C645      1.0  0.27644  0.68813  0.04564  1.0000
  C   C646      1.0  0.25147  0.96868  0.01182  1.0000
  H   H1119     1.0  0.21335  0.74330  0.03634  1.0000
  H   H1120     1.0  0.09622  0.87533  0.20036  1.0000
  H   H1121     1.0  0.34720  0.78348  0.11199  1.0000
  H   H1122     1.0  0.27780  0.83575  0.98032  1.0000
  H   H1123     1.0  0.24793  0.84052  0.11027  1.0000
  H   H1124     1.0  0.22914  0.73468  0.97870  1.0000
  H   H1125     1.0  0.31049  0.89727  0.13451  1.0000
  C   C647      1.0  0.22565  0.72107  0.04423  1.0000
  C   C648      1.0  0.26087  0.71746  0.03633  1.0000
  H   H1126     1.0  0.21964  0.67488  0.12828  1.0000
  H   H1127     1.0  0.17259  0.70309  0.20015  1.0000
  C   C649      1.0  0.36581  0.79645  0.12178  1.0000
  H   H1128     1.0  0.30812  0.83971  0.09148  1.0000
  H   H1129     1.0  0.36654  0.84024  0.09235  1.0000
  H   H1130     1.0  0.13914  0.65887  0.18612  1.0000
  H   H1131     1.0  0.48182  0.98602  0.98261  1.0000
  H   H1132     1.0  0.00461  0.66537  0.98516  1.0000
  H   H1133     1.0  0.39281  0.67409  0.14792  1.0000
  H   H1134     1.0  0.00673  0.76250  0.99506  1.0000
  H   H1135     1.0  0.40705  0.95155  0.00868  1.0000
  H   H1136     1.0  0.02901  0.75425  0.06143  1.0000
  H   H1137     1.0  0.02799  0.77939  0.01975  1.0000
  H   H1138     1.0  0.05406  0.72386  0.98534  1.0000
  C   C650      1.0  0.44013  0.84118  0.06607  1.0000
  S   S193      1.0  0.31901  0.68061  0.03289  1.0000
  H   H1139     1.0  0.31540  0.94720  0.00071  1.0000
  H   H1140     1.0  0.45358  0.67570  0.06022  1.0000
  C   C651      1.0  0.46664  0.84075  0.03959  1.0000
  H   H1141     1.0  0.36297  0.78725  0.14456  1.0000
  C   C652      1.0  0.22191  0.66665  0.07164  1.0000
  H   H1142     1.0  0.14842  0.78929  0.01399  1.0000
  N   N45       1.0  0.08157  0.73098  0.01962  1.0000
  C   C653      1.0  0.10289  0.70319  0.00909  1.0000
  C   C654      1.0  0.10224  0.76265  0.01039  1.0000
  C   C655      1.0  0.04921  0.73233  0.00644  1.0000
  C   C656      1.0  0.07343  0.72337  0.05118  1.0000
  H   H1143     1.0  0.46849  0.81440  0.03645  1.0000
  C   C657      1.0  0.13633  0.76462  0.02184  1.0000
  H   H1144     1.0  0.48838  0.92065  0.07999  1.0000
  H   H1145     1.0  0.33436  0.98282  0.97986  1.0000
  H   H1146     1.0  0.45515  0.85385  0.02164  1.0000
  C   C658      1.0  0.12655  0.67557  0.19942  1.0000
  H   H1147     1.0  0.32716  0.66456  0.08722  1.0000
  C   C659      1.0  0.05297  0.97622  0.98572  1.0000
  H   H1148     1.0  0.00228  0.71767  0.20879  1.0000
  H   H1149     1.0  0.44918  0.82863  0.08522  1.0000
  H   H1150     1.0  0.47447  0.87909  0.09160  1.0000
  C   C660      1.0  0.30485  0.97792  0.04835  1.0000
  H   H1151     1.0  0.24831  0.79211  0.97609  1.0000
  H   H1152     1.0  0.01751  0.69313  0.16679  1.0000
  H   H1153     1.0  0.20178  0.66409  0.16427  1.0000
  H   H1154     1.0  0.47819  0.90288  0.03716  1.0000
  H   H1155     1.0  0.28190  0.96374  0.05963  1.0000
  H   H1156     1.0  0.49026  0.73738  0.18788  1.0000
  H   H1157     1.0  0.18903  0.89168  0.32143  1.0000
  S   S194      1.0  0.38088  0.91857  0.24883  1.0000
  C   C661      1.0  0.24381  0.85416  0.27450  1.0000
  C   C662      1.0  0.45803  0.69747  0.42088  1.0000
  H   H1158     1.0  0.34215  0.97063  0.30603  1.0000
  H   H1159     1.0  0.10797  0.67759  0.28920  1.0000
  H   H1160     1.0  0.47887  0.70990  0.42748  1.0000
  H   H1161     1.0  0.45932  0.82894  0.38418  1.0000
  H   H1162     1.0  0.26704  0.94439  0.25173  1.0000
  S   S195      1.0  0.13841  0.93721  0.41873  1.0000
  C   C663      1.0  0.30955  0.75051  0.39568  1.0000
  H   H1163     1.0  0.99873  0.72655  0.46159  1.0000
  C   C664      1.0  0.11513  0.82315  0.26056  1.0000
  C   C665      1.0  0.11157  0.88236  0.24079  1.0000
  Fe  Fe96      1.0  0.20049  0.71090  0.45230  1.0000
  S   S196      1.0  0.20474  0.75272  0.41686  1.0000
  H   H1164     1.0  0.99568  0.93830  0.42421  1.0000
  H   H1165     1.0  0.10122  0.80218  0.27466  1.0000
  C   C666      1.0  0.46762  0.87005  0.22403  1.0000
  S   S197      1.0  0.16296  0.93418  0.27646  1.0000
  H   H1166     1.0  0.19663  0.89779  0.39466  1.0000
  H   H1167     1.0  0.19812  0.90712  0.43858  1.0000
  C   C667      1.0  0.05617  0.82125  0.23351  1.0000
  C   C668      1.0  0.21231  0.88746  0.44991  1.0000
  Fe  Fe97      1.0  0.99881  0.70275  0.33239  1.0000
  H   H1168     1.0  0.06649  0.75932  0.43067  1.0000
  C   C669      1.0  0.37665  0.98507  0.46374  1.0000
  Fe  Fe98      1.0  0.45815  0.72625  0.32579  1.0000
  S   S198      1.0  0.41015  0.70530  0.35276  1.0000
  Fe  Fe99      1.0  0.04826  0.75830  0.33405  1.0000
  S   S199      1.0  0.10235  0.77613  0.32909  1.0000
  S   S200      1.0  0.46933  0.72929  0.27893  1.0000
  S   S201      1.0  0.02895  0.73855  0.29836  1.0000
  N   N46       1.0  0.29047  0.95505  0.30445  1.0000
  C   C670      1.0  0.44791  0.70857  0.39487  1.0000
  C   C671      1.0  0.42089  0.69276  0.38623  1.0000
  H   H1169     1.0  0.07667  0.97597  0.41741  1.0000
  C   C672      1.0  0.10421  0.94360  0.44472  1.0000
  H   H1170     1.0  0.02806  0.98255  0.45508  1.0000
  Fe  Fe100     1.0  0.26758  0.78460  0.24895  1.0000
  H   H1171     1.0  0.20582  0.82294  0.41288  1.0000
  H   H1172     1.0  0.31801  0.77365  0.40244  1.0000
  C   C673      1.0  0.20210  0.88617  0.30141  1.0000
  H   H1173     1.0  0.05879  0.79577  0.24429  1.0000
  H   H1174     1.0  0.12493  0.74212  0.46734  1.0000
  C   C674      1.0  0.30082  0.66068  0.35532  1.0000
  C   C675      1.0  0.37898  0.96134  0.44134  1.0000
  H   H1175     1.0  0.08899  0.70671  0.45080  1.0000
  Fe  Fe101     1.0  0.20720  0.74964  0.23334  1.0000
  H   H1176     1.0  0.20244  0.86596  0.37268  1.0000
  H   H1177     1.0  0.06450  0.66280  0.44098  1.0000
  C   C676      1.0  0.14403  0.68550  0.31869  1.0000
  C   C677      1.0  0.17381  0.75847  0.39444  1.0000
  C   C678      1.0  0.14511  0.73753  0.39729  1.0000
  C   C679      1.0  0.12180  0.74313  0.37795  1.0000
  C   C680      1.0  0.12784  0.76923  0.35568  1.0000
  C   C681      1.0  0.15629  0.79004  0.35327  1.0000
  C   C682      1.0  0.17883  0.78496  0.37272  1.0000
  H   H1178     1.0  0.14122  0.71692  0.41400  1.0000
  H   H1179     1.0  0.09992  0.72684  0.37967  1.0000
  H   H1180     1.0  0.16114  0.81016  0.33613  1.0000
  H   H1181     1.0  0.20061  0.80145  0.37040  1.0000
  H   H1182     1.0  0.08899  0.69408  0.32038  1.0000
  C   C683      1.0  0.07691  0.96378  0.43859  1.0000
  Fe  Fe102     1.0  0.26388  0.71034  0.25749  1.0000
  H   H1183     1.0  0.33164  0.87878  0.30206  1.0000
  S   S202      1.0  0.27726  0.82579  0.27328  1.0000
  S   S203      1.0  0.22840  0.74843  0.27343  1.0000
  H   H1184     1.0  0.33294  0.97060  0.27180  1.0000
  S   S204      1.0  0.02207  0.71980  0.36734  1.0000
  H   H1185     1.0  0.20038  0.69230  0.34440  1.0000
  H   H1186     1.0  0.31909  0.72970  0.40948  1.0000
  C   C684      1.0  0.23543  0.87120  0.24956  1.0000
  C   C685      1.0  0.21069  0.89581  0.25052  1.0000
  C   C686      1.0  0.19414  0.90349  0.27638  1.0000
  H   H1187     1.0  0.23790  0.85380  0.40884  1.0000
  H   H1188     1.0  0.16644  0.69995  0.30637  1.0000
  C   C687      1.0  0.41455  0.89015  0.24744  1.0000
  C   C688      1.0  0.12903  0.72250  0.22449  1.0000
  H   H1189     1.0  0.34959  0.91580  0.30982  1.0000
  C   C689      1.0  0.46889  0.84533  0.24694  1.0000
  C   C690      1.0  0.44274  0.84287  0.27003  1.0000
  C   C691      1.0  0.41577  0.86537  0.27034  1.0000
  H   H1190     1.0  0.26593  0.84975  0.46615  1.0000
  S   S205      1.0  0.10303  0.95357  0.34537  1.0000
  H   H1191     1.0  0.44341  0.82384  0.28774  1.0000
  H   H1192     1.0  0.39578  0.86351  0.28833  1.0000
  H   H1193     1.0  0.46103  0.72953  0.38158  1.0000
  H   H1194     1.0  0.14925  0.87267  0.44346  1.0000
  H   H1195     1.0  0.36732  0.97328  0.42320  1.0000
  H   H1196     1.0  0.11426  0.87107  0.29548  1.0000
  H   H1197     1.0  0.04106  0.83690  0.27325  1.0000
  S   S206      1.0  0.30512  0.74617  0.23512  1.0000
  H   H1198     1.0  0.03234  0.96830  0.30809  1.0000
  Fe  Fe103     1.0  0.13646  0.96543  0.37626  1.0000
  H   H1199     1.0  0.20354  0.66493  0.27848  1.0000
  C   C692      1.0  0.11232  0.69429  0.30444  1.0000
  H   H1200     1.0  0.04804  0.69112  0.23357  1.0000
  S   S207      1.0  0.15118  0.75586  0.23261  1.0000
  C   C693      1.0  0.16179  0.85156  0.45450  1.0000
  S   S208      1.0  0.18523  0.96772  0.34572  1.0000
  H   H1201     1.0  0.30411  0.94303  0.34618  1.0000
  H   H1202     1.0  0.16421  0.86597  0.39723  1.0000
  C   C694      1.0  0.21586  0.82680  0.46419  1.0000
  H   H1203     1.0  0.26667  0.82380  0.43850  1.0000
  H   H1204     1.0  0.33896  0.67513  0.26007  1.0000
  H   H1205     1.0  0.13605  0.88855  0.24745  1.0000
  H   H1206     1.0  0.26031  0.93556  0.34419  1.0000
  S   S209      1.0  0.48406  0.77465  0.32663  1.0000
  N   N47       1.0  0.20001  0.85370  0.44610  1.0000
  C   C695      1.0  0.07514  0.69377  0.22620  1.0000
  C   C696      1.0  0.99878  0.88611  0.46556  1.0000
  H   H1207     1.0  0.24867  0.86597  0.22951  1.0000
  H   H1208     1.0  0.08119  0.73627  0.24691  1.0000
  C   C697      1.0  0.22683  0.86137  0.30045  1.0000
  C   C698      1.0  0.09388  0.71920  0.23378  1.0000
  N   N48       1.0  0.30889  0.72430  0.35028  1.0000
  C   C699      1.0  0.31169  0.69106  0.36773  1.0000
  C   C700      1.0  0.32463  0.74974  0.36453  1.0000
  C   C701      1.0  0.32937  0.72296  0.32159  1.0000
  C   C702      1.0  0.27172  0.73057  0.34816  1.0000
  H   H1209     1.0  0.00976  0.92608  0.39054  1.0000
  H   H1210     1.0  0.11913  0.81495  0.23958  1.0000
  C   C703      1.0  0.33364  0.75527  0.30093  1.0000
  C   C704      1.0  0.26144  0.76710  0.34232  1.0000
  H   H1211     1.0  0.33837  0.68700  0.37188  1.0000
  H   H1212     1.0  0.29563  0.68991  0.38877  1.0000
  H   H1213     1.0  0.32289  0.77514  0.35356  1.0000
  H   H1214     1.0  0.35255  0.74572  0.36366  1.0000
  H   H1215     1.0  0.35545  0.71387  0.32357  1.0000
  H   H1216     1.0  0.31781  0.70498  0.31040  1.0000
  H   H1217     1.0  0.26344  0.71733  0.33168  1.0000
  H   H1218     1.0  0.25547  0.72042  0.36833  1.0000
  C   C705      1.0  0.02529  0.73437  0.46239  1.0000
  H   H1219     1.0  0.00003  0.87241  0.41061  1.0000
  H   H1220     1.0  0.02188  0.67558  0.43454  1.0000
  C   C706      1.0  0.15113  0.82571  0.26865  1.0000
  H   H1221     1.0  0.23743  0.94877  0.30017  1.0000
  H   H1222     1.0  0.30633  0.92062  0.27463  1.0000
  H   H1223     1.0  0.11608  0.71933  0.29206  1.0000
  H   H1224     1.0  0.35171  0.75102  0.28195  1.0000
  H   H1225     1.0  0.34472  0.77592  0.30938  1.0000
  H   H1226     1.0  0.23858  0.76841  0.33155  1.0000
  H   H1227     1.0  0.28095  0.78377  0.32888  1.0000
  H   H1228     1.0  0.25346  0.77700  0.36239  1.0000
  N   N49       1.0  0.09393  0.85384  0.26070  1.0000
  C   C707      1.0  0.08953  0.86318  0.29008  1.0000
  C   C708      1.0  0.29792  0.92046  0.29759  1.0000
  C   C709      1.0  0.05884  0.84687  0.25381  1.0000
  C   C710      1.0  0.40391  0.66578  0.40370  1.0000
  C   C711      1.0  0.06505  0.89186  0.29574  1.0000
  H   H1229     1.0  0.01948  0.95486  0.27787  1.0000
  C   C712      1.0  0.19208  0.87114  0.39419  1.0000
  H   H1230     1.0  0.04914  0.72302  0.42041  1.0000
  C   C713      1.0  0.03529  0.88075  0.45052  1.0000
  H   H1231     1.0  0.04070  0.66024  0.28511  1.0000
  H   H1232     1.0  0.23956  0.89177  0.44038  1.0000
  Fe  Fe104     1.0  0.15119  0.96096  0.31410  1.0000
  H   H1233     1.0  0.44327  0.66531  0.30727  1.0000
  H   H1234     1.0  0.40587  0.95640  0.43299  1.0000
  H   H1235     1.0  0.00323  0.81821  0.46884  1.0000
  H   H1236     1.0  0.16606  0.67582  0.26289  1.0000
  H   H1237     1.0  0.03902  0.88737  0.29120  1.0000
  H   H1238     1.0  0.06241  0.89454  0.31842  1.0000
  H   H1239     1.0  0.07553  0.91580  0.28402  1.0000
  C   C714      1.0  0.21009  0.84901  0.41570  1.0000
  C   C715      1.0  0.44042  0.89225  0.22417  1.0000
  H   H1240     1.0  0.28127  0.74978  0.39926  1.0000
  H   H1241     1.0  0.28397  0.98609  0.24879  1.0000
  C   C716      1.0  0.25927  0.96614  0.29154  1.0000
  C   C717      1.0  0.14422  0.81956  0.44978  1.0000
  H   H1242     1.0  0.15103  0.83321  0.28966  1.0000
  H   H1243     1.0  0.20829  0.80198  0.45995  1.0000
  H   H1244     1.0  0.13967  0.69667  0.33844  1.0000
  H   H1245     1.0  0.03043  0.82247  0.22709  1.0000
  H   H1246     1.0  0.03853  0.85714  0.44187  1.0000
  H   H1247     1.0  0.30923  0.76233  0.29351  1.0000
  S   S210      1.0  0.00732  0.79590  0.33888  1.0000
  H   H1248     1.0  0.05333  0.88063  0.46588  1.0000
  H   H1249     1.0  0.27446  0.90474  0.30291  1.0000
  C   C718      1.0  0.02221  0.97697  0.28829  1.0000
  C   C719      1.0  0.25525  0.82715  0.46018  1.0000
  H   H1250     1.0  0.23312  0.84804  0.31977  1.0000
  H   H1251     1.0  0.10715  0.66483  0.37305  1.0000
  H   H1252     1.0  0.44618  0.97780  0.45493  1.0000
  C   C720      1.0  0.32547  0.90136  0.31218  1.0000
  C   C721      1.0  0.04947  0.96758  0.45992  1.0000
  S   S211      1.0  0.16164  0.66974  0.46453  1.0000
  C   C722      1.0  0.19156  0.66838  0.35725  1.0000
  H   H1253     1.0  0.16805  0.84227  0.25245  1.0000
  S   S212      1.0  0.24564  0.67798  0.45540  1.0000
  H   H1254     1.0  0.16286  0.80097  0.26982  1.0000
  H   H1255     1.0  0.08026  0.84140  0.30588  1.0000
  H   H1256     1.0  0.26509  0.97993  0.37104  1.0000
  H   H1257     1.0  0.02536  0.76009  0.42012  1.0000
  C   C723      1.0  0.04290  0.74436  0.43178  1.0000
  C   C724      1.0  0.44184  0.66991  0.43795  1.0000
  H   H1258     1.0  0.21279  0.65897  0.36844  1.0000
  C   C725      1.0  0.28226  0.95304  0.33601  1.0000
  H   H1259     1.0  0.31607  0.89273  0.33469  1.0000
  H   H1260     1.0  0.04350  0.90124  0.43336  1.0000
  C   C726      1.0  0.26314  0.96874  0.25927  1.0000
  H   H1261     1.0  0.36538  0.93752  0.44907  1.0000
  H   H1262     1.0  0.20471  0.90925  0.23111  1.0000
  S   S213      1.0  0.26971  0.66671  0.28964  1.0000
  H   H1263     1.0  0.15201  0.79772  0.46339  1.0000
  C   C727      1.0  0.03698  0.66198  0.44966  1.0000
  H   H1264     1.0  0.23913  0.97836  0.25228  1.0000
  H   H1265     1.0  0.04711  0.87012  0.24522  1.0000
  C   C728      1.0  0.27401  0.98566  0.34806  1.0000
  H   H1266     1.0  0.48829  0.86247  0.34375  1.0000
  C   C729      1.0  0.48761  0.82951  0.38224  1.0000
  C   C730      1.0  0.32166  0.97656  0.29291  1.0000
  H   H1267     1.0  0.27482  0.66317  0.34965  1.0000
  H   H1268     1.0  0.14883  0.81516  0.42754  1.0000
  H   H1269     1.0  0.09612  0.90506  0.24136  1.0000
  H   H1270     1.0  0.11618  0.82182  0.45567  1.0000
  H   H1271     1.0  0.99766  0.81959  0.43197  1.0000
  H   H1272     1.0  0.46425  0.93878  0.46538  1.0000
  H   H1273     1.0  0.16985  0.67278  0.37345  1.0000
  H   H1274     1.0  0.42910  0.65762  0.27566  1.0000
  C   C731      1.0  0.10430  0.92775  0.47208  1.0000
  H   H1275     1.0  0.99897  0.91198  0.47037  1.0000
  H   H1276     1.0  0.02254  0.75782  0.47177  1.0000
  Fe  Fe105     1.0  0.20557  0.88852  0.63937  1.0000
  S   S214      1.0  0.16103  0.90204  0.61700  1.0000
  S   S215      1.0  0.20467  0.85654  0.68122  1.0000
  Fe  Fe106     1.0  0.25757  0.92629  0.59225  1.0000
  S   S216      1.0  0.21791  0.94211  0.56497  1.0000
  S   S217      1.0  0.31399  0.93739  0.58251  1.0000
  Fe  Fe107     1.0  0.18713  0.95202  0.60554  1.0000
  C   C732      1.0  0.14292  0.82381  0.68470  1.0000
  Fe  Fe108     1.0  0.19568  0.89059  0.57860  1.0000
  S   S218      1.0  0.18298  0.85491  0.55014  1.0000
  S   S219      1.0  0.22819  0.93960  0.63174  1.0000
  S   S220      1.0  0.23872  0.87378  0.60182  1.0000
  H   H1277     1.0  0.33549  0.97443  0.51529  1.0000
  C   C733      1.0  0.27361  0.72508  0.66481  1.0000
  Fe  Fe109     1.0  0.42695  0.80397  0.58262  1.0000
  S   S221      1.0  0.37714  0.82269  0.60258  1.0000
  H   H1278     1.0  0.01710  0.75605  0.60569  1.0000
  H   H1279     1.0  0.32480  0.76397  0.62377  1.0000
  S   S222      1.0  0.39780  0.89334  0.56368  1.0000
  C   C734      1.0  0.29662  0.73921  0.52279  1.0000
  Fe  Fe110     1.0  0.40714  0.86830  0.60577  1.0000
  S   S223      1.0  0.39633  0.89368  0.64471  1.0000
  Fe  Fe111     1.0  0.37261  0.84570  0.55882  1.0000
  S   S224      1.0  0.32236  0.84163  0.54275  1.0000
  H   H1280     1.0  0.18181  0.89384  0.49097  1.0000
  S   S225      1.0  0.42081  0.82445  0.53863  1.0000
  H   H1281     1.0  0.01646  0.80539  0.65311  1.0000
  H   H1282     1.0  0.32003  0.79108  0.65904  1.0000
  H   H1283     1.0  0.26049  0.81391  0.53071  1.0000
  H   H1284     1.0  0.22966  0.75370  0.65642  1.0000
  C   C735      1.0  0.99515  0.71014  0.52362  1.0000
  H   H1285     1.0  0.36342  0.78379  0.53599  1.0000
  C   C736      1.0  0.42133  0.73592  0.68719  1.0000
  C   C737      1.0  0.45216  0.72536  0.67330  1.0000
  H   H1286     1.0  0.24892  0.81296  0.64615  1.0000
  C   C738      1.0  0.43311  0.74129  0.62849  1.0000
  C   C739      1.0  0.40157  0.75003  0.64244  1.0000
  C   C740      1.0  0.39559  0.74731  0.67182  1.0000
  H   H1287     1.0  0.05451  0.76980  0.56174  1.0000
  C   C741      1.0  0.99251  0.93574  0.66561  1.0000
  H   H1288     1.0  0.38207  0.75947  0.63051  1.0000
  C   C742      1.0  0.08642  0.82223  0.62479  1.0000
  H   H1289     1.0  0.24588  0.75774  0.52152  1.0000
  H   H1290     1.0  0.27173  0.98186  0.70766  1.0000
  C   C743      1.0  0.42791  0.91956  0.65296  1.0000
  C   C744      1.0  0.42010  0.93576  0.67669  1.0000
  C   C745      1.0  0.36561  0.98179  0.58165  1.0000
  S   S226      1.0  0.44283  0.75116  0.59201  1.0000
  H   H1291     1.0  0.40685  0.92502  0.47996  1.0000
  H   H1292     1.0  0.39474  0.93370  0.68842  1.0000
  H   H1293     1.0  0.33625  0.93706  0.65838  1.0000
  C   C746      1.0  0.33015  0.97670  0.58543  1.0000
  H   H1294     1.0  0.10227  0.95859  0.58846  1.0000
  C   C747      1.0  0.30874  0.92947  0.66279  1.0000
  S   S227      1.0  0.48491  0.89793  0.51414  1.0000
  H   H1295     1.0  0.00230  0.77248  0.68043  1.0000
  H   H1296     1.0  0.99344  0.77036  0.64583  1.0000
  C   C748      1.0  0.48570  0.94227  0.64612  1.0000
  C   C749      1.0  0.30677  0.89318  0.65769  1.0000
  H   H1297     1.0  0.18218  0.73818  0.70310  1.0000
  H   H1298     1.0  0.38245  0.96128  0.57864  1.0000
  C   C750      1.0  0.14110  0.84626  0.54515  1.0000
  C   C751      1.0  0.13661  0.82053  0.52981  1.0000
  C   C752      1.0  0.10492  0.81485  0.52202  1.0000
  C   C753      1.0  0.07694  0.83398  0.53028  1.0000
  C   C754      1.0  0.08057  0.85848  0.54729  1.0000
  C   C755      1.0  0.11292  0.86495  0.55446  1.0000
  H   H1299     1.0  0.15807  0.80561  0.52298  1.0000
  H   H1300     1.0  0.20630  0.82725  0.48692  1.0000
  C   C756      1.0  0.12596  0.95994  0.69325  1.0000
  H   H1301     1.0  0.11619  0.88473  0.56654  1.0000
  C   C757      1.0  0.07698  0.93147  0.49321  1.0000
  C   C758      1.0  0.33891  0.92604  0.50414  1.0000
  H   H1302     1.0  0.03801  0.71928  0.61533  1.0000
  C   C759      1.0  0.17781  0.82142  0.68646  1.0000
  C   C760      1.0  0.19147  0.79052  0.69402  1.0000
  C   C761      1.0  0.17100  0.76191  0.69811  1.0000
  H   H1303     1.0  0.24292  0.72668  0.63161  1.0000
  H   H1304     1.0  0.41911  0.93546  0.51103  1.0000
  H   H1305     1.0  0.21807  0.78872  0.69647  1.0000
  H   H1306     1.0  0.10415  0.94470  0.70319  1.0000
  H   H1307     1.0  0.08169  0.80181  0.58736  1.0000
  C   C762      1.0  0.15093  0.96779  0.70884  1.0000
  N   N50       1.0  0.04220  0.70827  0.48054  1.0000
  H   H1308     1.0  0.07710  0.91897  0.51427  1.0000
  H   H1309     1.0  0.42608  0.69119  0.51740  1.0000
  H   H1310     1.0  0.08791  0.95758  0.55589  1.0000
  H   H1311     1.0  0.09149  0.68752  0.48511  1.0000
  C   C763      1.0  0.17947  0.98705  0.69554  1.0000
  C   C764      1.0  0.09951  0.74971  0.62105  1.0000
  C   C765      1.0  0.33791  0.77843  0.53248  1.0000
  C   C766      1.0  0.24935  0.78346  0.60092  1.0000
  S   S228      1.0  0.11290  0.72711  0.69703  1.0000
  H   H1312     1.0  0.08571  0.70204  0.64792  1.0000
  H   H1313     1.0  0.03020  0.92692  0.63056  1.0000
  C   C767      1.0  0.47787  0.95786  0.67028  1.0000
  S   S229      1.0  0.01570  0.95463  0.51446  1.0000
  C   C768      1.0  0.41434  0.94634  0.48971  1.0000
  H   H1314     1.0  0.29475  0.82342  0.67137  1.0000
  H   H1315     1.0  0.20587  0.80747  0.62502  1.0000
  H   H1316     1.0  0.19721  0.76542  0.61999  1.0000
  H   H1317     1.0  0.06389  0.76777  0.66592  1.0000
  H   H1318     1.0  0.11554  0.75742  0.60024  1.0000
  H   H1319     1.0  0.07419  0.82235  0.64683  1.0000
  H   H1320     1.0  0.27284  0.69836  0.66271  1.0000
  C   C769      1.0  0.28186  0.97357  0.68717  1.0000
  H   H1321     1.0  0.46726  0.91048  0.61923  1.0000
  C   C770      1.0  0.46088  0.92284  0.63759  1.0000
  S   S230      1.0  0.11406  0.67808  0.53991  1.0000
  H   H1322     1.0  0.13203  0.84783  0.67964  1.0000
  H   H1323     1.0  0.45460  0.86858  0.68681  1.0000
  H   H1324     1.0  0.09498  0.79723  0.68946  1.0000
  C   C771      1.0  0.43189  0.82153  0.68439  1.0000
  S   S231      1.0  0.28675  0.69826  0.51882  1.0000
  H   H1325     1.0  0.19914  0.79822  0.59157  1.0000
  H   H1326     1.0  0.10222  0.79583  0.50912  1.0000
  H   H1327     1.0  0.08583  0.84804  0.61414  1.0000
  H   H1328     1.0  0.11372  0.81578  0.62415  1.0000
  C   C772      1.0  0.13626  0.76398  0.69601  1.0000
  C   C773      1.0  0.08054  0.70918  0.47323  1.0000
  C   C774      1.0  0.03327  0.71415  0.51079  1.0000
  H   H1329     1.0  0.04085  0.73322  0.66017  1.0000
  C   C775      1.0  0.04292  0.74540  0.60541  1.0000
  H   H1330     1.0  0.36031  0.67557  0.51432  1.0000
  H   H1331     1.0  0.27921  0.78271  0.68203  1.0000
  H   H1332     1.0  0.99086  0.89425  0.60912  1.0000
  C   C776      1.0  0.12195  0.79513  0.69022  1.0000
  H   H1333     1.0  0.29711  0.94365  0.64546  1.0000
  C   C777      1.0  0.45797  0.72780  0.64395  1.0000
  C   C778      1.0  0.10135  0.71181  0.62756  1.0000
  H   H1334     1.0  0.08450  0.73793  0.57052  1.0000
  H   H1335     1.0  0.11320  0.76000  0.63643  1.0000
  C   C779      1.0  0.02935  0.67401  0.47862  1.0000
  C   C780      1.0  0.31304  0.80267  0.53390  1.0000
  N   N51       1.0  0.27061  0.77327  0.62395  1.0000
  C   C781      1.0  0.30537  0.76458  0.60970  1.0000
  C   C782      1.0  0.25277  0.74481  0.64380  1.0000
  H   H1336     1.0  0.30078  0.73268  0.66220  1.0000
  C   C783      1.0  0.39437  0.67136  0.55727  1.0000
  H   H1337     1.0  0.41007  0.80529  0.69482  1.0000
  H   H1338     1.0  0.25015  0.76479  0.58629  1.0000
  C   C784      1.0  0.01292  0.77820  0.65775  1.0000
  H   H1339     1.0  0.31501  0.78435  0.59209  1.0000
  C   C785      1.0  0.32980  0.74697  0.52669  1.0000
  S   S232      1.0  0.19703  0.72484  0.49570  1.0000
  H   H1340     1.0  0.04085  0.73969  0.51332  1.0000
  H   H1341     1.0  0.18618  0.68317  0.69484  1.0000
  H   H1342     1.0  0.42647  0.83078  0.66297  1.0000
  Fe  Fe112     1.0  0.44661  0.86966  0.54763  1.0000
  H   H1343     1.0  0.47225  0.71661  0.68488  1.0000
  H   H1344     1.0  0.10993  0.96447  0.65262  1.0000
  C   C786      1.0  0.04945  0.95113  0.48721  1.0000
  H   H1345     1.0  0.46390  0.97082  0.48707  1.0000
  N   N52       1.0  0.29222  0.93781  0.69116  1.0000
  H   H1346     1.0  0.31923  0.91603  0.52217  1.0000
  H   H1347     1.0  0.45559  0.80712  0.68150  1.0000
  H   H1348     1.0  0.12826  0.70521  0.62906  1.0000
  S   S233      1.0  0.02144  0.68728  0.71766  1.0000
  H   H1349     1.0  0.37165  0.75529  0.68250  1.0000
  C   C787      1.0  0.42915  0.67689  0.53801  1.0000
  H   H1350     1.0  0.10064  0.73862  0.50178  1.0000
  H   H1351     1.0  0.04250  0.72720  0.56578  1.0000
  H   H1352     1.0  0.16789  0.65777  0.66193  1.0000
  N   N53       1.0  0.06413  0.76361  0.62188  1.0000
  H   H1353     1.0  0.21816  0.92058  0.48040  1.0000
  H   H1354     1.0  0.43844  0.96716  0.70379  1.0000
  C   C788      1.0  0.12911  0.97135  0.66454  1.0000
  C   C789      1.0  0.06747  0.79942  0.60912  1.0000
  H   H1355     1.0  0.26194  0.72732  0.68677  1.0000
  H   H1356     1.0  0.38105  0.69542  0.55535  1.0000
  H   H1357     1.0  0.32208  0.89063  0.63694  1.0000
  H   H1358     1.0  0.05893  0.87341  0.55373  1.0000
  H   H1359     1.0  0.34933  0.72861  0.52544  1.0000
  H   H1360     1.0  0.15462  0.85373  0.47713  1.0000
  H   H1361     1.0  0.12959  0.96909  0.50957  1.0000
  H   H1362     1.0  0.34065  0.94915  0.70314  1.0000
  H   H1363     1.0  0.26518  0.89032  0.70385  1.0000
  H   H1364     1.0  0.44612  0.69192  0.54778  1.0000
  C   C790      1.0  0.29333  0.79907  0.66397  1.0000
  C   C791      1.0  0.26016  0.91717  0.70200  1.0000
  C   C792      1.0  0.44904  0.95944  0.47320  1.0000
  S   S234      1.0  0.03931  0.82788  0.51652  1.0000
  Fe  Fe113     1.0  0.23968  0.68928  0.49983  1.0000
  H   H1365     1.0  0.26005  0.80658  0.58747  1.0000
  C   C793      1.0  0.30771  0.73126  0.59792  1.0000
  H   H1366     1.0  0.04213  0.81014  0.60685  1.0000
  H   H1367     1.0  0.31749  0.87615  0.67365  1.0000
  C   C794      1.0  0.21088  0.78886  0.61042  1.0000
  H   H1368     1.0  0.09371  0.69931  0.61052  1.0000
  C   C795      1.0  0.31720  0.93413  0.71181  1.0000
  C   C796      1.0  0.11061  0.96296  0.56533  1.0000
  H   H1369     1.0  0.28996  0.72918  0.58274  1.0000
  H   H1370     1.0  0.24177  0.92120  0.68680  1.0000
  C   C797      1.0  0.27996  0.79528  0.52937  1.0000
  H   H1371     1.0  0.39964  0.66751  0.57924  1.0000
  H   H1372     1.0  0.41102  0.86448  0.70082  1.0000
  H   H1373     1.0  0.12496  0.66389  0.67573  1.0000
  H   H1374     1.0  0.28022  0.88557  0.65652  1.0000
  S   S235      1.0  0.45764  0.84724  0.59004  1.0000
  H   H1375     1.0  0.28758  0.82376  0.62304  1.0000
  C   C798      1.0  0.35620  0.95634  0.51207  1.0000
  C   C799      1.0  0.27422  0.80326  0.63839  1.0000
  Fe  Fe114     1.0  0.16246  0.68023  0.50864  1.0000
  H   H1376     1.0  0.48240  0.72093  0.63337  1.0000
  C   C800      1.0  0.27168  0.76351  0.52403  1.0000
  C   C801      1.0  0.43554  0.85112  0.70034  1.0000
  H   H1377     1.0  0.08509  0.76330  0.47273  1.0000
  H   H1378     1.0  0.30343  0.70993  0.61478  1.0000
  C   C802      1.0  0.20873  0.89498  0.48051  1.0000
  H   H1379     1.0  0.04774  0.69733  0.52448  1.0000
  C   C803      1.0  0.44498  0.95449  0.68556  1.0000
  H   H1380     1.0  0.13067  0.94495  0.55964  1.0000
  H   H1381     1.0  0.35055  0.89208  0.70428  1.0000
  H   H1382     1.0  0.35667  0.90555  0.50050  1.0000
  N   N54       1.0  0.38658  0.97160  0.49189  1.0000
  H   H1383     1.0  0.33398  0.72904  0.58655  1.0000
  C   C804      1.0  0.04674  0.75971  0.65204  1.0000
  C   C805      1.0  0.05747  0.74535  0.57414  1.0000
  S   S236      1.0  0.02015  0.96194  0.67839  1.0000
  H   H1384     1.0  0.00271  0.84678  0.68728  1.0000
  C   C806      1.0  0.32972  0.89899  0.72032  1.0000
  H   H1385     1.0  0.36370  0.94870  0.53312  1.0000
  H   H1386     1.0  0.12530  0.91226  0.47702  1.0000
  C   C807      1.0  0.09852  0.74033  0.47911  1.0000
  C   C808      1.0  0.00399  0.92261  0.64062  1.0000
  C   C809      1.0  0.18481  0.66599  0.71470  1.0000
  H   H1387     1.0  0.32508  0.93295  0.48611  1.0000
  H   H1388     1.0  0.32582  0.67105  0.56150  1.0000
  H   H1389     1.0  0.22427  0.87847  0.49344  1.0000
  H   H1390     1.0  0.00118  0.67195  0.48451  1.0000
  H   H1391     1.0  0.99301  0.87728  0.70958  1.0000
  H   H1392     1.0  0.99541  0.87112  0.48675  1.0000
  H   H1393     1.0  0.99098  0.71978  0.54414  1.0000
  H   H1394     1.0  0.26075  0.97672  0.67428  1.0000
  H   H1395     1.0  0.26362  0.80587  0.47411  1.0000
  H   H1396     1.0  0.35096  0.65847  0.60779  1.0000
  C   C810      1.0  0.99067  0.85046  0.70880  1.0000
  C   C811      1.0  0.01283  0.71653  0.90789  1.0000
  S   S237      1.0  0.27992  0.73068  0.85139  1.0000
  Fe  Fe115     1.0  0.35358  0.93498  0.85483  1.0000
  S   S238      1.0  0.37182  0.91913  0.81258  1.0000
  S   S239      1.0  0.37089  0.92278  0.89665  1.0000
  S   S240      1.0  0.99426  0.89772  0.82268  1.0000
  S   S241      1.0  0.31274  0.96898  0.78997  1.0000
  Fe  Fe116     1.0  0.01938  0.66112  0.76151  1.0000
  Fe  Fe117     1.0  0.31581  0.91638  0.80978  1.0000
  S   S242      1.0  0.28705  0.87864  0.79239  1.0000
  H   H1397     1.0  0.39143  0.80938  0.79183  1.0000
  H   H1398     1.0  0.22122  0.87674  0.83893  1.0000
  S   S243      1.0  0.29806  0.92762  0.85335  1.0000
  C   C812      1.0  0.47396  0.82001  0.73030  1.0000
  H   H1399     1.0  0.19247  0.81046  0.88105  1.0000
  S   S244      1.0  0.21063  0.68623  0.90454  1.0000
  H   H1400     1.0  0.99724  0.89619  0.89693  1.0000
  C   C813      1.0  0.40704  0.70482  0.89366  1.0000
  C   C814      1.0  0.29122  0.84721  0.95959  1.0000
  C   C815      1.0  0.00468  0.85594  0.82312  1.0000
  S   S245      1.0  0.11717  0.71445  0.91641  1.0000
  N   N55       1.0  0.17016  0.94696  0.84117  1.0000
  N   N56       1.0  0.35485  0.67030  0.79954  1.0000
  H   H1401     1.0  0.33951  0.89813  0.74065  1.0000
  H   H1402     1.0  0.33527  0.83952  0.82204  1.0000
  H   H1403     1.0  0.27442  0.86536  0.94957  1.0000
  C   C816      1.0  0.00915  0.66942  0.96180  1.0000
  H   H1404     1.0  0.33199  0.78102  0.84466  1.0000
  H   H1405     1.0  0.17562  0.75181  0.88513  1.0000
  H   H1406     1.0  0.35642  0.73768  0.81608  1.0000
  H   H1407     1.0  0.30753  0.94490  0.73129  1.0000
  H   H1408     1.0  0.24833  0.73225  0.94347  1.0000
  Fe  Fe118     1.0  0.23054  0.70111  0.85893  1.0000
  Fe  Fe119     1.0  0.01841  0.93315  0.78542  1.0000
  H   H1409     1.0  0.32287  0.94127  0.95105  1.0000
  H   H1410     1.0  0.36149  0.70630  0.76190  1.0000
  Fe  Fe120     1.0  0.02712  0.72523  0.78563  1.0000
  H   H1411     1.0  0.03598  0.70104  0.90838  1.0000
  C   C817      1.0  0.10669  0.92953  0.84912  1.0000
  Fe  Fe121     1.0  0.30015  0.98073  0.83386  1.0000
  H   H1412     1.0  0.13167  0.79073  0.75156  1.0000
  H   H1413     1.0  0.33101  0.73904  0.90478  1.0000
  C   C818      1.0  0.01954  0.84376  0.79868  1.0000
  H   H1414     1.0  0.13660  0.94944  0.80975  1.0000
  N   N57       1.0  0.46547  0.67591  0.89057  1.0000
  H   H1415     1.0  0.08165  0.93893  0.84452  1.0000
  C   C819      1.0  0.32019  0.75203  0.92268  1.0000
  H   H1416     1.0  0.02582  0.86025  0.77928  1.0000
  H   H1417     1.0  0.11334  0.87915  0.74832  1.0000
  H   H1418     1.0  0.40708  0.80268  0.74109  1.0000
  H   H1419     1.0  0.19556  0.94994  0.87716  1.0000
  H   H1420     1.0  0.03339  0.68374  0.95514  1.0000
  H   H1421     1.0  0.45647  0.72847  0.89038  1.0000
  H   H1422     1.0  0.39595  0.72926  0.88750  1.0000
  H   H1423     1.0  0.40789  0.88766  0.76704  1.0000
  C   C820      1.0  0.38275  0.88175  0.90483  1.0000
  C   C821      1.0  0.38345  0.86942  0.93298  1.0000
  H   H1424     1.0  0.04348  0.92428  0.94770  1.0000
  C   C822      1.0  0.40222  0.81640  0.91978  1.0000
  C   C823      1.0  0.40168  0.82872  0.89146  1.0000
  C   C824      1.0  0.39159  0.86137  0.88398  1.0000
  H   H1425     1.0  0.12918  0.73238  0.76493  1.0000
  C   C825      1.0  0.31736  0.66535  0.79832  1.0000
  H   H1426     1.0  0.40909  0.81311  0.87537  1.0000
  H   H1427     1.0  0.39142  0.87095  0.86212  1.0000
  C   C826      1.0  0.30437  0.82119  0.94046  1.0000
  H   H1428     1.0  0.99757  0.76530  0.92039  1.0000
  H   H1429     1.0  0.30141  0.67623  0.81561  1.0000
  C   C827      1.0  0.41342  0.82622  0.74836  1.0000
  C   C828      1.0  0.22645  0.97805  0.92260  1.0000
  C   C829      1.0  0.16939  0.95125  0.87164  1.0000
  H   H1430     1.0  0.31338  0.86134  0.96374  1.0000
  H   H1431     1.0  0.22700  0.95395  0.93476  1.0000
  H   H1432     1.0  0.25921  0.96437  0.88698  1.0000
  H   H1433     1.0  0.04828  0.96802  0.89013  1.0000
  H   H1434     1.0  0.48040  0.81495  0.75195  1.0000
  C   C830      1.0  0.12943  0.75606  0.91407  1.0000
  C   C831      1.0  0.15959  0.76806  0.89683  1.0000
  C   C832      1.0  0.16938  0.80127  0.89482  1.0000
  C   C833      1.0  0.14996  0.82224  0.91113  1.0000
  C   C834      1.0  0.11979  0.81039  0.92849  1.0000
  C   C835      1.0  0.10924  0.77739  0.92955  1.0000
  C   C836      1.0  0.23701  0.74961  0.95780  1.0000
  H   H1435     1.0  0.10565  0.92786  0.87212  1.0000
  H   H1436     1.0  0.02252  0.74111  0.94384  1.0000
  H   H1437     1.0  0.08570  0.76827  0.94253  1.0000
  C   C837      1.0  0.28060  0.77265  0.83723  1.0000
  C   C838      1.0  0.25258  0.78683  0.82622  1.0000
  C   C839      1.0  0.25480  0.81971  0.81306  1.0000
  C   C840      1.0  0.28457  0.83867  0.81128  1.0000
  C   C841      1.0  0.31218  0.82495  0.82327  1.0000
  C   C842      1.0  0.31029  0.79183  0.83597  1.0000
  H   H1438     1.0  0.22961  0.77222  0.82733  1.0000
  H   H1439     1.0  0.23359  0.83079  0.80413  1.0000
  H   H1440     1.0  0.99058  0.96421  0.95784  1.0000
  H   H1441     1.0  0.46201  0.68102  0.96250  1.0000
  H   H1442     1.0  0.01293  0.72554  0.88524  1.0000
  C   C843      1.0  0.20137  0.97054  0.79156  1.0000
  C   C844      1.0  0.18021  0.91197  0.83757  1.0000
  S   S246      1.0  0.05025  0.92052  0.74616  1.0000
  C   C845      1.0  0.44583  0.70666  0.88288  1.0000
  H   H1443     1.0  0.39435  0.70756  0.78299  1.0000
  H   H1444     1.0  0.00512  0.68232  0.86296  1.0000
  H   H1445     1.0  0.31022  0.67904  0.77865  1.0000
  H   H1446     1.0  0.43466  0.92193  0.75039  1.0000
  H   H1447     1.0  0.08165  0.95711  0.91012  1.0000
  C   C846      1.0  0.19543  0.97179  0.82355  1.0000
  H   H1448     1.0  0.01601  0.94025  0.86337  1.0000
  H   H1449     1.0  0.22818  0.97813  0.78275  1.0000
  C   C847      1.0  0.24076  0.92317  0.73085  1.0000
  H   H1450     1.0  0.16368  0.74686  0.77984  1.0000
  C   C848      1.0  0.48502  0.82045  0.81595  1.0000
  H   H1451     1.0  0.21860  0.90565  0.73666  1.0000
  H   H1452     1.0  0.29652  0.97547  0.94290  1.0000
  H   H1453     1.0  0.45472  0.90040  0.93887  1.0000
  H   H1454     1.0  0.32075  0.73216  0.79741  1.0000
  H   H1455     1.0  0.39368  0.68641  0.88426  1.0000
  H   H1456     1.0  0.10288  0.83879  0.74183  1.0000
  S   S247      1.0  0.02914  0.75666  0.74377  1.0000
  C   C849      1.0  0.99753  0.83438  0.84834  1.0000
  H   H1457     1.0  0.10907  0.90432  0.84302  1.0000
  C   C850      1.0  0.03522  0.92857  0.92658  1.0000
  H   H1458     1.0  0.43607  0.93228  0.91774  1.0000
  C   C851      1.0  0.13564  0.95274  0.83225  1.0000
  H   H1459     1.0  0.99229  0.98134  0.92264  1.0000
  H   H1460     1.0  0.44660  0.71217  0.93867  1.0000
  C   C852      1.0  0.36633  0.70395  0.78402  1.0000
  C   C853      1.0  0.05376  0.96085  0.91172  1.0000
  C   C854      1.0  0.19295  0.81725  0.76405  1.0000
  Fe  Fe122     1.0  0.02520  0.96387  0.72426  1.0000
  H   H1461     1.0  0.21343  0.76009  0.95073  1.0000
  H   H1462     1.0  0.15533  0.93058  0.88599  1.0000
  H   H1463     1.0  0.04637  0.90816  0.91525  1.0000
  H   H1464     1.0  0.23394  0.83045  0.93851  1.0000
  C   C855      1.0  0.12077  0.85282  0.75155  1.0000
  C   C856      1.0  0.45987  0.66534  0.92193  1.0000
  H   H1465     1.0  0.34189  0.76388  0.92964  1.0000
  H   H1466     1.0  0.34590  0.68831  0.84006  1.0000
  C   C857      1.0  0.99970  0.86615  0.95161  1.0000
  H   H1467     1.0  0.42588  0.83827  0.78895  1.0000
  S   S248      1.0  0.02830  0.74621  0.82586  1.0000
  C   C858      1.0  0.01846  0.78830  0.82436  1.0000
  Fe  Fe123     1.0  0.06379  0.71797  0.72753  1.0000
  H   H1468     1.0  0.18321  0.80738  0.74679  1.0000
  H   H1469     1.0  0.30828  0.73277  0.93968  1.0000
  N   N58       1.0  0.99672  0.92756  0.92959  1.0000
  H   H1470     1.0  0.39206  0.82742  0.96230  1.0000
  S   S249      1.0  0.12482  0.92979  0.95308  1.0000
  C   C859      1.0  0.29439  0.77760  0.91259  1.0000
  C   C860      1.0  0.24946  0.81759  0.92226  1.0000
  H   H1471     1.0  0.43408  0.79601  0.78287  1.0000
  S   S250      1.0  0.05812  0.96636  0.79553  1.0000
  N   N59       1.0  0.27766  0.79830  0.93411  1.0000
  C   C861      1.0  0.26082  0.84335  0.89614  1.0000
  C   C862      1.0  0.00466  0.80070  0.84900  1.0000
  H   H1472     1.0  0.10428  0.82677  0.94062  1.0000
  H   H1473     1.0  0.27498  0.76419  0.90382  1.0000
  H   H1474     1.0  0.30879  0.79364  0.89424  1.0000
  H   H1475     1.0  0.14692  0.85179  0.74005  1.0000
  H   H1476     1.0  0.23124  0.80060  0.91583  1.0000
  H   H1477     1.0  0.32385  0.80695  0.95087  1.0000
  Fe  Fe124     1.0  0.36727  0.97304  0.79627  1.0000
  H   H1478     1.0  0.46162  0.82157  0.83052  1.0000
  C   C863      1.0  0.34888  0.73398  0.79566  1.0000
  H   H1479     1.0  0.16397  0.89404  0.85335  1.0000
  H   H1480     1.0  0.45147  0.97987  0.88876  1.0000
  H   H1481     1.0  0.47263  0.88933  0.72301  1.0000
  H   H1482     1.0  0.23788  0.85589  0.88966  1.0000
  H   H1483     1.0  0.27792  0.86288  0.90034  1.0000
  H   H1484     1.0  0.27311  0.83165  0.87800  1.0000
  C   C864      1.0  0.36116  0.66936  0.82952  1.0000
  H   H1485     1.0  0.19774  0.84429  0.75823  1.0000
  S   S251      1.0  0.48386  0.88810  0.80728  1.0000
  H   H1486     1.0  0.46707  0.86958  0.75788  1.0000
  C   C865      1.0  0.41686  0.81720  0.77970  1.0000
  Fe  Fe125     1.0  0.08713  0.95820  0.75416  1.0000
  N   N60       1.0  0.13173  0.80736  0.79244  1.0000
  C   C866      1.0  0.11487  0.79537  0.82220  1.0000
  C   C867      1.0  0.12248  0.78276  0.77416  1.0000
  C   C868      1.0  0.11786  0.84102  0.78341  1.0000
  C   C869      1.0  0.16961  0.80958  0.79270  1.0000
  C   C870      1.0  0.11477  0.82002  0.84367  1.0000
  C   C871      1.0  0.13556  0.74741  0.78090  1.0000
  H   H1487     1.0  0.22359  0.90760  0.86121  1.0000
  H   H1488     1.0  0.08778  0.78825  0.82260  1.0000
  H   H1489     1.0  0.12702  0.77252  0.83113  1.0000
  C   C872      1.0  0.99171  0.94510  0.87675  1.0000
  H   H1490     1.0  0.09423  0.78083  0.77558  1.0000
  H   H1491     1.0  0.09017  0.84188  0.79168  1.0000
  H   H1492     1.0  0.13019  0.86054  0.79263  1.0000
  H   H1493     1.0  0.17906  0.78683  0.80429  1.0000
  H   H1494     1.0  0.09839  0.84151  0.83900  1.0000
  H   H1495     1.0  0.10363  0.80735  0.86483  1.0000
  H   H1496     1.0  0.14077  0.82863  0.84525  1.0000
  H   H1497     1.0  0.44847  0.71315  0.85966  1.0000
  C   C873      1.0  0.46559  0.69235  0.94010  1.0000
  H   H1498     1.0  0.19806  0.94561  0.78585  1.0000
  H   H1499     1.0  0.12291  0.73499  0.80166  1.0000
  S   S252      1.0  0.41451  0.77566  0.92961  1.0000
  H   H1500     1.0  0.03758  0.80091  0.78029  1.0000
  H   H1501     1.0  0.21786  0.80503  0.76524  1.0000
  C   C874      1.0  0.21739  0.90340  0.84049  1.0000
  H   H1502     1.0  0.35727  0.75667  0.78081  1.0000
  C   C875      1.0  0.02600  0.80993  0.79921  1.0000
  C   C876      1.0  0.45956  0.92550  0.92678  1.0000
  S   S253      1.0  0.14401  0.95587  0.74529  1.0000
  H   H1503     1.0  0.04223  0.76052  0.91011  1.0000
  S   S254      1.0  0.46819  0.70290  0.78365  1.0000
  H   H1504     1.0  0.37651  0.88505  0.94916  1.0000
  C   C877      1.0  0.26248  0.77693  0.96096  1.0000
  H   H1505     1.0  0.17534  0.90554  0.81699  1.0000
  Fe  Fe126     1.0  0.15904  0.68902  0.89107  1.0000
  S   S255      1.0  0.17862  0.70818  0.84570  1.0000
  C   C878      1.0  0.45375  0.87465  0.73937  1.0000
  Fe  Fe127     1.0  0.15214  0.88230  0.95071  1.0000
  H   H1506     1.0  0.46992  0.94637  0.83536  1.0000
  H   H1507     1.0  0.46368  0.94239  0.94203  1.0000
  H   H1508     1.0  0.32635  0.67439  0.92099  1.0000
  C   C879      1.0  0.39257  0.83672  0.94044  1.0000
  H   H1509     1.0  0.17535  0.82925  0.80507  1.0000
  S   S256      1.0  0.06499  0.68858  0.76989  1.0000
  H   H1510     1.0  0.40103  0.69966  0.91690  1.0000
  S   S257      1.0  0.16391  0.86313  0.90938  1.0000
  H   H1511     1.0  0.25679  0.91846  0.74769  1.0000
  C   C880      1.0  0.30085  0.95557  0.95986  1.0000
  C   C881      1.0  0.01863  0.74749  0.92168  1.0000
  H   H1512     1.0  0.99191  0.97078  0.88104  1.0000
  H   H1513     1.0  0.23560  0.91740  0.82336  1.0000
  H   H1514     1.0  0.31899  0.83457  0.92075  1.0000
  C   C882      1.0  0.47123  0.97160  0.87242  1.0000
  C   C883      1.0  0.45351  0.94940  0.85544  1.0000
  H   H1515     1.0  0.38849  0.67547  0.82991  1.0000
  C   C884      1.0  0.24493  0.98401  0.89542  1.0000
  H   H1516     1.0  0.46752  0.79499  0.72575  1.0000
  H   H1517     1.0  0.99594  0.85612  0.93221  1.0000
  H   H1518     1.0  0.22061  0.97045  0.83111  1.0000
  H   H1519     1.0  0.42991  0.96150  0.84984  1.0000
  H   H1520     1.0  0.23005  0.94826  0.73035  1.0000
  H   H1521     1.0  0.12781  0.97879  0.83299  1.0000
  H   H1522     1.0  0.99896  0.78428  0.86858  1.0000
  H   H1523     1.0  0.40791  0.90262  0.73050  1.0000
  H   H1524     1.0  0.18408  0.68124  0.73205  1.0000
  C   C885      1.0  0.42409  0.89781  0.74712  1.0000
  H   H1525     1.0  0.18386  0.98750  0.78101  1.0000
  H   H1526     1.0  0.27860  0.93825  0.96505  1.0000
  C   C886      1.0  0.15437  0.98387  0.88046  1.0000
  Fe  Fe128     1.0  0.46194  0.71387  0.73845  1.0000
  H   H1527     1.0  0.13041  0.66105  0.72305  1.0000
  H   H1528     1.0  0.48698  0.76723  0.82271  1.0000
  H   H1529     1.0  0.02721  0.86638  0.95359  1.0000
  S   S258      1.0  0.47406  0.66292  0.72890  1.0000
  H   H1530     1.0  0.12734  0.98687  0.87750  1.0000
  H   H1531     1.0  0.15502  0.98370  0.90325  1.0000
  S   S259      1.0  0.41583  0.73683  0.72347  1.0000
  H   H1532     1.0  0.04826  0.98158  0.92419  1.0000
  H   H1533     1.0  0.44554  0.92484  0.86730  1.0000
  H   H1534     1.0  0.39028  0.84156  0.74710  1.0000
  H   H1535     1.0  0.39609  0.66635  0.74209  1.0000
  N   N61       1.0  0.44417  0.84293  0.72965  1.0000
  S   S260      1.0  0.35429  0.98890  0.83870  1.0000
  S   S261      1.0  0.19569  0.89713  0.97110  1.0000
  H   H1536     1.0  0.30913  0.87997  0.72449  1.0000
  H   H1537     1.0  0.00583  0.83616  0.72348  1.0000
  H   H1538     1.0  0.48637  0.90455  0.89129  1.0000
  H   H1539     1.0  0.28287  0.76496  0.97198  1.0000
  H   H1540     1.0  0.45358  0.65633  0.85369  1.0000
  Fe  Fe129     1.0  0.84441  0.27249  0.00683  1.0000
  S   S262      1.0  0.84718  0.28380  0.05053  1.0000
  H   H1541     1.0  0.87221  0.31585  0.13704  1.0000
  S   S263      1.0  0.79732  0.25831  0.98991  1.0000
  Fe  Fe130     1.0  0.87378  0.02483  0.20854  1.0000
  Fe  Fe131     1.0  0.90191  0.26713  0.04272  1.0000
  S   S264      1.0  0.93231  0.24538  0.07680  1.0000
  H   H1542     1.0  0.96233  0.00415  0.01424  1.0000
  H   H1543     1.0  0.83756  0.30939  0.11895  1.0000
  S   S265      1.0  0.89715  0.25115  0.00084  1.0000
  C   C887      1.0  0.68484  0.29895  0.08662  1.0000
  Fe  Fe132     1.0  0.94607  0.07277  0.99416  1.0000
  C   C888      1.0  0.50691  0.18630  0.07513  1.0000
  Fe  Fe133     1.0  0.89620  0.10634  0.03572  1.0000
  S   S266      1.0  0.85132  0.09690  0.01462  1.0000
  S   S267      1.0  0.89296  0.11976  0.07951  1.0000
  Fe  Fe134     1.0  0.87348  0.04655  0.01311  1.0000
  S   S268      1.0  0.91393  0.06410  0.20605  1.0000
  H   H1544     1.0  0.96811  0.00573  0.09297  1.0000
  N   N62       1.0  0.96944  0.19683  0.18674  1.0000
  S   S269      1.0  0.91637  0.05490  0.03609  1.0000
  S   S270      1.0  0.93067  0.12538  0.99544  1.0000
  H   H1545     1.0  0.69593  0.04344  0.13501  1.0000
  Fe  Fe135     1.0  0.58255  0.15226  0.09302  1.0000
  S   S271      1.0  0.62354  0.19029  0.07542  1.0000
  H   H1546     1.0  0.53366  0.21020  0.10251  1.0000
  Fe  Fe136     1.0  0.62415  0.11868  0.13764  1.0000
  S   S272      1.0  0.66726  0.15534  0.12430  1.0000
  S   S273      1.0  0.62378  0.07465  0.17152  1.0000
  Fe  Fe137     1.0  0.62592  0.19296  0.12089  1.0000
  S   S274      1.0  0.62088  0.24173  0.13711  1.0000
  Fe  Fe138     1.0  0.66015  0.14862  0.08039  1.0000
  S   S275      1.0  0.70478  0.13534  0.04956  1.0000
  S   S276      1.0  0.58299  0.15684  0.13830  1.0000
  S   S277      1.0  0.61887  0.10984  0.09393  1.0000
  Fe  Fe139     1.0  0.80120  0.24146  0.17265  1.0000
  H   H1547     1.0  0.68989  0.19606  0.01644  1.0000
  S   S278      1.0  0.80652  0.23630  0.12669  1.0000
  C   C889      1.0  0.71385  0.03603  0.21599  1.0000
  H   H1548     1.0  0.58832  0.28801  0.04432  1.0000
  H   H1549     1.0  0.86826  0.11383  0.18576  1.0000
  C   C890      1.0  0.73794  0.22235  0.00347  1.0000
  H   H1550     1.0  0.97020  0.21658  0.00179  1.0000
  C   C891      1.0  0.94912  0.01952  0.10601  1.0000
  C   C892      1.0  0.64084  0.23930  0.16689  1.0000
  C   C893      1.0  0.67221  0.22368  0.16705  1.0000
  C   C894      1.0  0.68834  0.22167  0.19082  1.0000
  H   H1551     1.0  0.58537  0.18789  0.02077  1.0000
  N   N63       1.0  0.96472  0.05093  0.11207  1.0000
  H   H1552     1.0  0.68442  0.21352  0.14878  1.0000
  H   H1553     1.0  0.71285  0.20997  0.19069  1.0000
  C   C895      1.0  0.65933  0.06107  0.18810  1.0000
  C   C896      1.0  0.69191  0.07624  0.18112  1.0000
  H   H1554     1.0  0.86133  0.02715  0.07371  1.0000
  H   H1555     1.0  0.72737  0.26588  0.12304  1.0000
  C   C897      1.0  0.77266  0.22327  0.00598  1.0000
  C   C898      1.0  0.78683  0.19651  0.02106  1.0000
  C   C899      1.0  0.76610  0.16911  0.03398  1.0000
  C   C900      1.0  0.73097  0.16905  0.03265  1.0000
  C   C901      1.0  0.71690  0.19587  0.01756  1.0000
  C   C902      1.0  0.49612  0.10935  0.18132  1.0000
  H   H1556     1.0  0.81374  0.19689  0.02262  1.0000
  H   H1557     1.0  0.77724  0.14859  0.04571  1.0000
  H   H1558     1.0  0.54502  0.09705  0.19251  1.0000
  H   H1559     1.0  0.77514  0.99668  0.14323  1.0000
  C   C903      1.0  0.82945  0.20303  0.11395  1.0000
  C   C904      1.0  0.83162  0.19914  0.08545  1.0000
  C   C905      1.0  0.85083  0.17354  0.07455  1.0000
  C   C906      1.0  0.86775  0.15162  0.09220  1.0000
  C   C907      1.0  0.86474  0.15489  0.12084  1.0000
  C   C908      1.0  0.84567  0.18054  0.13172  1.0000
  H   H1560     1.0  0.81884  0.21624  0.07167  1.0000
  H   H1561     1.0  0.85304  0.17108  0.05248  1.0000
  H   H1562     1.0  0.87749  0.13774  0.13460  1.0000
  H   H1563     1.0  0.84391  0.18322  0.15371  1.0000
  H   H1564     1.0  0.50964  0.12279  0.16125  1.0000
  C   C909      1.0  0.51016  0.02975  0.11167  1.0000
  H   H1565     1.0  0.97417  0.10427  0.14089  1.0000
  H   H1566     1.0  0.97414  0.14528  0.17988  1.0000
  H   H1567     1.0  0.69400  0.23753  0.06392  1.0000
  H   H1568     1.0  0.55570  0.05789  0.11674  1.0000
  H   H1569     1.0  0.68407  0.12992  0.99269  1.0000
  C   C910      1.0  0.61980  0.10599  0.99016  1.0000
  H   H1570     1.0  0.59204  0.10560  0.98880  1.0000
  H   H1571     1.0  0.67586  0.29592  0.10976  1.0000
  C   C911      1.0  0.96247  0.21390  0.07232  1.0000
  H   H1572     1.0  0.91699  0.20613  0.20423  1.0000
  C   C912      1.0  0.98558  0.20632  0.98396  1.0000
  S   S279      1.0  0.92206  0.31783  0.02387  1.0000
  H   H1573     1.0  0.74185  0.21462  0.10679  1.0000
  C   C913      1.0  0.95693  0.18753  0.05790  1.0000
  Fe  Fe140     1.0  0.88751  0.11089  0.97411  1.0000
  H   H1574     1.0  0.76388  0.27059  0.09609  1.0000
  H   H1575     1.0  0.65512  0.30015  0.05104  1.0000
  H   H1576     1.0  0.93358  0.18613  0.04905  1.0000
  H   H1577     1.0  0.74920  0.31391  0.05247  1.0000
  H   H1578     1.0  0.84651  0.16473  0.20441  1.0000
  H   H1579     1.0  0.60091  0.26450  0.19056  1.0000
  S   S280      1.0  0.83082  0.02240  0.18333  1.0000
  H   H1580     1.0  0.71377  0.14089  0.21735  1.0000
  H   H1581     1.0  0.92861  0.05517  0.14990  1.0000
  C   C914      1.0  0.73682  0.28983  0.05230  1.0000
  H   H1582     1.0  0.95242  0.08060  0.07447  1.0000
  C   C915      1.0  0.62402  0.09461  0.02103  1.0000
  H   H1583     1.0  0.69591  0.09790  0.16541  1.0000
  C   C916      1.0  0.73834  0.28077  0.10263  1.0000
  C   C917      1.0  0.52961  0.05128  0.12805  1.0000
  C   C918      1.0  0.51222  0.21138  0.09105  1.0000
  H   H1584     1.0  0.49142  0.28584  0.03376  1.0000
  S   S281      1.0  0.76224  0.27719  0.18847  1.0000
  C   C919      1.0  0.85214  0.00209  0.08042  1.0000
  C   C920      1.0  0.87426  0.11925  0.20567  1.0000
  C   C921      1.0  0.50040  0.30116  0.01324  1.0000
  C   C922      1.0  0.96201  0.20225  0.15685  1.0000
  H   H1585     1.0  0.70496  0.31905  0.02522  1.0000
  H   H1586     1.0  0.63101  0.30518  0.08378  1.0000
  H   H1587     1.0  0.69927  0.27476  0.02701  1.0000
  H   H1588     1.0  0.61388  0.06890  0.02729  1.0000
  H   H1589     1.0  0.51996  0.23793  0.02407  1.0000
  H   H1590     1.0  0.68532  0.23542  0.10097  1.0000
  C   C923      1.0  0.52304  0.07784  0.03645  1.0000
  H   H1591     1.0  0.54306  0.29163  0.05218  1.0000
  H   H1592     1.0  0.90691  0.21207  0.15921  1.0000
  H   H1593     1.0  0.49386  0.25726  0.10470  1.0000
  H   H1594     1.0  0.97933  0.18742  0.14332  1.0000
  H   H1595     1.0  0.79647  0.00763  0.98308  1.0000
  H   H1596     1.0  0.74403  0.07575  0.18993  1.0000
  C   C924      1.0  0.71924  0.06352  0.19485  1.0000
  H   H1597     1.0  0.86019  0.00237  0.12338  1.0000
  S   S282      1.0  0.65228  0.30055  0.98708  1.0000
  C   C925      1.0  0.56346  0.28970  0.00726  1.0000
  C   C926      1.0  0.52305  0.24799  0.00139  1.0000
  H   H1598     1.0  0.76459  0.31400  0.12368  1.0000
  H   H1599     1.0  0.65112  0.09453  0.02423  1.0000
  C   C927      1.0  0.56365  0.27982  0.03908  1.0000
  H   H1600     1.0  0.63840  0.18943  0.98607  1.0000
  C   C928      1.0  0.97515  0.07252  0.08426  1.0000
  C   C929      1.0  0.64096  0.24956  0.21487  1.0000
  N   N64       1.0  0.52987  0.28486  0.99720  1.0000
  H   H1601     1.0  0.54770  0.08559  0.02325  1.0000
  H   H1602     1.0  0.64469  0.26513  0.07790  1.0000
  H   H1603     1.0  0.77176  0.00748  0.09295  1.0000
  C   C930      1.0  0.52983  0.06093  0.06533  1.0000
  C   C931      1.0  0.94869  0.10396  0.13426  1.0000
  S   S283      1.0  0.53461  0.15222  0.07315  1.0000
  C   C932      1.0  0.65272  0.29148  0.07377  1.0000
  N   N65       1.0  0.75368  0.05790  0.09068  1.0000
  C   C933      1.0  0.71693  0.04913  0.08943  1.0000
  C   C934      1.0  0.77198  0.06632  0.06087  1.0000
  C   C935      1.0  0.75546  0.08810  0.10525  1.0000
  C   C936      1.0  0.77174  0.02910  0.10456  1.0000
  C   C937      1.0  0.68987  0.05504  0.11457  1.0000
  C   C938      1.0  0.76606  0.04220  0.04005  1.0000
  C   C939      1.0  0.79154  0.10192  0.10583  1.0000
  C   C940      1.0  0.86188  0.14805  0.21625  1.0000
  H   H1604     1.0  0.70796  0.06422  0.07111  1.0000
  H   H1605     1.0  0.54888  0.04127  0.06182  1.0000
  H   H1606     1.0  0.80008  0.06766  0.06052  1.0000
  H   H1607     1.0  0.76455  0.09116  0.05140  1.0000
  H   H1608     1.0  0.74113  0.10866  0.09506  1.0000
  H   H1609     1.0  0.74283  0.08349  0.12744  1.0000
  C   C941      1.0  0.65436  0.03368  0.20909  1.0000
  H   H1610     1.0  0.79901  0.03569  0.10381  1.0000
  H   H1611     1.0  0.92993  0.11220  0.15120  1.0000
  H   H1612     1.0  0.68609  0.08187  0.11526  1.0000
  H   H1613     1.0  0.63062  0.08600  0.97822  1.0000
  H   H1614     1.0  0.73989  0.04382  0.03459  1.0000
  H   H1615     1.0  0.78380  0.04918  0.02007  1.0000
  H   H1616     1.0  0.77125  0.01620  0.04780  1.0000
  H   H1617     1.0  0.80708  0.08410  0.11764  1.0000
  H   H1618     1.0  0.78911  0.12415  0.11683  1.0000
  H   H1619     1.0  0.80552  0.11025  0.08445  1.0000
  H   H1620     1.0  0.52212  0.04387  0.20455  1.0000
  H   H1621     1.0  0.92493  0.19237  0.13008  1.0000
  H   H1622     1.0  0.93977  0.15298  0.20552  1.0000
  C   C942      1.0  0.49992  0.99576  0.05956  1.0000
  C   C943      1.0  0.71787  0.29491  0.02680  1.0000
  H   H1623     1.0  0.52613  0.13095  0.20809  1.0000
  H   H1624     1.0  0.94841  0.12244  0.11525  1.0000
  H   H1625     1.0  0.96546  0.02315  0.16775  1.0000
  C   C944      1.0  0.67258  0.23428  0.21479  1.0000
  H   H1626     1.0  0.75741  0.03559  0.14921  1.0000
  C   C945      1.0  0.98761  0.99643  0.00626  1.0000
  C   C946      1.0  0.58872  0.17093  0.00455  1.0000
  H   H1627     1.0  0.54517  0.23495  0.99106  1.0000
  H   H1628     1.0  0.97689  0.14238  0.04397  1.0000
  C   C947      1.0  0.94329  0.21576  0.20400  1.0000
  H   H1629     1.0  0.51601  0.07412  0.13232  1.0000
  H   H1630     1.0  0.71451  0.02286  0.08606  1.0000
  H   H1631     1.0  0.72708  0.24253  0.99107  1.0000
  H   H1632     1.0  0.57731  0.18312  0.98641  1.0000
  H   H1633     1.0  0.63874  0.15930  0.01579  1.0000
  C   C948      1.0  0.50444  0.00179  0.97703  1.0000
  H   H1634     1.0  0.72416  0.19194  0.08370  1.0000
  H   H1635     1.0  0.66491  0.04451  0.11204  1.0000
  S   S284      1.0  0.84233  0.99988  0.02562  1.0000
  C   C949      1.0  0.93789  0.06926  0.12913  1.0000
  H   H1636     1.0  0.53263  0.03697  0.14866  1.0000
  H   H1637     1.0  0.51045  0.06101  0.02504  1.0000
  C   C950      1.0  0.89521  0.09811  0.22046  1.0000
  H   H1638     1.0  0.57395  0.14801  0.01372  1.0000
  H   H1639     1.0  0.92793  0.02551  0.09357  1.0000
  N   N66       1.0  0.63597  0.13899  0.97714  1.0000
  S   S285      1.0  0.84232  0.26117  0.19347  1.0000
  H   H1640     1.0  0.97677  0.27027  0.99983  1.0000
  C   C951      1.0  0.73396  0.21674  0.08567  1.0000
  H   H1641     1.0  0.91686  0.16848  0.16417  1.0000
  C   C952      1.0  0.92550  0.19310  0.15280  1.0000
  N   N67       1.0  0.49872  0.04741  0.08544  1.0000
  C   C953      1.0  0.98132  0.16252  0.05539  1.0000
  H   H1642     1.0  0.94343  0.24218  0.19438  1.0000
  H   H1643     1.0  0.54317  0.07993  0.07430  1.0000
  C   C954      1.0  0.70546  0.24222  0.08249  1.0000
  C   C955      1.0  0.96675  0.16023  0.19732  1.0000
  N   N68       1.0  0.71593  0.27805  0.08051  1.0000
  C   C956      1.0  0.62531  0.25259  0.19066  1.0000
  H   H1644     1.0  0.91453  0.07209  0.11897  1.0000
  H   H1645     1.0  0.75664  0.22256  0.06942  1.0000
  H   H1646     1.0  0.73642  0.29454  0.00732  1.0000
  C   C957      1.0  0.75787  0.01612  0.13541  1.0000
  H   H1647     1.0  0.75907  0.27381  0.04743  1.0000
  H   H1648     1.0  0.58358  0.27505  0.99616  1.0000
  S   S286      1.0  0.78332  0.20024  0.20730  1.0000
  Fe  Fe141     1.0  0.80110  0.29268  0.21304  1.0000
  C   C958      1.0  0.62722  0.16500  0.99619  1.0000
  H   H1649     1.0  0.60911  0.11004  0.03541  1.0000
  H   H1650     1.0  0.56199  0.25262  0.04516  1.0000
  Fe  Fe142     1.0  0.91377  0.30315  0.98270  1.0000
  C   C959      1.0  0.52052  0.10569  0.20346  1.0000
  H   H1651     1.0  0.96684  0.22859  0.14738  1.0000
  H   H1652     1.0  0.50801  0.10063  0.03818  1.0000
  H   H1653     1.0  0.52755  0.00932  0.10657  1.0000
  H   H1654     1.0  0.51813  0.00583  0.04066  1.0000
  H   H1655     1.0  0.73238  0.00424  0.13757  1.0000
  H   H1656     1.0  0.98472  0.17923  0.99119  1.0000
  H   H1657     1.0  0.75467  0.99539  0.97866  1.0000
  H   H1658     1.0  0.57345  0.31537  0.00178  1.0000
  H   H1659     1.0  0.62933  0.02206  0.21504  1.0000
  H   H1660     1.0  0.49545  0.22335  0.18182  1.0000
  C   C960      1.0  0.99036  0.03495  0.15839  1.0000
  C   C961      1.0  0.98819  0.14691  0.22034  1.0000
  C   C962      1.0  0.74526  0.31581  0.10924  1.0000
  H   H1661     1.0  0.91462  0.00462  0.14612  1.0000
  C   C963      1.0  0.93469  0.99422  0.13152  1.0000
  C   C964      1.0  0.49108  0.23613  0.99076  1.0000
  H   H1662     1.0  0.98749  0.09573  0.08743  1.0000
  H   H1663     1.0  0.98830  0.03739  0.05350  1.0000
  C   C965      1.0  0.67422  0.13508  0.97232  1.0000
  Fe  Fe143     1.0  0.95416  0.21981  0.35948  1.0000
  C   C966      1.0  0.49923  0.03719  0.44410  1.0000
  H   H1664     1.0  0.79444  0.14008  0.27373  1.0000
  H   H1665     1.0  0.71964  0.04437  0.32095  1.0000
  H   H1666     1.0  0.92388  0.05651  0.30128  1.0000
  H   H1667     1.0  0.69291  0.09768  0.31383  1.0000
  H   H1668     1.0  0.56697  0.28776  0.42238  1.0000
  C   C967      1.0  0.64410  0.26595  0.38966  1.0000
  S   S287      1.0  0.78513  0.25546  0.25081  1.0000
  C   C968      1.0  0.60398  0.08600  0.43444  1.0000
  S   S288      1.0  0.85507  0.19114  0.25557  1.0000
  H   H1669     1.0  0.58674  0.07131  0.25474  1.0000
  S   S289      1.0  0.72339  0.24507  0.42074  1.0000
  H   H1670     1.0  0.92746  0.30125  0.45393  1.0000
  H   H1671     1.0  0.75855  0.04792  0.43090  1.0000
  S   S290      1.0  0.80228  0.25982  0.45653  1.0000
  H   H1672     1.0  0.77050  0.20811  0.37901  1.0000
  Fe  Fe144     1.0  0.71340  0.19028  0.42926  1.0000
  S   S291      1.0  0.71659  0.15972  0.39377  1.0000
  S   S292      1.0  0.94724  0.04491  0.41370  1.0000
  S   S293      1.0  0.63195  0.28199  0.44300  1.0000
  H   H1673     1.0  0.79351  0.15387  0.37272  1.0000
  C   C969      1.0  0.94284  0.13613  0.37088  1.0000
  Fe  Fe145     1.0  0.62861  0.01622  0.33971  1.0000
  S   S294      1.0  0.60666  0.02072  0.38407  1.0000
  S   S295      1.0  0.62832  0.06313  0.30972  1.0000
  H   H1674     1.0  0.91912  0.08923  0.25759  1.0000
  N   N69       1.0  0.78894  0.01881  0.45873  1.0000
  H   H1675     1.0  0.69186  0.15566  0.32237  1.0000
  H   H1676     1.0  0.76488  0.08515  0.46140  1.0000
  H   H1677     1.0  0.50008  0.99585  0.23937  1.0000
  H   H1678     1.0  0.51635  0.20046  0.22453  1.0000
  H   H1679     1.0  0.89268  0.02436  0.31240  1.0000
  H   H1680     1.0  0.54758  0.17922  0.44506  1.0000
  H   H1681     1.0  0.78810  0.09719  0.28956  1.0000
  H   H1682     1.0  0.73674  0.10234  0.31564  1.0000
  C   C970      1.0  0.56661  0.31731  0.26298  1.0000
  H   H1683     1.0  0.50845  0.04829  0.46058  1.0000
  C   C971      1.0  0.57149  0.07750  0.23741  1.0000
  C   C972      1.0  0.79396  0.22249  0.36883  1.0000
  H   H1684     1.0  0.74914  0.05268  0.28928  1.0000
  C   C973      1.0  0.93392  0.08488  0.40297  1.0000
  C   C974      1.0  0.80944  0.15165  0.35225  1.0000
  Fe  Fe146     1.0  0.82194  0.22202  0.22924  1.0000
  H   H1685     1.0  0.57507  0.30561  0.24380  1.0000
  H   H1686     1.0  0.53484  0.01631  0.24961  1.0000
  H   H1687     1.0  0.67031  0.26339  0.39266  1.0000
  H   H1688     1.0  0.87593  0.14224  0.42275  1.0000
  C   C975      1.0  0.58864  0.08285  0.31265  1.0000
  C   C976      1.0  0.55859  0.06554  0.32536  1.0000
  C   C977      1.0  0.52695  0.08135  0.32612  1.0000
  C   C978      1.0  0.52539  0.11476  0.31498  1.0000
  C   C979      1.0  0.55555  0.13229  0.30312  1.0000
  C   C980      1.0  0.58697  0.11617  0.30138  1.0000
  H   H1689     1.0  0.55961  0.03980  0.33411  1.0000
  H   H1690     1.0  0.53473  0.10984  0.25616  1.0000
  H   H1691     1.0  0.55461  0.15799  0.29429  1.0000
  H   H1692     1.0  0.60998  0.12962  0.29124  1.0000
  Fe  Fe147     1.0  0.67536  0.24809  0.45141  1.0000
  H   H1693     1.0  0.57234  0.21673  0.43786  1.0000
  S   S296      1.0  0.74468  0.02269  0.23781  1.0000
  H   H1694     1.0  0.85316  0.26797  0.34692  1.0000
  C   C981      1.0  0.61984  0.27597  0.41071  1.0000
  C   C982      1.0  0.58588  0.28003  0.40614  1.0000
  C   C983      1.0  0.57614  0.27273  0.38094  1.0000
  C   C984      1.0  0.57395  0.18940  0.43992  1.0000
  H   H1695     1.0  0.81107  0.10741  0.25513  1.0000
  C   C985      1.0  0.82671  0.18480  0.33796  1.0000
  H   H1696     1.0  0.82944  0.13320  0.35613  1.0000
  S   S297      1.0  0.52187  0.22514  0.28895  1.0000
  C   C986      1.0  0.70524  0.11777  0.40415  1.0000
  C   C987      1.0  0.70116  0.10360  0.43240  1.0000
  C   C988      1.0  0.69266  0.06978  0.43986  1.0000
  C   C989      1.0  0.68787  0.05023  0.41912  1.0000
  C   C990      1.0  0.69121  0.06470  0.39101  1.0000
  C   C991      1.0  0.70015  0.09827  0.38356  1.0000
  Fe  Fe148     1.0  0.98816  0.27882  0.32233  1.0000
  H   H1697     1.0  0.98048  0.12077  0.22813  1.0000
  H   H1698     1.0  0.68720  0.04997  0.37490  1.0000
  H   H1699     1.0  0.70277  0.10927  0.36182  1.0000
  H   H1700     1.0  0.70378  0.04888  0.28821  1.0000
  H   H1701     1.0  0.70467  0.11863  0.44848  1.0000
  S   S298      1.0  0.69383  0.23255  0.24376  1.0000
  H   H1702     1.0  0.76040  0.13152  0.23693  1.0000
  C   C992      1.0  0.60069  0.26251  0.36004  1.0000
  H   H1703     1.0  0.92045  0.02295  0.26271  1.0000
  H   H1704     1.0  0.79342  0.14167  0.33835  1.0000
  H   H1705     1.0  0.69765  0.08710  0.25085  1.0000
  H   H1706     1.0  0.65370  0.25192  0.34811  1.0000
  H   H1707     1.0  0.85001  0.18759  0.34747  1.0000
  H   H1708     1.0  0.89629  0.13919  0.27679  1.0000
  H   H1709     1.0  0.87002  0.27320  0.31060  1.0000
  H   H1710     1.0  0.55362  0.11368  0.36877  1.0000
  H   H1711     1.0  0.54980  0.27504  0.37764  1.0000
  H   H1712     1.0  0.92093  0.30762  0.32630  1.0000
  H   H1713     1.0  0.52782  0.06771  0.26961  1.0000
  C   C993      1.0  0.86976  0.15523  0.24194  1.0000
  C   C994      1.0  0.89010  0.13370  0.25694  1.0000
  C   C995      1.0  0.90298  0.10534  0.24612  1.0000
  H   H1714     1.0  0.95706  0.15055  0.35244  1.0000
  C   C996      1.0  0.92055  0.02930  0.30617  1.0000
  N   N70       1.0  0.59037  0.14338  0.40886  1.0000
  C   C997      1.0  0.59278  0.17954  0.41214  1.0000
  C   C998      1.0  0.61364  0.13833  0.38220  1.0000
  C   C999      1.0  0.60352  0.12378  0.43358  1.0000
  C   C1000     1.0  0.55344  0.13438  0.40842  1.0000
  H   H1715     1.0  0.82403  0.07398  0.42672  1.0000
  C   C1001     1.0  0.60772  0.16155  0.35557  1.0000
  Fe  Fe149     1.0  0.65125  0.99059  0.39476  1.0000
  C   C1002     1.0  0.54654  0.10616  0.39171  1.0000
  H   H1716     1.0  0.62000  0.18778  0.41000  1.0000
  H   H1717     1.0  0.58200  0.19529  0.39511  1.0000
  H   H1718     1.0  0.61205  0.11260  0.37748  1.0000
  H   H1719     1.0  0.64083  0.14199  0.38464  1.0000
  C   C1003     1.0  0.69019  0.13714  0.23299  1.0000
  H   H1720     1.0  0.55969  0.08303  0.39778  1.0000
  H   H1721     1.0  0.53962  0.12762  0.43022  1.0000
  H   H1722     1.0  0.53955  0.15602  0.39940  1.0000
  N   N71       1.0  0.97161  0.01140  0.27165  1.0000
  H   H1723     1.0  0.58028  0.16448  0.35383  1.0000
  H   H1724     1.0  0.61945  0.18635  0.35501  1.0000
  H   H1725     1.0  0.62035  0.15137  0.33669  1.0000
  C   C1004     1.0  0.92645  0.18064  0.45970  1.0000
  H   H1726     1.0  0.62892  0.25941  0.23346  1.0000
  H   H1727     1.0  0.93294  0.02016  0.32467  1.0000
  H   H1728     1.0  0.84427  0.22846  0.38255  1.0000
  S   S299      1.0  0.49380  0.27863  0.33172  1.0000
  N   N72       1.0  0.50831  0.08284  0.23033  1.0000
  S   S300      1.0  0.59009  0.25293  0.32837  1.0000
  Fe  Fe150     1.0  0.74863  0.23794  0.22525  1.0000
  C   C1005     1.0  0.50526  0.99698  0.41111  1.0000
  C   C1006     1.0  0.97844  0.99483  0.24551  1.0000
  N   N73       1.0  0.80460  0.21485  0.33921  1.0000
  S   S301      1.0  0.50503  0.20131  0.35752  1.0000
  H   H1729     1.0  0.57314  0.05652  0.22507  1.0000
  H   H1730     1.0  0.82000  0.05709  0.47073  1.0000
  H   H1731     1.0  0.79913  0.07862  0.39960  1.0000
  C   C1007     1.0  0.77292  0.20820  0.32687  1.0000
  C   C1008     1.0  0.82327  0.24386  0.32052  1.0000
  C   C1009     1.0  0.74652  0.23616  0.32607  1.0000
  H   H1732     1.0  0.77999  0.20215  0.30505  1.0000
  H   H1733     1.0  0.75843  0.18630  0.33912  1.0000
  H   H1734     1.0  0.83641  0.18175  0.31572  1.0000
  H   H1735     1.0  0.82871  0.23851  0.29838  1.0000
  H   H1736     1.0  0.80735  0.26625  0.32006  1.0000
  H   H1737     1.0  0.73782  0.24331  0.34719  1.0000
  H   H1738     1.0  0.75601  0.25825  0.31105  1.0000
  H   H1739     1.0  0.72352  0.22716  0.31865  1.0000
  H   H1740     1.0  0.61834  0.07818  0.41514  1.0000
  Fe  Fe151     1.0  0.53509  0.24151  0.32818  1.0000
  C   C1010     1.0  0.63467  0.25963  0.36431  1.0000
  H   H1741     1.0  0.68944  0.05890  0.46171  1.0000
  H   H1742     1.0  0.58785  0.12786  0.45380  1.0000
  C   C1011     1.0  0.95142  0.10324  0.37862  1.0000
  C   C1012     1.0  0.75650  0.11291  0.25613  1.0000
  H   H1743     1.0  0.73765  0.31521  0.23995  1.0000
  H   H1744     1.0  0.74400  0.15781  0.29223  1.0000
  H   H1745     1.0  0.54213  0.30495  0.27303  1.0000
  H   H1746     1.0  0.87559  0.23459  0.33087  1.0000
  S   S302      1.0  0.67788  0.00778  0.42819  1.0000
  S   S303      1.0  0.74402  0.18266  0.46456  1.0000
  C   C1013     1.0  0.94669  0.21534  0.23520  1.0000
  H   H1747     1.0  0.78697  0.24894  0.36865  1.0000
  C   C1014     1.0  0.81121  0.05967  0.41347  1.0000
  Fe  Fe152     1.0  0.74950  0.23802  0.45890  1.0000
  S   S304      1.0  0.95904  0.27269  0.36620  1.0000
  C   C1015     1.0  0.94050  0.28562  0.46953  1.0000
  H   H1748     1.0  0.58386  0.09967  0.22387  1.0000
  H   H1749     1.0  0.50372  0.06769  0.33550  1.0000
  H   H1750     1.0  0.92806  0.23286  0.24429  1.0000
  H   H1751     1.0  0.75627  0.08871  0.24811  1.0000
  H   H1752     1.0  0.83070  0.04679  0.40008  1.0000
  H   H1753     1.0  0.57776  0.07520  0.43893  1.0000
  H   H1754     1.0  0.51871  0.10026  0.39548  1.0000
  Fe  Fe153     1.0  0.94876  0.03728  0.45994  1.0000
  H   H1755     1.0  0.80872  0.22329  0.40993  1.0000
  C   C1016     1.0  0.78338  0.03512  0.43001  1.0000
  H   H1756     1.0  0.72772  0.17161  0.26144  1.0000
  H   H1757     1.0  0.66656  0.15234  0.29495  1.0000
  N   N74       1.0  0.72312  0.11828  0.27434  1.0000
  S   S305      1.0  0.66349  0.19378  0.45694  1.0000
  C   C1017     1.0  0.69448  0.11150  0.25857  1.0000
  C   C1018     1.0  0.71886  0.09537  0.30177  1.0000
  C   C1019     1.0  0.72260  0.15329  0.28083  1.0000
  H   H1758     1.0  0.68692  0.19019  0.29591  1.0000
  H   H1759     1.0  0.54183  0.00428  0.43839  1.0000
  C   C1020     1.0  0.72325  0.05835  0.29945  1.0000
  C   C1021     1.0  0.69019  0.16305  0.29974  1.0000
  C   C1022     1.0  0.90654  0.09883  0.41883  1.0000
  C   C1023     1.0  0.89702  0.13135  0.41046  1.0000
  H   H1760     1.0  0.66951  0.10923  0.27256  1.0000
  H   H1761     1.0  0.91511  0.24430  0.45833  1.0000
  H   H1762     1.0  0.58804  0.18172  0.45772  1.0000
  C   C1024     1.0  0.94091  0.24959  0.46330  1.0000
  H   H1763     1.0  0.63000  0.13216  0.43468  1.0000
  C   C1025     1.0  0.81967  0.21517  0.38964  1.0000
  H   H1764     1.0  0.82444  0.18839  0.39436  1.0000
  H   H1765     1.0  0.92709  0.19474  0.43835  1.0000
  H   H1766     1.0  0.97213  0.09221  0.36615  1.0000
  C   C1026     1.0  0.51812  0.01244  0.43150  1.0000
  H   H1767     1.0  0.89252  0.08451  0.43736  1.0000
  H   H1768     1.0  0.61711  0.07516  0.45211  1.0000
  C   C1027     1.0  0.93334  0.01160  0.28048  1.0000
  C   C1028     1.0  0.91568  0.15019  0.38684  1.0000
  C   C1029     1.0  0.78897  0.11462  0.26989  1.0000
  S   S306      1.0  0.90590  0.19166  0.37793  1.0000
  S   S307      1.0  0.84093  0.01326  0.25039  1.0000
  H   H1769     1.0  0.78059  0.01620  0.41606  1.0000
  C   C1030     1.0  0.85735  0.25492  0.32817  1.0000
  H   H1770     1.0  0.68150  0.16113  0.23953  1.0000
  H   H1771     1.0  0.95868  0.24897  0.44326  1.0000
  H   H1772     1.0  0.97220  0.22348  0.23852  1.0000
  H   H1773     1.0  0.96948  0.06017  0.24833  1.0000
  H   H1774     1.0  0.67621  0.00151  0.24031  1.0000
  C   C1031     1.0  0.85452  0.00842  0.45363  1.0000
  C   C1032     1.0  0.68114  0.02167  0.22319  1.0000
  C   C1033     1.0  0.81778  0.99457  0.45643  1.0000
  H   H1775     1.0  0.86092  0.02868  0.43609  1.0000
  C   C1034     1.0  0.98761  0.99373  0.29573  1.0000
  H   H1776     1.0  0.93944  0.19079  0.24743  1.0000
  H   H1777     1.0  0.96830  0.01001  0.22777  1.0000
  H   H1778     1.0  0.96686  0.29589  0.46738  1.0000
  C   C1035     1.0  0.53439  0.08473  0.24968  1.0000
  C   C1036     1.0  0.50785  0.01914  0.24632  1.0000
  C   C1037     1.0  0.98375  0.04701  0.26447  1.0000
  H   H1779     1.0  0.56134  0.32031  0.31850  1.0000
  H   H1780     1.0  0.98450  0.16042  0.23873  1.0000
  H   H1781     1.0  0.97856  0.06023  0.28317  1.0000
  H   H1782     1.0  0.97925  0.19415  0.45781  1.0000
  S   S308      1.0  0.97959  0.22674  0.31433  1.0000
  H   H1783     1.0  0.92960  0.15418  0.45696  1.0000
  H   H1784     1.0  0.49191  0.02101  0.26675  1.0000
  H   H1785     1.0  0.58663  0.31190  0.27654  1.0000
  Fe  Fe154     1.0  0.79891  0.00631  0.22519  1.0000
  H   H1786     1.0  0.78144  0.32082  0.30747  1.0000
  H   H1787     1.0  0.73383  0.01556  0.47163  1.0000
  H   H1788     1.0  0.75092  0.31899  0.35677  1.0000
  H   H1789     1.0  0.86444  0.28111  0.47120  1.0000
  C   C1038     1.0  0.50363  0.04835  0.22331  1.0000
  H   H1790     1.0  0.67001  0.12810  0.22217  1.0000
  C   C1039     1.0  0.91653  0.18743  0.53014  1.0000
  S   S309      1.0  0.68294  0.26015  0.58717  1.0000
  H   H1791     1.0  0.63301  0.27791  0.63459  1.0000
  S   S310      1.0  0.56461  0.17568  0.66993  1.0000
  S   S311      1.0  0.91640  0.30594  0.54896  1.0000
  Fe  Fe155     1.0  0.91121  0.28272  0.59361  1.0000
  H   H1792     1.0  0.58701  0.24453  0.66696  1.0000
  S   S312      1.0  0.90100  0.22804  0.59851  1.0000
  H   H1793     1.0  0.65692  0.19473  0.59031  1.0000
  Fe  Fe156     1.0  0.53784  0.18992  0.71116  1.0000
  Fe  Fe157     1.0  0.90585  0.01657  0.51661  1.0000
  H   H1794     1.0  0.91100  0.05138  0.62906  1.0000
  H   H1795     1.0  0.89672  0.22729  0.50450  1.0000
  S   S313      1.0  0.54772  0.06876  0.55459  1.0000
  H   H1796     1.0  0.68088  0.03830  0.70029  1.0000
  H   H1797     1.0  0.92667  0.28773  0.49075  1.0000
  H   H1798     1.0  0.88441  0.02129  0.68845  1.0000
  H   H1799     1.0  0.96077  0.17112  0.48996  1.0000
  H   H1800     1.0  0.52510  0.19296  0.54347  1.0000
  H   H1801     1.0  0.98865  0.04001  0.61013  1.0000
  H   H1802     1.0  0.92860  0.11121  0.65638  1.0000
  C   C1040     1.0  0.64494  0.13294  0.53748  1.0000
  C   C1041     1.0  0.58888  0.12105  0.52607  1.0000
  C   C1042     1.0  0.58512  0.09345  0.54695  1.0000
  C   C1043     1.0  0.61150  0.08539  0.56264  1.0000
  C   C1044     1.0  0.64106  0.10529  0.55819  1.0000
  H   H1803     1.0  0.60886  0.06399  0.57869  1.0000
  H   H1804     1.0  0.66102  0.09917  0.57082  1.0000
  H   H1805     1.0  0.61203  0.16156  0.62300  1.0000
  H   H1806     1.0  0.97181  0.13080  0.61130  1.0000
  H   H1807     1.0  0.58922  0.29325  0.68731  1.0000
  H   H1808     1.0  0.54393  0.08794  0.69558  1.0000
  H   H1809     1.0  0.54101  0.99857  0.56427  1.0000
  Fe  Fe158     1.0  0.97930  0.99476  0.50471  1.0000
  H   H1810     1.0  0.92276  0.16138  0.59498  1.0000
  S   S314      1.0  0.95509  0.31175  0.60306  1.0000
  C   C1045     1.0  0.52182  0.11042  0.63269  1.0000
  H   H1811     1.0  0.50455  0.31200  0.47443  1.0000
  C   C1046     1.0  0.85130  0.31262  0.50322  1.0000
  H   H1812     1.0  0.70198  0.25584  0.65211  1.0000
  H   H1813     1.0  0.56862  0.12748  0.51391  1.0000
  H   H1814     1.0  0.56891  0.19333  0.52933  1.0000
  C   C1047     1.0  0.59669  0.20068  0.64747  1.0000
  C   C1048     1.0  0.60262  0.23371  0.65047  1.0000
  C   C1049     1.0  0.62870  0.25260  0.63204  1.0000
  C   C1050     1.0  0.64890  0.23851  0.61047  1.0000
  C   C1051     1.0  0.64220  0.20574  0.60725  1.0000
  C   C1052     1.0  0.61646  0.18697  0.62565  1.0000
  C   C1053     1.0  0.61888  0.14071  0.52125  1.0000
  Fe  Fe159     1.0  0.69630  0.31347  0.58895  1.0000
  C   C1054     1.0  0.92193  0.22123  0.51123  1.0000
  H   H1815     1.0  0.92583  0.23993  0.52518  1.0000
  H   H1816     1.0  0.61821  0.31994  0.69866  1.0000
  H   H1817     1.0  0.92674  0.30795  0.68975  1.0000
  H   H1818     1.0  0.73677  0.24099  0.67072  1.0000
  H   H1819     1.0  0.81094  0.19748  0.49438  1.0000
  H   H1820     1.0  0.51645  0.25915  0.52155  1.0000
  H   H1821     1.0  0.51528  0.12124  0.61188  1.0000
  H   H1822     1.0  0.93726  0.03754  0.69381  1.0000
  H   H1823     1.0  0.73751  0.28203  0.65244  1.0000
  H   H1824     1.0  0.56674  0.08530  0.64715  1.0000
  S   S315      1.0  0.98140  0.11132  0.52749  1.0000
  H   H1825     1.0  0.94373  0.08057  0.61612  1.0000
  C   C1055     1.0  0.84393  0.29234  0.48376  1.0000
  C   C1056     1.0  0.98273  0.06663  0.65700  1.0000
  H   H1826     1.0  0.89728  0.00526  0.65559  1.0000
  H   H1827     1.0  0.79793  0.03052  0.49915  1.0000
  S   S316      1.0  0.70232  0.24558  0.48920  1.0000
  H   H1828     1.0  0.61921  0.25435  0.51379  1.0000
  H   H1829     1.0  0.93788  0.28018  0.71738  1.0000
  C   C1057     1.0  0.96793  0.15610  0.61481  1.0000
  H   H1830     1.0  0.61434  0.00733  0.50634  1.0000
  H   H1831     1.0  0.89777  0.19024  0.54909  1.0000
  N   N75       1.0  0.95022  0.22384  0.48623  1.0000
  H   H1832     1.0  0.75740  0.99130  0.49505  1.0000
  C   C1058     1.0  0.95246  0.99954  0.61673  1.0000
  C   C1059     1.0  0.91785  0.28483  0.70389  1.0000
  H   H1833     1.0  0.89050  0.10131  0.64394  1.0000
  H   H1834     1.0  0.53022  0.23308  0.59250  1.0000
  C   C1060     1.0  0.93554  0.20637  0.60991  1.0000
  H   H1835     1.0  0.87739  0.31761  0.50517  1.0000
  C   C1061     1.0  0.90433  0.00746  0.67635  1.0000
  C   C1062     1.0  0.94014  0.02272  0.67608  1.0000
  Fe  Fe160     1.0  0.69459  0.19071  0.49189  1.0000
  C   C1063     1.0  0.94030  0.17344  0.60555  1.0000
  H   H1836     1.0  0.52463  0.13195  0.64370  1.0000
  C   C1064     1.0  0.55764  0.09553  0.62734  1.0000
  C   C1065     1.0  0.81008  0.28639  0.48053  1.0000
  C   C1066     1.0  0.65666  0.23476  0.70146  1.0000
  H   H1837     1.0  0.57608  0.11530  0.61652  1.0000
  C   C1067     1.0  0.59136  0.31717  0.69522  1.0000
  H   H1838     1.0  0.77605  0.08745  0.49528  1.0000
  H   H1839     1.0  0.55547  0.15173  0.57049  1.0000
  C   C1068     1.0  0.98573  0.20440  0.63296  1.0000
  H   H1840     1.0  0.52102  0.05130  0.67320  1.0000
  C   C1069     1.0  0.60113  0.99691  0.52758  1.0000
  H   H1841     1.0  0.50099  0.28813  0.64236  1.0000
  H   H1842     1.0  0.83565  0.20249  0.57085  1.0000
  H   H1843     1.0  0.66876  0.22128  0.68422  1.0000
  H   H1844     1.0  0.80507  0.14125  0.59975  1.0000
  H   H1845     1.0  0.80513  0.19598  0.60168  1.0000
  H   H1846     1.0  0.64021  0.25372  0.69170  1.0000
  H   H1847     1.0  0.63889  0.01957  0.54738  1.0000
  H   H1848     1.0  0.90811  0.26394  0.66635  1.0000
  N   N76       1.0  0.95624  0.04414  0.64957  1.0000
  C   C1070     1.0  0.55630  0.24152  0.49354  1.0000
  C   C1071     1.0  0.85791  0.29454  0.70020  1.0000
  C   C1072     1.0  0.82135  0.30371  0.71251  1.0000
  C   C1073     1.0  0.52474  0.24451  0.57157  1.0000
  S   S317      1.0  0.50247  0.11932  0.49537  1.0000
  N   N77       1.0  0.55231  0.23715  0.54823  1.0000
  H   H1849     1.0  0.57514  0.31637  0.71593  1.0000
  C   C1074     1.0  0.55086  0.20042  0.54720  1.0000
  C   C1075     1.0  0.54456  0.25629  0.52097  1.0000
  C   C1076     1.0  0.58614  0.24800  0.55493  1.0000
  C   C1077     1.0  0.78357  0.30138  0.49646  1.0000
  C   C1078     1.0  0.55906  0.17786  0.57346  1.0000
  H   H1850     1.0  0.72258  0.28899  0.70027  1.0000
  C   C1079     1.0  0.61814  0.23999  0.53496  1.0000
  H   H1851     1.0  0.94734  0.25212  0.67823  1.0000
  H   H1852     1.0  0.83556  0.14761  0.56850  1.0000
  H   H1853     1.0  0.51345  0.04303  0.63005  1.0000
  H   H1854     1.0  0.94004  0.17774  0.53767  1.0000
  H   H1855     1.0  0.54033  0.21957  0.49249  1.0000
  H   H1856     1.0  0.55523  0.28198  0.51796  1.0000
  H   H1857     1.0  0.58716  0.27518  0.55492  1.0000
  H   H1858     1.0  0.58949  0.23694  0.57657  1.0000
  S   S318      1.0  0.85114  0.00620  0.53779  1.0000
  H   H1859     1.0  0.50363  0.08704  0.71694  1.0000
  H   H1860     1.0  0.85503  0.27185  0.69035  1.0000
  H   H1861     1.0  0.49965  0.23380  0.56906  1.0000
  Fe  Fe161     1.0  0.96579  0.06597  0.51053  1.0000
  Fe  Fe162     1.0  0.50127  0.08835  0.53737  1.0000
  S   S319      1.0  0.87165  0.31746  0.60947  1.0000
  H   H1862     1.0  0.97093  0.08298  0.67222  1.0000
  H   H1863     1.0  0.53299  0.01595  0.51849  1.0000
  C   C1080     1.0  0.97447  0.02364  0.62849  1.0000
  H   H1864     1.0  0.90831  0.23330  0.69714  1.0000
  C   C1081     1.0  0.80928  0.19263  0.57902  1.0000
  H   H1865     1.0  0.58340  0.01662  0.53315  1.0000
  H   H1866     1.0  0.71399  0.20780  0.71036  1.0000
  H   H1867     1.0  0.63653  0.04672  0.70591  1.0000
  H   H1868     1.0  0.52909  0.29770  0.68041  1.0000
  H   H1869     1.0  0.79106  0.14552  0.56624  1.0000
  H   H1870     1.0  0.51146  0.29552  0.55498  1.0000
  S   S320      1.0  0.91815  0.06612  0.49064  1.0000
  H   H1871     1.0  0.93254  0.01209  0.60570  1.0000
  C   C1082     1.0  0.50808  0.31430  0.64301  1.0000
  C   C1083     1.0  0.51901  0.28140  0.57418  1.0000
  H   H1872     1.0  0.55918  0.30393  0.64890  1.0000
  C   C1084     1.0  0.79106  0.32228  0.51554  1.0000
  H   H1873     1.0  0.95457  0.24700  0.62724  1.0000
  H   H1874     1.0  0.71961  0.00949  0.72006  1.0000
  H   H1875     1.0  0.62044  0.21323  0.53354  1.0000
  H   H1876     1.0  0.98016  0.25833  0.50356  1.0000
  C   C1085     1.0  0.91182  0.09030  0.65428  1.0000
  H   H1877     1.0  0.58609  0.18079  0.57623  1.0000
  H   H1878     1.0  0.62140  0.16230  0.50557  1.0000
  H   H1879     1.0  0.90081  0.07818  0.67556  1.0000
  S   S321      1.0  0.95062  0.01913  0.53965  1.0000
  H   H1880     1.0  0.51411  0.12000  0.68891  1.0000
  C   C1086     1.0  0.70255  0.27603  0.69200  1.0000
  H   H1881     1.0  0.90577  0.16854  0.51942  1.0000
  S   S322      1.0  0.68234  0.15743  0.53297  1.0000
  H   H1882     1.0  0.80801  0.28948  0.58066  1.0000
  C   C1087     1.0  0.80981  0.15484  0.57805  1.0000
  H   H1883     1.0  0.55852  0.07621  0.61336  1.0000
  C   C1088     1.0  0.92001  0.25676  0.68551  1.0000
  H   H1884     1.0  0.95734  0.00224  0.68195  1.0000
  C   C1089     1.0  0.53688  0.31513  0.66092  1.0000
  N   N78       1.0  0.78379  0.21251  0.56390  1.0000
  C   C1090     1.0  0.79572  0.21908  0.53259  1.0000
  C   C1091     1.0  0.78015  0.24588  0.57421  1.0000
  C   C1092     1.0  0.74861  0.19664  0.56901  1.0000
  C   C1093     1.0  0.80494  0.18887  0.51732  1.0000
  C   C1094     1.0  0.81383  0.26407  0.57596  1.0000
  C   C1095     1.0  0.73347  0.18516  0.60007  1.0000
  H   H1885     1.0  0.77583  0.23278  0.52193  1.0000
  H   H1886     1.0  0.81881  0.23533  0.52751  1.0000
  H   H1887     1.0  0.76538  0.24387  0.59572  1.0000
  H   H1888     1.0  0.76510  0.26284  0.56087  1.0000
  H   H1889     1.0  0.73005  0.21393  0.55990  1.0000
  H   H1890     1.0  0.74748  0.17501  0.55771  1.0000
  H   H1891     1.0  0.82832  0.17695  0.52344  1.0000
  H   H1892     1.0  0.78363  0.17068  0.52008  1.0000
  H   H1893     1.0  0.83223  0.26662  0.55624  1.0000
  H   H1894     1.0  0.82655  0.25186  0.59338  1.0000
  H   H1895     1.0  0.70997  0.17017  0.60064  1.0000
  H   H1896     1.0  0.72558  0.20625  0.61154  1.0000
  H   H1897     1.0  0.75082  0.16928  0.61158  1.0000
  H   H1898     1.0  0.58342  0.23458  0.49068  1.0000
  C   C1096     1.0  0.72053  0.26237  0.66554  1.0000
  H   H1899     1.0  0.75736  0.29726  0.49389  1.0000
  H   H1900     1.0  0.54150  0.29347  0.57983  1.0000
  C   C1097     1.0  0.93087  0.06590  0.63596  1.0000
  H   H1901     1.0  0.68519  0.29581  0.68471  1.0000
  H   H1902     1.0  0.75601  0.25050  0.71856  1.0000
  H   H1903     1.0  0.49756  0.28307  0.59147  1.0000
  H   H1904     1.0  0.54191  0.18142  0.59300  1.0000
  C   C1098     1.0  0.95840  0.22185  0.62341  1.0000
  H   H1905     1.0  0.64114  0.24743  0.54326  1.0000
  C   C1099     1.0  0.65945  0.04322  0.71656  1.0000
  H   H1906     1.0  0.80436  0.30273  0.69641  1.0000
  C   C1100     1.0  0.51653  0.09320  0.69490  1.0000
  C   C1101     1.0  0.62741  0.99466  0.54801  1.0000
  H   H1907     1.0  0.55274  0.26010  0.47531  1.0000
  H   H1908     1.0  0.49212  0.07053  0.60734  1.0000
  H   H1909     1.0  0.86724  0.31418  0.68241  1.0000
  H   H1910     1.0  0.74292  0.05942  0.49239  1.0000
  H   H1911     1.0  0.61306  0.20101  0.70987  1.0000
  C   C1102     1.0  0.50167  0.07073  0.67627  1.0000
  N   N79       1.0  0.68302  0.25120  0.71463  1.0000
  H   H1912     1.0  0.98482  0.20898  0.53666  1.0000
  C   C1103     1.0  0.98337  0.23496  0.49410  1.0000
  H   H1913     1.0  0.51270  0.99599  0.49513  1.0000
  N   N80       1.0  0.49394  0.08668  0.64806  1.0000
  S   S323      1.0  0.52927  0.24212  0.71891  1.0000
  C   C1104     1.0  0.52639  0.99135  0.51347  1.0000
  C   C1105     1.0  0.63295  0.20906  0.72144  1.0000
  C   C1106     1.0  0.76794  0.07015  0.48166  1.0000
  C   C1107     1.0  0.79536  0.04355  0.47785  1.0000
  C   C1108     1.0  0.95584  0.19193  0.47394  1.0000
  C   C1109     1.0  0.49125  0.05980  0.62980  1.0000
  H   H1914     1.0  0.90102  0.18335  0.47221  1.0000
  C   C1110     1.0  0.99034  0.17142  0.62883  1.0000
  N   N81       1.0  0.88326  0.28942  0.72067  1.0000
  H   H1915     1.0  0.85940  0.01665  0.47353  1.0000
  C   C1111     1.0  0.75664  0.99969  0.47232  1.0000
  Fe  Fe163     1.0  0.71914  0.15686  0.86697  1.0000
  S   S324      1.0  0.74258  0.16008  0.82161  1.0000
  S   S325      1.0  0.73158  0.12034  0.90291  1.0000
  Fe  Fe164     1.0  0.67226  0.21416  0.85659  1.0000
  S   S326      1.0  0.69120  0.22236  0.81018  1.0000
  S   S327      1.0  0.63101  0.24651  0.87501  1.0000
  Fe  Fe165     1.0  0.68867  0.16694  0.81286  1.0000
  S   S328      1.0  0.66884  0.14517  0.77778  1.0000
  Fe  Fe166     1.0  0.74311  0.21497  0.82259  1.0000
  S   S329      1.0  0.78979  0.24650  0.80355  1.0000
  S   S330      1.0  0.66505  0.15948  0.85824  1.0000
  S   S331      1.0  0.72447  0.21105  0.86893  1.0000
  H   H1916     1.0  0.97819  0.20094  0.94060  1.0000
  H   H1917     1.0  0.70241  0.02386  0.79002  1.0000
  H   H1918     1.0  0.58206  0.07293  0.75397  1.0000
  H   H1919     1.0  0.53882  0.16810  0.81834  1.0000
  H   H1920     1.0  0.86886  0.29403  0.90306  1.0000
  H   H1921     1.0  0.56193  0.21711  0.86983  1.0000
  H   H1922     1.0  0.76926  0.99391  0.87605  1.0000
  H   H1923     1.0  0.95450  0.03400  0.81305  1.0000
  Fe  Fe167     1.0  0.54278  0.22495  0.76142  1.0000
  S   S332      1.0  0.57645  0.25993  0.77726  1.0000
  H   H1924     1.0  0.95795  0.25700  0.81449  1.0000
  S   S333      1.0  0.55521  0.17324  0.75277  1.0000
  H   H1925     1.0  0.50753  0.28063  0.77408  1.0000
  H   H1926     1.0  0.51046  0.29037  0.95746  1.0000
  C   C1112     1.0  0.56229  0.04308  0.96281  1.0000
  H   H1927     1.0  0.74159  0.28199  0.88915  1.0000
  H   H1928     1.0  0.85105  0.20250  0.91372  1.0000
  H   H1929     1.0  0.75204  0.21458  0.74427  1.0000
  H   H1930     1.0  0.81059  0.25090  0.86073  1.0000
  C   C1113     1.0  0.69131  0.03335  0.77091  1.0000
  H   H1931     1.0  0.79523  0.03079  0.93667  1.0000
  C   C1114     1.0  0.83869  0.13271  0.92411  1.0000
  H   H1932     1.0  0.76506  0.23584  0.93928  1.0000
  H   H1933     1.0  0.96627  0.28625  0.83666  1.0000
  C   C1115     1.0  0.78016  0.11265  0.93744  1.0000
  C   C1116     1.0  0.56195  0.19045  0.87862  1.0000
  H   H1934     1.0  0.88732  0.23097  0.77913  1.0000
  C   C1117     1.0  0.91018  0.07679  0.77680  1.0000
  C   C1118     1.0  0.92459  0.10605  0.78266  1.0000
  C   C1119     1.0  0.55382  0.13398  0.86911  1.0000
  C   C1120     1.0  0.70933  0.99114  0.73828  1.0000
  H   H1935     1.0  0.64692  0.18657  0.72824  1.0000
  H   H1936     1.0  0.88499  0.06865  0.78716  1.0000
  H   H1937     1.0  0.91045  0.12027  0.79759  1.0000
  H   H1938     1.0  0.62938  0.02207  0.75455  1.0000
  C   C1121     1.0  0.87162  0.25985  0.74233  1.0000
  H   H1939     1.0  0.98448  0.01413  0.83440  1.0000
  C   C1122     1.0  0.59164  0.18034  0.81964  1.0000
  C   C1123     1.0  0.78218  0.99237  0.97136  1.0000
  H   H1940     1.0  0.65948  0.25135  0.75827  1.0000
  S   S334      1.0  0.95611  0.31116  0.94568  1.0000
  C   C1124     1.0  0.63833  0.11242  0.78573  1.0000
  C   C1125     1.0  0.63131  0.09444  0.81268  1.0000
  C   C1126     1.0  0.60651  0.06884  0.81844  1.0000
  C   C1127     1.0  0.58854  0.06097  0.79736  1.0000
  C   C1128     1.0  0.62089  0.10411  0.76450  1.0000
  H   H1941     1.0  0.64500  0.10024  0.82907  1.0000
  H   H1942     1.0  0.60116  0.05510  0.83934  1.0000
  H   H1943     1.0  0.62603  0.11799  0.74363  1.0000
  C   C1129     1.0  0.63689  0.26139  0.90619  1.0000
  C   C1130     1.0  0.61999  0.28990  0.91349  1.0000
  H   H1944     1.0  0.79405  0.27516  0.90166  1.0000
  H   H1945     1.0  0.95270  0.22039  0.89787  1.0000
  C   C1131     1.0  0.66240  0.25722  0.94881  1.0000
  C   C1132     1.0  0.65832  0.24523  0.92378  1.0000
  S   S335      1.0  0.55564  0.03051  0.80605  1.0000
  H   H1946     1.0  0.59573  0.18881  0.79666  1.0000
  H   H1947     1.0  0.66363  0.06682  0.72451  1.0000
  H   H1948     1.0  0.67159  0.22348  0.91807  1.0000
  C   C1133     1.0  0.78428  0.28943  0.80147  1.0000
  C   C1134     1.0  0.81272  0.30997  0.80080  1.0000
  C   C1135     1.0  0.93853  0.08371  0.84744  1.0000
  H   H1949     1.0  0.82277  0.21178  0.87498  1.0000
  H   H1950     1.0  0.79711  0.05654  0.89428  1.0000
  C   C1136     1.0  0.75208  0.30336  0.80077  1.0000
  H   H1951     1.0  0.83769  0.29939  0.80115  1.0000
  H   H1952     1.0  0.71844  0.28520  0.86033  1.0000
  C   C1137     1.0  0.73818  0.23657  0.73600  1.0000
  H   H1953     1.0  0.73004  0.28773  0.80102  1.0000
  C   C1138     1.0  0.77294  0.12514  0.91068  1.0000
  C   C1139     1.0  0.79876  0.14104  0.89048  1.0000
  C   C1140     1.0  0.83172  0.14449  0.89712  1.0000
  H   H1954     1.0  0.79341  0.15033  0.86967  1.0000
  H   H1955     1.0  0.85176  0.15649  0.88138  1.0000
  H   H1956     1.0  0.88363  0.22306  0.84920  1.0000
  H   H1957     1.0  0.94293  0.25553  0.87490  1.0000
  C   C1141     1.0  0.72556  0.03587  0.93629  1.0000
  H   H1958     1.0  0.73212  0.25125  0.75354  1.0000
  S   S336      1.0  0.57132  0.99683  0.73001  1.0000
  H   H1959     1.0  0.61836  0.13625  0.90895  1.0000
  C   C1142     1.0  0.69706  0.99193  0.85414  1.0000
  S   S337      1.0  0.85118  0.01256  0.82269  1.0000
  H   H1960     1.0  0.96882  0.12289  0.85944  1.0000
  H   H1961     1.0  0.79538  0.04823  0.85961  1.0000
  C   C1143     1.0  0.96590  0.21249  0.95882  1.0000
  Fe  Fe168     1.0  0.49971  0.16186  0.76922  1.0000
  C   C1144     1.0  0.95725  0.01580  0.83171  1.0000
  H   H1962     1.0  0.98135  0.25528  0.89090  1.0000
  H   H1963     1.0  0.64375  0.99279  0.73164  1.0000
  H   H1964     1.0  0.88805  0.22204  0.89379  1.0000
  H   H1965     1.0  0.92121  0.25700  0.75997  1.0000
  H   H1966     1.0  0.60347  0.30255  0.89983  1.0000
  H   H1967     1.0  0.75635  0.05119  0.88223  1.0000
  H   H1968     1.0  0.75403  0.31256  0.85862  1.0000
  H   H1969     1.0  0.81694  0.27184  0.93001  1.0000
  C   C1145     1.0  0.91810  0.05650  0.89640  1.0000
  S   S338      1.0  0.75641  0.01376  0.82075  1.0000
  C   C1146     1.0  0.52978  0.05707  0.96514  1.0000
  H   H1970     1.0  0.95778  0.08282  0.82828  1.0000
  H   H1971     1.0  0.53659  0.02888  0.90194  1.0000
  C   C1147     1.0  0.54864  0.18738  0.91042  1.0000
  H   H1972     1.0  0.69015  0.30903  0.90418  1.0000
  H   H1973     1.0  0.69025  0.16992  0.93356  1.0000
  H   H1974     1.0  0.88793  0.27972  0.87212  1.0000
  C   C1148     1.0  0.93387  0.02363  0.85838  1.0000
  H   H1975     1.0  0.87374  0.07965  0.87902  1.0000
  H   H1976     1.0  0.93414  0.00181  0.87483  1.0000
  H   H1977     1.0  0.54456  0.12458  0.89160  1.0000
  H   H1978     1.0  0.92140  0.03459  0.91208  1.0000
  C   C1149     1.0  0.70576  0.22473  0.72613  1.0000
  H   H1979     1.0  0.50745  0.22606  0.86886  1.0000
  C   C1150     1.0  0.50538  0.17128  0.86962  1.0000
  H   H1980     1.0  0.49432  0.23848  0.96749  1.0000
  C   C1151     1.0  0.55330  0.18170  0.83126  1.0000
  H   H1981     1.0  0.63141  0.17520  0.94081  1.0000
  H   H1982     1.0  0.55299  0.00957  0.87201  1.0000
  C   C1152     1.0  0.95737  0.11670  0.76935  1.0000
  H   H1983     1.0  0.90770  0.02440  0.85286  1.0000
  H   H1984     1.0  0.81809  0.10731  0.96498  1.0000
  H   H1985     1.0  0.58208  0.13181  0.86672  1.0000
  H   H1986     1.0  0.62240  0.10128  0.93413  1.0000
  H   H1987     1.0  0.69144  0.20865  0.74453  1.0000
  H   H1988     1.0  0.92357  0.07836  0.90638  1.0000
  C   C1153     1.0  0.86254  0.28367  0.88441  1.0000
  H   H1989     1.0  0.68152  0.11334  0.96128  1.0000
  N   N82       1.0  0.54358  0.16942  0.86215  1.0000
  H   H1990     1.0  0.49614  0.15912  0.89144  1.0000
  H   H1991     1.0  0.71877  0.99857  0.90996  1.0000
  H   H1992     1.0  0.86893  0.26203  0.83282  1.0000
  H   H1993     1.0  0.61972  0.21909  0.74016  1.0000
  H   H1994     1.0  0.97444  0.05625  0.72792  1.0000
  C   C1154     1.0  0.98388  0.22427  0.85663  1.0000
  H   H1995     1.0  0.72641  0.29345  0.93568  1.0000
  H   H1996     1.0  0.80179  0.21119  0.94185  1.0000
  H   H1997     1.0  0.54603  0.20800  0.82652  1.0000
  C   C1155     1.0  0.97452  0.09929  0.74880  1.0000
  C   C1156     1.0  0.71796  0.05839  0.75309  1.0000
  C   C1157     1.0  0.87970  0.05815  0.89394  1.0000
  H   H1998     1.0  0.60146  0.15497  0.82256  1.0000
  H   H1999     1.0  0.69389  0.01705  0.85874  1.0000
  H   H2000     1.0  0.88965  0.21427  0.94449  1.0000
  N   N83       1.0  0.94245  0.05486  0.86951  1.0000
  S   S339      1.0  0.52516  0.10050  0.96122  1.0000
  H   H2001     1.0  0.76019  0.10064  0.95325  1.0000
  C   C1158     1.0  0.55819  0.29930  0.77441  1.0000
  H   H2002     1.0  0.85434  0.24020  0.95112  1.0000
  H   H2003     1.0  0.97695  0.05588  0.92022  1.0000
  H   H2004     1.0  0.74349  0.05406  0.75957  1.0000
  S   S340      1.0  0.97739  0.15113  0.77880  1.0000
  C   C1159     1.0  0.83250  0.23763  0.86866  1.0000
  H   H2005     1.0  0.86984  0.03499  0.88830  1.0000
  H   H2006     1.0  0.86510  0.06133  0.91480  1.0000
  C   C1160     1.0  0.62259  0.14961  0.94995  1.0000
  H   H2007     1.0  0.58953  0.18434  0.87659  1.0000
  H   H2008     1.0  0.66855  0.04747  0.77861  1.0000
  H   H2009     1.0  0.85106  0.26685  0.75866  1.0000
  H   H2010     1.0  0.72003  0.05928  0.73010  1.0000
  C   C1161     1.0  0.78288  0.04233  0.88182  1.0000
  C   C1162     1.0  0.73268  0.00106  0.92787  1.0000
  H   H2011     1.0  0.59421  0.15047  0.95367  1.0000
  H   H2012     1.0  0.71100  0.08364  0.75783  1.0000
  C   C1163     1.0  0.94246  0.11832  0.85581  1.0000
  H   H2013     1.0  0.91320  0.08234  0.84044  1.0000
  H   H2014     1.0  0.96221  0.23917  0.95244  1.0000
  H   H2015     1.0  0.55500  0.28406  0.95455  1.0000
  H   H2016     1.0  0.78047  0.21318  0.91119  1.0000
  C   C1164     1.0  0.96429  0.24029  0.88124  1.0000
  Fe  Fe169     1.0  0.87629  0.99206  0.78447  1.0000
  H   H2017     1.0  0.66675  0.30767  0.76397  1.0000
  C   C1165     1.0  0.86108  0.23681  0.84336  1.0000
  S   S341      1.0  0.87926  0.13977  0.93278  1.0000
  H   H2018     1.0  0.96518  0.20934  0.84832  1.0000
  H   H2019     1.0  0.72286  0.15928  0.95443  1.0000
  C   C1166     1.0  0.59607  0.07848  0.77027  1.0000
  H   H2020     1.0  0.65920  0.12722  0.91929  1.0000
  H   H2021     1.0  0.56570  0.20216  0.92033  1.0000
  H   H2022     1.0  0.85996  0.24072  0.73221  1.0000
  C   C1167     1.0  0.64609  0.28608  0.95582  1.0000
  H   H2023     1.0  0.74744  0.05324  0.93098  1.0000
  C   C1168     1.0  0.62511  0.30258  0.93804  1.0000
  H   H2024     1.0  0.85115  0.22372  0.82757  1.0000
  N   N84       1.0  0.68060  0.00477  0.75731  1.0000
  C   C1169     1.0  0.92831  0.05856  0.75715  1.0000
  C   C1170     1.0  0.96011  0.07034  0.74278  1.0000
  N   N85       1.0  0.76955  0.99172  0.92072  1.0000
  N   N86       1.0  0.84259  0.25167  0.89348  1.0000
  C   C1171     1.0  0.86447  0.22680  0.90804  1.0000
  C   C1172     1.0  0.69529  0.16495  0.95552  1.0000
  C   C1173     1.0  0.81078  0.25827  0.91302  1.0000
  H   H2025     1.0  0.76065  0.30809  0.95082  1.0000
  C   C1174     1.0  0.87608  0.23571  0.93499  1.0000
  H   H2026     1.0  0.54873  0.16151  0.92081  1.0000
  C   C1175     1.0  0.78864  0.22758  0.92684  1.0000
  C   C1176     1.0  0.78359  0.00464  0.89059  1.0000
  H   H2027     1.0  0.52263  0.19744  0.91470  1.0000
  H   H2028     1.0  0.64562  0.00535  0.81416  1.0000
  C   C1177     1.0  0.52337  0.30234  0.77283  1.0000
  C   C1178     1.0  0.89928  0.24160  0.75760  1.0000
  H   H2029     1.0  0.70782  0.29819  0.74666  1.0000
  H   H2030     1.0  0.60705  0.19723  0.82902  1.0000
  C   C1179     1.0  0.63146  0.12705  0.92704  1.0000
  C   C1180     1.0  0.81297  0.11643  0.94414  1.0000
  H   H2031     1.0  0.51241  0.10672  0.85544  1.0000
  C   C1181     1.0  0.79259  0.00354  0.93953  1.0000
  C   C1182     1.0  0.50094  0.03614  0.97172  1.0000
  C   C1183     1.0  0.65209  0.01443  0.74076  1.0000
  H   H2032     1.0  0.92364  0.12267  0.87424  1.0000
  S   S342      1.0  0.91206  0.02124  0.74972  1.0000
  Fe  Fe170     1.0  0.54670  0.99585  0.77491  1.0000
  H   H2033     1.0  0.98642  0.02667  0.88020  1.0000
  C   C1184     1.0  0.73219  0.29986  0.87294  1.0000
  H   H2034     1.0  0.81054  0.28637  0.73138  1.0000
  H   H2035     1.0  0.81048  0.99684  0.88533  1.0000
  C   C1185     1.0  0.66432  0.26845  0.73809  1.0000
  H   H2036     1.0  0.74820  0.99499  0.76606  1.0000
  C   C1186     1.0  0.84449  0.31168  0.86772  1.0000
  C   C1187     1.0  0.52938  0.01336  0.88659  1.0000
  H   H2037     1.0  0.89424  0.25707  0.93068  1.0000
  H   H2038     1.0  0.70499  0.04733  0.92521  1.0000
  H   H2039     1.0  0.90867  0.21999  0.74720  1.0000
  H   H2040     1.0  0.82275  0.30324  0.85859  1.0000
  H   H2041     1.0  0.67886  0.24465  0.96249  1.0000
  H   H2042     1.0  0.69140  0.18750  0.96571  1.0000
  H   H2043     1.0  0.61452  0.99177  0.79433  1.0000
  H   H2044     1.0  0.97145  0.31020  0.78736  1.0000
  C   C1188     1.0  0.68068  0.30055  0.74410  1.0000
  H   H2045     1.0  0.63835  0.27590  0.73377  1.0000
  H   H2046     1.0  0.93776  0.13708  0.83804  1.0000
  C   C1189     1.0  0.97884  0.27115  0.82085  1.0000
  C   C1190     1.0  0.97906  0.05278  0.87507  1.0000
  H   H2047     1.0  0.49251  0.15676  0.85631  1.0000
  H   H2048     1.0  0.71574  0.03422  0.95911  1.0000
  H   H2049     1.0  0.94010  0.20089  0.96529  1.0000
  H   H2050     1.0  0.94952  0.99140  0.82676  1.0000
  H   H2051     1.0  0.55022  0.11464  0.82911  1.0000
  C   C1191     1.0  0.98827  0.06973  0.89957  1.0000
  H   H2052     1.0  0.58473  0.05886  0.95750  1.0000
  H   H2053     1.0  0.55003  0.08409  0.85900  1.0000
  H   H2054     1.0  0.90434  0.30493  0.77352  1.0000
  H   H2055     1.0  0.59098  0.99801  0.96624  1.0000
  H   H2056     1.0  0.51132  0.02778  0.87463  1.0000
  S   S343      1.0  0.90512  0.05929  0.97074  1.0000
  H   H2057     1.0  0.98028  0.09573  0.89872  1.0000
  C   C1192     1.0  0.73801  0.31601  0.94081  1.0000
  C   C1193     1.0  0.54062  0.10896  0.85195  1.0000
  C   C1194     1.0  0.56585  0.00853  0.96771  1.0000
  H   H2058     1.0  0.67824  0.32132  0.72722  1.0000
  H   H2059     1.0  0.81918  0.99500  0.93370  1.0000
  C   C1195     1.0  0.53353  0.29676  0.96610  1.0000
  C   C1196     1.0  0.88396  0.32051  0.73419  1.0000
  H   H2060     1.0  0.93707  0.31981  0.74359  1.0000
  S   S344      1.0  0.62016  0.36551  0.03540  1.0000
  S   S345      1.0  0.69343  0.40761  0.06520  1.0000
  Fe  Fe171     1.0  0.66447  0.40090  0.02986  1.0000
  C   C1197     1.0  0.52532  0.45765  0.01860  1.0000
  C   C1198     1.0  0.78626  0.37323  0.03509  1.0000
  C   C1199     1.0  0.66386  0.37512  0.19483  1.0000
  H   H2061     1.0  0.65373  0.43367  0.22026  1.0000
  S   S346      1.0  0.53845  0.41669  0.02673  1.0000
  C   C1200     1.0  0.95861  0.52792  0.02081  1.0000
  H   H2062     1.0  0.67013  0.56757  0.18898  1.0000
  H   H2063     1.0  0.93347  0.53468  0.02999  1.0000
  H   H2064     1.0  0.95335  0.47798  0.04209  1.0000
  H   H2065     1.0  0.88923  0.50419  0.97429  1.0000
  C   C1201     1.0  0.49160  0.46627  0.02788  1.0000
  C   C1202     1.0  0.71174  0.38706  0.15510  1.0000
  Fe  Fe172     1.0  0.91137  0.59918  0.01424  1.0000
  S   S347      1.0  0.87494  0.56018  0.00804  1.0000
  Fe  Fe173     1.0  0.85641  0.63729  0.04704  1.0000
  S   S348      1.0  0.81617  0.60077  0.04242  1.0000
  Fe  Fe174     1.0  0.85325  0.56196  0.05278  1.0000
  S   S349      1.0  0.83257  0.51682  0.08190  1.0000
  Fe  Fe175     1.0  0.84075  0.60205  0.99788  1.0000
  H   H2066     1.0  0.89081  0.62422  0.11763  1.0000
  S   S350      1.0  0.89240  0.59768  0.06066  1.0000
  C   C1203     1.0  0.98004  0.55147  0.00291  1.0000
  H   H2067     1.0  0.72280  0.51479  0.97925  1.0000
  Fe  Fe176     1.0  0.59846  0.61799  0.10699  1.0000
  H   H2068     1.0  0.70105  0.37231  0.14073  1.0000
  H   H2069     1.0  0.74957  0.43371  0.08666  1.0000
  Fe  Fe177     1.0  0.66275  0.58365  0.12306  1.0000
  C   C1204     1.0  0.89189  0.47978  0.98694  1.0000
  S   S351      1.0  0.68351  0.53445  0.13937  1.0000
  C   C1205     1.0  0.85543  0.46863  0.00099  1.0000
  C   C1206     1.0  0.89933  0.43191  0.11699  1.0000
  H   H2070     1.0  0.55473  0.65353  0.16109  1.0000
  S   S352      1.0  0.62344  0.61432  0.14578  1.0000
  S   S353      1.0  0.63462  0.58316  0.08637  1.0000
  C   C1207     1.0  0.70343  0.53268  0.16960  1.0000
  C   C1208     1.0  0.73106  0.51154  0.17263  1.0000
  H   H2071     1.0  0.74080  0.49753  0.15587  1.0000
  H   H2072     1.0  0.63163  0.35345  0.16813  1.0000
  C   C1209     1.0  0.81988  0.59549  0.18516  1.0000
  H   H2073     1.0  0.95426  0.42797  0.00867  1.0000
  H   H2074     1.0  0.79088  0.40923  0.12920  1.0000
  S   S354      1.0  0.85174  0.37961  0.04686  1.0000
  H   H2075     1.0  0.79642  0.35610  0.02093  1.0000
  H   H2076     1.0  0.75588  0.33320  0.09043  1.0000
  H   H2077     1.0  0.63641  0.32812  0.20016  1.0000
  H   H2078     1.0  0.75156  0.38029  0.18242  1.0000
  C   C1210     1.0  0.83210  0.40807  0.15534  1.0000
  C   C1211     1.0  0.49516  0.53140  0.08614  1.0000
  C   C1212     1.0  0.89017  0.50941  0.15642  1.0000
  C   C1213     1.0  0.85509  0.50240  0.16067  1.0000
  C   C1214     1.0  0.83739  0.50432  0.13769  1.0000
  C   C1215     1.0  0.85467  0.51377  0.11049  1.0000
  C   C1216     1.0  0.88942  0.52198  0.10629  1.0000
  C   C1217     1.0  0.90709  0.51993  0.12929  1.0000
  H   H2079     1.0  0.84151  0.49543  0.18155  1.0000
  H   H2080     1.0  0.81022  0.49916  0.14101  1.0000
  H   H2081     1.0  0.90272  0.52952  0.08525  1.0000
  H   H2082     1.0  0.93374  0.52675  0.12614  1.0000
  H   H2083     1.0  0.92473  0.42454  0.12245  1.0000
  C   C1218     1.0  0.50646  0.33661  0.01973  1.0000
  H   H2084     1.0  0.70882  0.48826  0.07224  1.0000
  C   C1219     1.0  0.80775  0.42628  0.13686  1.0000
  H   H2085     1.0  0.57437  0.47566  0.99640  1.0000
  H   H2086     1.0  0.88684  0.44758  0.13217  1.0000
  C   C1220     1.0  0.75956  0.41665  0.07240  1.0000
  H   H2087     1.0  0.90278  0.35914  0.15041  1.0000
  H   H2088     1.0  0.65475  0.46229  0.12504  1.0000
  C   C1221     1.0  0.56436  0.59297  0.03817  1.0000
  H   H2089     1.0  0.93378  0.57344  0.20592  1.0000
  H   H2090     1.0  0.84885  0.57457  0.13523  1.0000
  C   C1222     1.0  0.79261  0.60048  0.21018  1.0000
  H   H2091     1.0  0.69141  0.32568  0.08001  1.0000
  C   C1223     1.0  0.53853  0.51517  0.99988  1.0000
  C   C1224     1.0  0.91204  0.42220  0.98486  1.0000
  C   C1225     1.0  0.73721  0.36564  0.17033  1.0000
  H   H2092     1.0  0.69032  0.46547  0.14307  1.0000
  H   H2093     1.0  0.75632  0.35597  0.15448  1.0000
  H   H2094     1.0  0.95806  0.47616  0.97873  1.0000
  H   H2095     1.0  0.52198  0.49122  0.06951  1.0000
  C   C1226     1.0  0.85597  0.32841  0.12231  1.0000
  Fe  Fe178     1.0  0.64242  0.35379  0.99262  1.0000
  H   H2096     1.0  0.78928  0.62719  0.21175  1.0000
  N   N87       1.0  0.54315  0.49837  0.10715  1.0000
  C   C1227     1.0  0.55210  0.52799  0.12033  1.0000
  C   C1228     1.0  0.51816  0.47675  0.12851  1.0000
  C   C1229     1.0  0.57315  0.52120  0.14475  1.0000
  H   H2097     1.0  0.80057  0.64782  0.12908  1.0000
  H   H2098     1.0  0.60043  0.44367  0.07476  1.0000
  H   H2099     1.0  0.56685  0.54672  0.10418  1.0000
  H   H2100     1.0  0.52876  0.54066  0.12884  1.0000
  H   H2101     1.0  0.58298  0.46461  0.11805  1.0000
  H   H2102     1.0  0.53050  0.46652  0.14682  1.0000
  H   H2103     1.0  0.61340  0.61492  0.02003  1.0000
  H   H2104     1.0  0.55967  0.50419  0.16275  1.0000
  H   H2105     1.0  0.59893  0.51179  0.13786  1.0000
  H   H2106     1.0  0.57728  0.54494  0.15265  1.0000
  H   H2107     1.0  0.83595  0.60908  0.11316  1.0000
  C   C1230     1.0  0.87765  0.40143  0.11475  1.0000
  C   C1231     1.0  0.50512  0.52394  0.00973  1.0000
  H   H2108     1.0  0.72733  0.40696  0.14088  1.0000
  H   H2109     1.0  0.86625  0.34769  0.17594  1.0000
  H   H2110     1.0  0.56356  0.57526  0.02296  1.0000
  H   H2111     1.0  0.83826  0.46613  0.98538  1.0000
  H   H2112     1.0  0.76742  0.48025  0.98845  1.0000
  C   C1232     1.0  0.69949  0.42506  0.19002  1.0000
  C   C1233     1.0  0.92715  0.41983  0.01247  1.0000
  C   C1234     1.0  0.70915  0.56577  0.97831  1.0000
  H   H2113     1.0  0.90610  0.48512  0.00393  1.0000
  H   H2114     1.0  0.84188  0.61091  0.18776  1.0000
  H   H2115     1.0  0.55681  0.53401  0.98900  1.0000
  H   H2116     1.0  0.63722  0.42869  0.16924  1.0000
  H   H2117     1.0  0.76796  0.58848  0.20930  1.0000
  S   S355      1.0  0.91334  0.50413  0.18458  1.0000
  H   H2118     1.0  0.82003  0.36679  0.11767  1.0000
  C   C1235     1.0  0.65952  0.41921  0.15598  1.0000
  N   N88       1.0  0.68364  0.40163  0.17394  1.0000
  H   H2119     1.0  0.75744  0.54204  0.97873  1.0000
  H   H2120     1.0  0.67349  0.51628  0.07514  1.0000
  C   C1236     1.0  0.50260  0.44652  0.11879  1.0000
  C   C1237     1.0  0.73761  0.40102  0.05812  1.0000
  H   H2121     1.0  0.64857  0.40186  0.14379  1.0000
  H   H2122     1.0  0.71957  0.44107  0.17611  1.0000
  H   H2123     1.0  0.55506  0.44034  0.07952  1.0000
  S   S356      1.0  0.68871  0.38638  0.98874  1.0000
  H   H2124     1.0  0.54706  0.52705  0.06590  1.0000
  H   H2125     1.0  0.98390  0.63553  0.03554  1.0000
  Fe  Fe179     1.0  0.59391  0.40689  0.01209  1.0000
  H   H2126     1.0  0.73449  0.36829  0.02750  1.0000
  S   S357      1.0  0.54185  0.61427  0.10614  1.0000
  H   H2127     1.0  0.81608  0.39461  0.17420  1.0000
  N   N89       1.0  0.80982  0.60386  0.15635  1.0000
  C   C1238     1.0  0.84125  0.60085  0.13490  1.0000
  C   C1239     1.0  0.78395  0.57865  0.15250  1.0000
  H   H2128     1.0  0.81761  0.34614  0.15279  1.0000
  C   C1240     1.0  0.77545  0.58045  0.12235  1.0000
  H   H2129     1.0  0.66394  0.46685  0.19127  1.0000
  H   H2130     1.0  0.93844  0.64738  0.20323  1.0000
  H   H2131     1.0  0.75963  0.58025  0.16685  1.0000
  H   H2132     1.0  0.79302  0.55322  0.15835  1.0000
  H   H2133     1.0  0.90350  0.41485  0.17135  1.0000
  H   H2134     1.0  0.88749  0.60682  0.15371  1.0000
  H   H2135     1.0  0.68214  0.56391  0.98849  1.0000
  S   S358      1.0  0.96584  0.59207  0.99435  1.0000
  S   S359      1.0  0.63624  0.44360  0.01063  1.0000
  H   H2136     1.0  0.58766  0.63831  0.04331  1.0000
  H   H2137     1.0  0.79073  0.44196  0.14972  1.0000
  C   C1241     1.0  0.54855  0.48212  0.00413  1.0000
  H   H2138     1.0  0.66881  0.47574  0.06570  1.0000
  S   S360      1.0  0.69733  0.62645  0.10222  1.0000
  H   H2139     1.0  0.49687  0.45089  0.09705  1.0000
  H   H2140     1.0  0.54631  0.61132  0.98199  1.0000
  C   C1242     1.0  0.58695  0.62375  0.02567  1.0000
  S   S361      1.0  0.49434  0.56597  0.00625  1.0000
  S   S362      1.0  0.87853  0.64196  0.00067  1.0000
  H   H2141     1.0  0.82835  0.56937  0.18820  1.0000
  C   C1243     1.0  0.52301  0.65060  0.09132  1.0000
  H   H2142     1.0  0.87158  0.33636  0.10150  1.0000
  H   H2143     1.0  0.84433  0.48777  0.01373  1.0000
  H   H2144     1.0  0.81174  0.42435  0.07766  1.0000
  H   H2145     1.0  0.91224  0.43384  0.02802  1.0000
  H   H2146     1.0  0.89601  0.38386  0.10540  1.0000
  H   H2147     1.0  0.57538  0.57984  0.05612  1.0000
  C   C1244     1.0  0.79474  0.41111  0.06758  1.0000
  C   C1245     1.0  0.80802  0.38847  0.04981  1.0000
  H   H2148     1.0  0.50377  0.57466  0.16744  1.0000
  H   H2149     1.0  0.49978  0.55513  0.09372  1.0000
  H   H2150     1.0  0.84532  0.42765  0.16357  1.0000
  H   H2151     1.0  0.74925  0.63541  0.18389  1.0000
  C   C1246     1.0  0.67538  0.44806  0.13401  1.0000
  C   C1247     1.0  0.57664  0.45822  0.07593  1.0000
  H   H2152     1.0  0.49390  0.64108  0.16478  1.0000
  C   C1248     1.0  0.65016  0.34573  0.18257  1.0000
  C   C1249     1.0  0.79676  0.63861  0.15183  1.0000
  C   C1250     1.0  0.87324  0.62065  0.13799  1.0000
  H   H2153     1.0  0.76820  0.49305  0.19907  1.0000
  C   C1251     1.0  0.52802  0.51128  0.08119  1.0000
  C   C1252     1.0  0.57234  0.62258  0.97864  1.0000
  H   H2154     1.0  0.59753  0.49831  0.09165  1.0000
  H   H2155     1.0  0.76655  0.54569  0.06380  1.0000
  C   C1253     1.0  0.74674  0.50913  0.19695  1.0000
  H   H2156     1.0  0.90296  0.44828  0.09646  1.0000
  C   C1254     1.0  0.69148  0.55132  0.19102  1.0000
  Fe  Fe180     1.0  0.66608  0.62829  0.06746  1.0000
  C   C1255     1.0  0.57584  0.48033  0.09929  1.0000
  N   N90       1.0  0.85671  0.38474  0.14150  1.0000
  N   N91       1.0  0.57578  0.64473  0.00073  1.0000
  H   H2157     1.0  0.57733  0.47339  0.05506  1.0000
  C   C1256     1.0  0.97008  0.49579  0.02788  1.0000
  H   H2158     1.0  0.73606  0.45935  0.01647  1.0000
  Fe  Fe181     1.0  0.86742  0.33308  0.02866  1.0000
  C   C1257     1.0  0.75116  0.38012  0.03881  1.0000
  H   H2159     1.0  0.67088  0.33155  0.17187  1.0000
  H   H2160     1.0  0.86983  0.39636  0.19847  1.0000
  H   H2161     1.0  0.71324  0.41112  0.20605  1.0000
  N   N92       1.0  0.72842  0.52782  0.02038  1.0000
  H   H2162     1.0  0.69196  0.43891  0.11628  1.0000
  C   C1258     1.0  0.75787  0.50565  0.02580  1.0000
  C   C1259     1.0  0.73180  0.55947  0.03260  1.0000
  C   C1260     1.0  0.69416  0.51114  0.03132  1.0000
  H   H2163     1.0  0.74196  0.63290  0.14865  1.0000
  C   C1261     1.0  0.76012  0.47415  0.01150  1.0000
  C   C1262     1.0  0.74113  0.55664  0.06252  1.0000
  C   C1263     1.0  0.68635  0.49750  0.06288  1.0000
  C   C1264     1.0  0.83577  0.35727  0.13401  1.0000
  H   H2164     1.0  0.53799  0.59947  0.04658  1.0000
  H   H2165     1.0  0.75792  0.49754  0.04849  1.0000
  H   H2166     1.0  0.78252  0.51964  0.01856  1.0000
  H   H2167     1.0  0.75195  0.57593  0.01898  1.0000
  H   H2168     1.0  0.70771  0.57345  0.03301  1.0000
  H   H2169     1.0  0.67328  0.52855  0.02738  1.0000
  H   H2170     1.0  0.68948  0.49076  0.01929  1.0000
  H   H2171     1.0  0.79606  0.56952  0.10854  1.0000
  H   H2172     1.0  0.88603  0.41061  0.98972  1.0000
  S   S363      1.0  0.86117  0.32347  0.98550  1.0000
  H   H2173     1.0  0.72480  0.34396  0.18440  1.0000
  H   H2174     1.0  0.78050  0.45831  0.01911  1.0000
  H   H2175     1.0  0.77131  0.60605  0.11271  1.0000
  H   H2176     1.0  0.72182  0.54316  0.07881  1.0000
  H   H2177     1.0  0.74276  0.58199  0.06810  1.0000
  H   H2178     1.0  0.96466  0.53468  0.07568  1.0000
  H   H2179     1.0  0.85515  0.44545  0.01575  1.0000
  H   H2180     1.0  0.75192  0.56572  0.12270  1.0000
  C   C1265     1.0  0.67463  0.44774  0.20587  1.0000
  H   H2181     1.0  0.51921  0.42471  0.12120  1.0000
  H   H2182     1.0  0.50306  0.54138  0.21506  1.0000
  C   C1266     1.0  0.87946  0.36928  0.16189  1.0000
  S   S364      1.0  0.68232  0.63646  0.02097  1.0000
  H   H2183     1.0  0.53240  0.34705  0.01248  1.0000
  C   C1267     1.0  0.73062  0.53632  0.98881  1.0000
  H   H2184     1.0  0.82200  0.44298  0.11897  1.0000
  H   H2185     1.0  0.91051  0.37774  0.19366  1.0000
  H   H2186     1.0  0.92639  0.39359  0.02227  1.0000
  C   C1268     1.0  0.70653  0.54827  0.21559  1.0000
  C   C1269     1.0  0.49251  0.64861  0.08014  1.0000
  H   H2187     1.0  0.68881  0.46108  0.21914  1.0000
  H   H2188     1.0  0.86163  0.40837  0.09803  1.0000
  C   C1270     1.0  0.89138  0.39128  0.18217  1.0000
  H   H2189     1.0  0.72194  0.32614  0.12018  1.0000
  H   H2190     1.0  0.86690  0.64540  0.14390  1.0000
  S   S365      1.0  0.80449  0.34591  0.21950  1.0000
  H   H2191     1.0  0.49673  0.49125  0.13809  1.0000
  H   H2192     1.0  0.64145  0.38573  0.20701  1.0000
  H   H2193     1.0  0.97649  0.48975  0.11221  1.0000
  C   C1271     1.0  0.73430  0.52738  0.21860  1.0000
  H   H2194     1.0  0.50066  0.33730  0.04276  1.0000
  H   H2195     1.0  0.52164  0.63993  0.01721  1.0000
  H   H2196     1.0  0.59002  0.60135  0.98025  1.0000
  H   H2197     1.0  0.67948  0.36459  0.21089  1.0000
  H   H2198     1.0  0.72046  0.58963  0.98131  1.0000
  C   C1272     1.0  0.75833  0.64419  0.16150  1.0000
  H   H2199     1.0  0.66484  0.65139  0.17898  1.0000
  H   H2200     1.0  0.98648  0.52211  0.14459  1.0000
  C   C1273     1.0  0.98332  0.65378  0.04979  1.0000
  H   H2201     1.0  0.98560  0.54150  0.21197  1.0000
  H   H2202     1.0  0.89963  0.65464  0.18867  1.0000
  C   C1274     1.0  0.99026  0.53365  0.08222  1.0000
  H   H2203     1.0  0.98965  0.55085  0.09803  1.0000
  H   H2204     1.0  0.81159  0.65564  0.16168  1.0000
  Fe  Fe182     1.0  0.84750  0.44902  0.27709  1.0000
  S   S366      1.0  0.84501  0.39751  0.30093  1.0000
  C   C1275     1.0  0.56251  0.34507  0.32501  1.0000
  S   S367      1.0  0.75287  0.52538  0.24952  1.0000
  S   S368      1.0  0.63217  0.42641  0.34571  1.0000
  S   S369      1.0  0.66556  0.40114  0.27669  1.0000
  S   S370      1.0  0.53780  0.44090  0.34764  1.0000
  Fe  Fe183     1.0  0.80524  0.50515  0.25324  1.0000
  H   H2205     1.0  0.86604  0.33717  0.33046  1.0000
  H   H2206     1.0  0.49867  0.52080  0.41183  1.0000
  C   C1276     1.0  0.59892  0.64539  0.37558  1.0000
  C   C1277     1.0  0.89794  0.60924  0.42572  1.0000
  H   H2207     1.0  0.73852  0.61667  0.24779  1.0000
  C   C1278     1.0  0.62800  0.41061  0.44812  1.0000
  H   H2208     1.0  0.52725  0.41261  0.24898  1.0000
  H   H2209     1.0  0.74818  0.53112  0.33310  1.0000
  H   H2210     1.0  0.61425  0.50362  0.41458  1.0000
  N   N93       1.0  0.59230  0.42385  0.44930  1.0000
  H   H2211     1.0  0.60120  0.42162  0.26018  1.0000
  C   C1279     1.0  0.85128  0.64067  0.28614  1.0000
  H   H2212     1.0  0.95381  0.64939  0.44998  1.0000
  C   C1280     1.0  0.57026  0.37308  0.30002  1.0000
  H   H2213     1.0  0.62233  0.58009  0.39599  1.0000
  C   C1281     1.0  0.50726  0.46345  0.36668  1.0000
  H   H2214     1.0  0.73466  0.43015  0.26303  1.0000
  N   N94       1.0  0.86978  0.63205  0.41724  1.0000
  C   C1282     1.0  0.73730  0.34015  0.24514  1.0000
  C   C1283     1.0  0.70687  0.35271  0.25818  1.0000
  C   C1284     1.0  0.70560  0.38525  0.26446  1.0000
  H   H2215     1.0  0.72349  0.58319  0.27434  1.0000
  Fe  Fe184     1.0  0.87718  0.49538  0.22516  1.0000
  C   C1285     1.0  0.88373  0.37638  0.29704  1.0000
  C   C1286     1.0  0.91117  0.38873  0.27665  1.0000
  C   C1287     1.0  0.94239  0.37229  0.27462  1.0000
  C   C1288     1.0  0.94616  0.34322  0.29273  1.0000
  H   H2216     1.0  0.63491  0.48069  0.44086  1.0000
  C   C1289     1.0  0.88731  0.34697  0.31484  1.0000
  H   H2217     1.0  0.90827  0.41073  0.26223  1.0000
  H   H2218     1.0  0.96361  0.38208  0.25895  1.0000
  H   H2219     1.0  0.94721  0.58797  0.41221  1.0000
  C   C1290     1.0  0.91845  0.33035  0.31264  1.0000
  H   H2220     1.0  0.68314  0.64811  0.22587  1.0000
  H   H2221     1.0  0.81400  0.61585  0.46592  1.0000
  H   H2222     1.0  0.49481  0.37589  0.38701  1.0000
  S   S371      1.0  0.89632  0.47852  0.26561  1.0000
  Fe  Fe185     1.0  0.86571  0.51998  0.28153  1.0000
  S   S372      1.0  0.89140  0.55083  0.30725  1.0000
  H   H2223     1.0  0.80672  0.40827  0.45750  1.0000
  S   S373      1.0  0.81811  0.48932  0.29656  1.0000
  C   C1291     1.0  0.55874  0.63249  0.27372  1.0000
  Fe  Fe186     1.0  0.64185  0.51628  0.31016  1.0000
  S   S374      1.0  0.61550  0.50303  0.35453  1.0000
  S   S375      1.0  0.64925  0.57095  0.29630  1.0000
  Fe  Fe187     1.0  0.65631  0.44437  0.30150  1.0000
  Fe  Fe188     1.0  0.59107  0.46214  0.33774  1.0000
  Fe  Fe189     1.0  0.65920  0.46879  0.35812  1.0000
  S   S376      1.0  0.68530  0.45970  0.39629  1.0000
  S   S377      1.0  0.61327  0.47844  0.29276  1.0000
  S   S378      1.0  0.68750  0.48392  0.31469  1.0000
  C   C1292     1.0  0.60015  0.57534  0.41295  1.0000
  C   C1293     1.0  0.56343  0.35480  0.25435  1.0000
  H   H2224     1.0  0.81805  0.62724  0.40861  1.0000
  H   H2225     1.0  0.87852  0.48219  0.43749  1.0000
  H   H2226     1.0  0.76367  0.61861  0.35740  1.0000
  H   H2227     1.0  0.49303  0.56251  0.33702  1.0000
  H   H2228     1.0  0.58366  0.55216  0.28297  1.0000
  C   C1294     1.0  0.54801  0.60747  0.37947  1.0000
  H   H2229     1.0  0.79029  0.34072  0.34986  1.0000
  H   H2230     1.0  0.54333  0.49131  0.38358  1.0000
  H   H2231     1.0  0.89635  0.43247  0.42726  1.0000
  C   C1295     1.0  0.73533  0.40491  0.25847  1.0000
  C   C1296     1.0  0.56720  0.58543  0.35881  1.0000
  H   H2232     1.0  0.68341  0.61532  0.36673  1.0000
  C   C1297     1.0  0.73363  0.54755  0.42614  1.0000
  C   C1298     1.0  0.70612  0.55301  0.41114  1.0000
  C   C1299     1.0  0.69147  0.52639  0.40106  1.0000
  C   C1300     1.0  0.70351  0.49421  0.40706  1.0000
  C   C1301     1.0  0.73011  0.48885  0.42289  1.0000
  C   C1302     1.0  0.74548  0.51543  0.43192  1.0000
  H   H2233     1.0  0.69672  0.57775  0.40686  1.0000
  H   H2234     1.0  0.67081  0.53069  0.38891  1.0000
  H   H2235     1.0  0.73938  0.46411  0.42778  1.0000
  C   C1303     1.0  0.72776  0.61032  0.27026  1.0000
  C   C1304     1.0  0.51196  0.36247  0.28772  1.0000
  C   C1305     1.0  0.75272  0.62219  0.28844  1.0000
  H   H2236     1.0  0.52009  0.64078  0.41732  1.0000
  H   H2237     1.0  0.49781  0.36082  0.26979  1.0000
  H   H2238     1.0  0.95088  0.52371  0.27418  1.0000
  C   C1306     1.0  0.88357  0.59334  0.30285  1.0000
  C   C1307     1.0  0.68618  0.35253  0.35096  1.0000
  H   H2239     1.0  0.84316  0.59078  0.27812  1.0000
  H   H2240     1.0  0.78853  0.40755  0.24007  1.0000
  C   C1308     1.0  0.76916  0.62709  0.33434  1.0000
  H   H2241     1.0  0.72121  0.34265  0.39443  1.0000
  H   H2242     1.0  0.88800  0.58357  0.43329  1.0000
  H   H2243     1.0  0.92360  0.59853  0.38394  1.0000
  H   H2244     1.0  0.77701  0.36441  0.30103  1.0000
  C   C1309     1.0  0.84923  0.59771  0.38184  1.0000
  H   H2245     1.0  0.50451  0.39106  0.32369  1.0000
  H   H2246     1.0  0.71531  0.64613  0.36895  1.0000
  H   H2247     1.0  0.59322  0.49718  0.44997  1.0000
  H   H2248     1.0  0.56917  0.39643  0.30952  1.0000
  H   H2249     1.0  0.52962  0.59122  0.39501  1.0000
  H   H2250     1.0  0.84393  0.39632  0.43584  1.0000
  H   H2251     1.0  0.67158  0.35391  0.33303  1.0000
  H   H2252     1.0  0.54185  0.47015  0.46771  1.0000
  C   C1310     1.0  0.58002  0.42610  0.24778  1.0000
  H   H2253     1.0  0.78188  0.56037  0.33213  1.0000
  H   H2254     1.0  0.57917  0.40319  0.39703  1.0000
  H   H2255     1.0  0.97364  0.62336  0.24004  1.0000
  C   C1311     1.0  0.59293  0.45381  0.42732  1.0000
  C   C1312     1.0  0.60985  0.48533  0.43386  1.0000
  C   C1313     1.0  0.85816  0.60672  0.28777  1.0000
  H   H2256     1.0  0.56667  0.46039  0.42335  1.0000
  H   H2257     1.0  0.60671  0.44845  0.40674  1.0000
  H   H2258     1.0  0.98157  0.63353  0.27306  1.0000
  C   C1314     1.0  0.73066  0.58178  0.33038  1.0000
  H   H2259     1.0  0.63911  0.40729  0.42625  1.0000
  C   C1315     1.0  0.58811  0.64776  0.27902  1.0000
  H   H2260     1.0  0.95569  0.57836  0.28021  1.0000
  H   H2261     1.0  0.55882  0.36522  0.41372  1.0000
  H   H2262     1.0  0.68400  0.33725  0.26289  1.0000
  H   H2263     1.0  0.99037  0.43231  0.34057  1.0000
  C   C1316     1.0  0.90278  0.61404  0.31540  1.0000
  H   H2264     1.0  0.50007  0.36376  0.44509  1.0000
  C   C1317     1.0  0.69563  0.63929  0.35679  1.0000
  H   H2265     1.0  0.78556  0.38164  0.40099  1.0000
  C   C1318     1.0  0.58099  0.60696  0.41919  1.0000
  H   H2266     1.0  0.70296  0.62291  0.27279  1.0000
  H   H2267     1.0  0.60293  0.37083  0.41475  1.0000
  C   C1319     1.0  0.56803  0.39831  0.44334  1.0000
  C   C1320     1.0  0.75823  0.55613  0.32346  1.0000
  H   H2268     1.0  0.53847  0.34923  0.33883  1.0000
  S   S379      1.0  0.85067  0.53943  0.24008  1.0000
  C   C1321     1.0  0.54623  0.41010  0.26386  1.0000
  H   H2269     1.0  0.72372  0.57813  0.35362  1.0000
  C   C1322     1.0  0.49141  0.50330  0.39892  1.0000
  H   H2270     1.0  0.92274  0.60393  0.32682  1.0000
  H   H2271     1.0  0.98164  0.50271  0.25316  1.0000
  H   H2272     1.0  0.82702  0.58229  0.37957  1.0000
  H   H2273     1.0  0.95128  0.35572  0.35749  1.0000
  H   H2274     1.0  0.94471  0.63019  0.39818  1.0000
  C   C1323     1.0  0.90867  0.41849  0.44417  1.0000
  C   C1324     1.0  0.76680  0.36009  0.23824  1.0000
  H   H2275     1.0  0.66821  0.35518  0.37043  1.0000
  H   H2276     1.0  0.83644  0.43929  0.43880  1.0000
  H   H2277     1.0  0.99026  0.47293  0.46732  1.0000
  H   H2278     1.0  0.61898  0.62787  0.36921  1.0000
  H   H2279     1.0  0.75573  0.43066  0.38249  1.0000
  H   H2280     1.0  0.58988  0.36358  0.24544  1.0000
  H   H2281     1.0  0.76455  0.55539  0.30054  1.0000
  H   H2282     1.0  0.57700  0.45329  0.24352  1.0000
  C   C1325     1.0  0.51668  0.48660  0.38298  1.0000
  H   H2283     1.0  0.56394  0.37738  0.46084  1.0000
  H   H2284     1.0  0.61043  0.56430  0.43206  1.0000
  N   N95       1.0  0.56887  0.62792  0.39466  1.0000
  C   C1326     1.0  0.98307  0.58098  0.27089  1.0000
  H   H2285     1.0  0.63895  0.64060  0.28897  1.0000
  C   C1327     1.0  0.54457  0.65306  0.40640  1.0000
  C   C1328     1.0  0.61438  0.59410  0.28706  1.0000
  H   H2286     1.0  0.78382  0.33791  0.39793  1.0000
  C   C1329     1.0  0.58494  0.57877  0.28182  1.0000
  H   H2287     1.0  0.75924  0.35378  0.42693  1.0000
  H   H2288     1.0  0.59533  0.58698  0.35594  1.0000
  C   C1330     1.0  0.70966  0.63847  0.32553  1.0000
  H   H2289     1.0  0.83331  0.59104  0.42629  1.0000
  C   C1331     1.0  0.61606  0.62860  0.28530  1.0000
  Fe  Fe190     1.0  0.73377  0.63054  0.44026  1.0000
  H   H2290     1.0  0.58259  0.55645  0.40835  1.0000
  C   C1332     1.0  0.94055  0.56600  0.22723  1.0000
  H   H2291     1.0  0.53711  0.42616  0.28020  1.0000
  H   H2292     1.0  0.73764  0.44442  0.35074  1.0000
  C   C1333     1.0  0.92984  0.60657  0.40345  1.0000
  H   H2293     1.0  0.93445  0.43033  0.44149  1.0000
  S   S380      1.0  0.83063  0.46216  0.23493  1.0000
  C   C1334     1.0  0.76525  0.34157  0.31375  1.0000
  C   C1335     1.0  0.97222  0.36461  0.36757  1.0000
  H   H2294     1.0  0.55952  0.55909  0.36569  1.0000
  H   H2295     1.0  0.87154  0.58136  0.38146  1.0000
  S   S381      1.0  0.75529  0.57986  0.43710  1.0000
  H   H2296     1.0  0.69657  0.32732  0.35323  1.0000
  H   H2297     1.0  0.79310  0.61446  0.32704  1.0000
  N   N96       1.0  0.54811  0.37459  0.27711  1.0000
  H   H2298     1.0  0.76673  0.51102  0.44346  1.0000
  S   S382      1.0  0.95302  0.51963  0.43417  1.0000
  C   C1336     1.0  0.76345  0.34245  0.34558  1.0000
  H   H2299     1.0  0.59843  0.62160  0.42901  1.0000
  C   C1337     1.0  0.55731  0.59805  0.27474  1.0000
  C   C1338     1.0  0.84135  0.61228  0.40961  1.0000
  C   C1339     1.0  0.98926  0.61703  0.25691  1.0000
  H   H2300     1.0  0.80104  0.58933  0.23006  1.0000
  H   H2301     1.0  0.59764  0.37102  0.29107  1.0000
  H   H2302     1.0  0.68793  0.62966  0.31633  1.0000
  H   H2303     1.0  0.90819  0.61675  0.44405  1.0000
  C   C1340     1.0  0.57832  0.38389  0.41556  1.0000
  H   H2304     1.0  0.73967  0.33739  0.30816  1.0000
  H   H2305     1.0  0.55904  0.59906  0.43602  1.0000
  H   H2306     1.0  0.53473  0.58623  0.27034  1.0000
  H   H2307     1.0  0.54839  0.35811  0.23657  1.0000
  N   N97       1.0  0.74649  0.37227  0.35653  1.0000
  C   C1341     1.0  0.77091  0.40138  0.34747  1.0000
  C   C1342     1.0  0.85546  0.64885  0.44223  1.0000
  C   C1343     1.0  0.73791  0.36517  0.38810  1.0000
  C   C1344     1.0  0.71392  0.38027  0.34482  1.0000
  C   C1345     1.0  0.76025  0.43368  0.35921  1.0000
  H   H2308     1.0  0.54234  0.40895  0.44223  1.0000
  H   H2309     1.0  0.69669  0.56234  0.23234  1.0000
  H   H2310     1.0  0.85283  0.61733  0.36347  1.0000
  H   H2311     1.0  0.79666  0.39524  0.35294  1.0000
  H   H2312     1.0  0.77494  0.40779  0.32417  1.0000
  H   H2313     1.0  0.55964  0.59199  0.33769  1.0000
  H   H2314     1.0  0.58324  0.34461  0.33810  1.0000
  H   H2315     1.0  0.72244  0.38530  0.39675  1.0000
  C   C1346     1.0  0.91334  0.38249  0.43794  1.0000
  H   H2316     1.0  0.70164  0.40188  0.35363  1.0000
  H   H2317     1.0  0.71887  0.38887  0.32178  1.0000
  H   H2318     1.0  0.77744  0.60977  0.28330  1.0000
  N   N98       1.0  0.74054  0.61738  0.31970  1.0000
  H   H2319     1.0  0.78130  0.45224  0.35226  1.0000
  S   S383      1.0  0.68553  0.65238  0.42788  1.0000
  H   H2320     1.0  0.51130  0.33708  0.29882  1.0000
  H   H2321     1.0  0.93932  0.37391  0.44095  1.0000
  H   H2322     1.0  0.70739  0.57457  0.32234  1.0000
  C   C1347     1.0  0.76873  0.35940  0.40401  1.0000
  H   H2323     1.0  0.50824  0.33720  0.40496  1.0000
  H   H2324     1.0  0.93056  0.58498  0.24044  1.0000
  C   C1348     1.0  0.87068  0.48217  0.46038  1.0000
  H   H2325     1.0  0.84278  0.47798  0.46642  1.0000
  C   C1349     1.0  0.76574  0.39231  0.24519  1.0000
  H   H2326     1.0  0.89847  0.65193  0.22579  1.0000
  C   C1350     1.0  0.97957  0.56195  0.22477  1.0000
  H   H2327     1.0  0.53153  0.62380  0.36702  1.0000
  H   H2328     1.0  0.87608  0.50745  0.46472  1.0000
  H   H2329     1.0  0.96445  0.38882  0.37403  1.0000
  C   C1351     1.0  0.83436  0.41404  0.45047  1.0000
  H   H2330     1.0  0.64547  0.42870  0.45404  1.0000
  C   C1352     1.0  0.63191  0.37753  0.46695  1.0000
  H   H2331     1.0  0.89562  0.64793  0.37474  1.0000
  H   H2332     1.0  0.89379  0.36494  0.45063  1.0000
  H   H2333     1.0  0.97413  0.34640  0.38640  1.0000
  C   C1353     1.0  0.83920  0.62565  0.46868  1.0000
  H   H2334     1.0  0.91142  0.38156  0.41549  1.0000
  H   H2335     1.0  0.57731  0.65097  0.33588  1.0000
  H   H2336     1.0  0.58693  0.41722  0.22712  1.0000
  H   H2337     1.0  0.92705  0.54222  0.23562  1.0000
  S   S384      1.0  0.98588  0.32377  0.29037  1.0000
  H   H2338     1.0  0.75799  0.64878  0.28048  1.0000
  H   H2339     1.0  0.65916  0.37039  0.46371  1.0000
  H   H2340     1.0  0.61714  0.35694  0.46155  1.0000
  C   C1354     1.0  0.89573  0.64774  0.31396  1.0000
  H   H2341     1.0  0.83109  0.65074  0.27517  1.0000
  C   C1355     1.0  0.97884  0.52203  0.26739  1.0000
  H   H2342     1.0  0.97952  0.48553  0.30424  1.0000
  C   C1356     1.0  0.97375  0.45338  0.67943  1.0000
  Fe  Fe191     1.0  0.73759  0.37772  0.56324  1.0000
  S   S385      1.0  0.71449  0.40382  0.59890  1.0000
  S   S386      1.0  0.76541  0.41417  0.52794  1.0000
  Fe  Fe192     1.0  0.72220  0.35656  0.62634  1.0000
  H   H2343     1.0  0.65747  0.42882  0.50092  1.0000
  Fe  Fe193     1.0  0.66569  0.38032  0.59303  1.0000
  S   S387      1.0  0.61908  0.41075  0.58999  1.0000
  H   H2344     1.0  0.53973  0.45546  0.50419  1.0000
  Fe  Fe194     1.0  0.49789  0.54268  0.48935  1.0000
  S   S388      1.0  0.91998  0.37815  0.57202  1.0000
  S   S389      1.0  0.51906  0.36137  0.51463  1.0000
  C   C1357     1.0  0.51133  0.47585  0.63951  1.0000
  C   C1358     1.0  0.90564  0.40148  0.49553  1.0000
  H   H2345     1.0  0.52856  0.59931  0.50003  1.0000
  H   H2346     1.0  0.86027  0.41550  0.70185  1.0000
  S   S390      1.0  0.87569  0.49839  0.57085  1.0000
  C   C1359     1.0  0.52423  0.35648  0.69407  1.0000
  C   C1360     1.0  0.63942  0.48396  0.52592  1.0000
  C   C1361     1.0  0.94639  0.39920  0.69219  1.0000
  C   C1362     1.0  0.93938  0.39932  0.66470  1.0000
  C   C1363     1.0  0.94984  0.42659  0.64446  1.0000
  H   H2347     1.0  0.94674  0.43435  0.50256  1.0000
  H   H2348     1.0  0.91513  0.50169  0.63892  1.0000
  C   C1364     1.0  0.55800  0.40921  0.64677  1.0000
  H   H2349     1.0  0.95545  0.59682  0.70083  1.0000
  H   H2350     1.0  0.69294  0.41926  0.51984  1.0000
  C   C1365     1.0  0.79448  0.43866  0.54059  1.0000
  C   C1366     1.0  0.80634  0.46904  0.52509  1.0000
  C   C1367     1.0  0.83121  0.48772  0.53420  1.0000
  C   C1368     1.0  0.84428  0.47597  0.55884  1.0000
  C   C1369     1.0  0.83186  0.44598  0.57451  1.0000
  C   C1370     1.0  0.80676  0.42755  0.56563  1.0000
  H   H2351     1.0  0.79642  0.47799  0.50597  1.0000
  H   H2352     1.0  0.84025  0.51112  0.52220  1.0000
  H   H2353     1.0  0.84243  0.43642  0.59309  1.0000
  H   H2354     1.0  0.79798  0.40398  0.57755  1.0000
  C   C1371     1.0  0.59068  0.39563  0.57011  1.0000
  C   C1372     1.0  0.59764  0.36691  0.55768  1.0000
  C   C1373     1.0  0.57569  0.35632  0.54052  1.0000
  C   C1374     1.0  0.54572  0.37341  0.53708  1.0000
  C   C1375     1.0  0.53769  0.40103  0.55076  1.0000
  C   C1376     1.0  0.56056  0.41257  0.56671  1.0000
  H   H2355     1.0  0.59884  0.45034  0.48389  1.0000
  H   H2356     1.0  0.55485  0.43463  0.57644  1.0000
  C   C1377     1.0  0.61708  0.50234  0.54750  1.0000
  C   C1378     1.0  0.67768  0.42177  0.69152  1.0000
  C   C1379     1.0  0.69322  0.39706  0.67704  1.0000
  C   C1380     1.0  0.71910  0.37834  0.68766  1.0000
  C   C1381     1.0  0.53589  0.58540  0.67139  1.0000
  S   S391      1.0  0.74197  0.35121  0.66744  1.0000
  H   H2357     1.0  0.65856  0.43703  0.68271  1.0000
  H   H2358     1.0  0.68560  0.39312  0.65735  1.0000
  H   H2359     1.0  0.62502  0.37949  0.48963  1.0000
  H   H2360     1.0  0.96767  0.58472  0.60222  1.0000
  Fe  Fe195     1.0  0.91319  0.52748  0.53680  1.0000
  S   S392      1.0  0.90066  0.55720  0.49748  1.0000
  S   S393      1.0  0.98283  0.57821  0.48240  1.0000
  H   H2361     1.0  0.52422  0.42968  0.48181  1.0000
  Fe  Fe196     1.0  0.93561  0.59598  0.50678  1.0000
  H   H2362     1.0  0.55727  0.61606  0.61572  1.0000
  S   S394      1.0  0.94403  0.56809  0.54809  1.0000
  H   H2363     1.0  0.60118  0.34590  0.65420  1.0000
  C   C1382     1.0  0.60806  0.63229  0.49454  1.0000
  H   H2364     1.0  0.51756  0.63778  0.61340  1.0000
  C   C1383     1.0  0.68817  0.42776  0.71655  1.0000
  C   C1384     1.0  0.55593  0.60020  0.49761  1.0000
  C   C1385     1.0  0.57246  0.63001  0.49908  1.0000
  C   C1386     1.0  0.53331  0.58566  0.70341  1.0000
  S   S395      1.0  0.91306  0.36744  0.65783  1.0000
  H   H2365     1.0  0.53341  0.61096  0.58844  1.0000
  H   H2366     1.0  0.83468  0.63992  0.48677  1.0000
  H   H2367     1.0  0.59016  0.36914  0.68257  1.0000
  C   C1387     1.0  0.89177  0.57218  0.68736  1.0000
  H   H2368     1.0  0.55759  0.65167  0.50268  1.0000
  C   C1388     1.0  0.79895  0.45254  0.70079  1.0000
  H   H2369     1.0  0.85577  0.60488  0.47449  1.0000
  H   H2370     1.0  0.61977  0.35269  0.56128  1.0000
  C   C1389     1.0  0.89082  0.45732  0.47798  1.0000
  C   C1390     1.0  0.54605  0.37456  0.64308  1.0000
  H   H2371     1.0  0.71019  0.49405  0.58259  1.0000
  C   C1391     1.0  0.87344  0.46765  0.69557  1.0000
  H   H2372     1.0  0.78387  0.40828  0.67044  1.0000
  H   H2373     1.0  0.91763  0.46683  0.47386  1.0000
  H   H2374     1.0  0.50185  0.63907  0.66073  1.0000
  C   C1392     1.0  0.69052  0.47190  0.54949  1.0000
  C   C1393     1.0  0.72824  0.38301  0.71352  1.0000
  H   H2375     1.0  0.55088  0.56332  0.66619  1.0000
  N   N99       1.0  0.94175  0.58183  0.64524  1.0000
  H   H2376     1.0  0.51434  0.41418  0.54833  1.0000
  H   H2377     1.0  0.58984  0.49790  0.54584  1.0000
  H   H2378     1.0  0.55941  0.58379  0.70911  1.0000
  S   S396      1.0  0.95892  0.50345  0.51527  1.0000
  S   S397      1.0  0.54717  0.49850  0.64507  1.0000
  H   H2379     1.0  0.92851  0.64636  0.61985  1.0000
  H   H2380     1.0  0.97387  0.62127  0.65346  1.0000
  H   H2381     1.0  0.89124  0.53911  0.63555  1.0000
  H   H2382     1.0  0.51695  0.32568  0.62103  1.0000
  H   H2383     1.0  0.87408  0.48992  0.67982  1.0000
  H   H2384     1.0  0.92630  0.53157  0.60882  1.0000
  H   H2385     1.0  0.61990  0.49237  0.56939  1.0000
  H   H2386     1.0  0.52404  0.48445  0.59432  1.0000
  H   H2387     1.0  0.88916  0.59792  0.64646  1.0000
  H   H2388     1.0  0.85449  0.40613  0.63710  1.0000
  N   N100      1.0  0.50245  0.58588  0.65999  1.0000
  H   H2389     1.0  0.69927  0.42384  0.48251  1.0000
  H   H2390     1.0  0.67344  0.51491  0.57245  1.0000
  H   H2391     1.0  0.56252  0.36721  0.62432  1.0000
  S   S398      1.0  0.55396  0.53465  0.49061  1.0000
  H   H2392     1.0  0.93817  0.53256  0.66957  1.0000
  Fe  Fe197     1.0  0.87965  0.34267  0.56499  1.0000
  H   H2393     1.0  0.87993  0.54963  0.68236  1.0000
  C   C1394     1.0  0.94836  0.63342  0.60693  1.0000
  H   H2394     1.0  0.63096  0.49188  0.50520  1.0000
  H   H2395     1.0  0.53436  0.37810  0.70215  1.0000
  H   H2396     1.0  0.52036  0.37746  0.63679  1.0000
  C   C1395     1.0  0.57480  0.57206  0.49265  1.0000
  H   H2397     1.0  0.71833  0.46692  0.54492  1.0000
  H   H2398     1.0  0.83047  0.49073  0.65588  1.0000
  H   H2399     1.0  0.52605  0.56179  0.62511  1.0000
  N   N101      1.0  0.67771  0.48798  0.52330  1.0000
  H   H2400     1.0  0.51804  0.56460  0.71598  1.0000
  H   H2401     1.0  0.87754  0.43177  0.66712  1.0000
  H   H2402     1.0  0.81249  0.38853  0.69155  1.0000
  C   C1396     1.0  0.68525  0.49048  0.57550  1.0000
  N   N102      1.0  0.54667  0.34834  0.66802  1.0000
  C   C1397     1.0  0.83056  0.39284  0.64714  1.0000
  C   C1398     1.0  0.68488  0.43362  0.50103  1.0000
  H   H2403     1.0  0.83738  0.36684  0.65370  1.0000
  H   H2404     1.0  0.66882  0.47523  0.59323  1.0000
  Fe  Fe198     1.0  0.91582  0.34917  0.61537  1.0000
  S   S399      1.0  0.74927  0.33161  0.59138  1.0000
  C   C1399     1.0  0.90904  0.59418  0.66047  1.0000
  H   H2405     1.0  0.77058  0.33440  0.52744  1.0000
  H   H2406     1.0  0.94390  0.42733  0.62337  1.0000
  H   H2407     1.0  0.95267  0.39161  0.51270  1.0000
  H   H2408     1.0  0.78592  0.44499  0.62998  1.0000
  C   C1400     1.0  0.54455  0.44782  0.48286  1.0000
  H   H2409     1.0  0.85927  0.47308  0.71586  1.0000
  H   H2410     1.0  0.62102  0.52949  0.54351  1.0000
  C   C1401     1.0  0.94346  0.40959  0.49638  1.0000
  H   H2411     1.0  0.54234  0.41849  0.66481  1.0000
  C   C1402     1.0  0.91712  0.52871  0.63180  1.0000
  H   H2412     1.0  0.55531  0.42640  0.62757  1.0000
  H   H2413     1.0  0.74115  0.52317  0.49396  1.0000
  H   H2414     1.0  0.80454  0.47878  0.70263  1.0000
  C   C1403     1.0  0.94263  0.54460  0.64739  1.0000
  H   H2415     1.0  0.72194  0.47224  0.49626  1.0000
  H   H2416     1.0  0.89107  0.40410  0.51668  1.0000
  H   H2417     1.0  0.58001  0.41081  0.49426  1.0000
  C   C1404     1.0  0.96644  0.45374  0.65198  1.0000
  H   H2418     1.0  0.81361  0.39171  0.63105  1.0000
  C   C1405     1.0  0.82491  0.32748  0.51934  1.0000
  S   S400      1.0  0.83398  0.35382  0.54322  1.0000
  H   H2419     1.0  0.77238  0.45229  0.69596  1.0000
  H   H2420     1.0  0.67490  0.53958  0.53079  1.0000
  H   H2421     1.0  0.88832  0.34251  0.71767  1.0000
  H   H2422     1.0  0.68634  0.48309  0.47877  1.0000
  H   H2423     1.0  0.63149  0.45755  0.53221  1.0000
  S   S401      1.0  0.68828  0.35603  0.55623  1.0000
  N   N103      1.0  0.82360  0.44060  0.67759  1.0000
  H   H2424     1.0  0.65479  0.60603  0.48527  1.0000
  C   C1406     1.0  0.82497  0.46548  0.65140  1.0000
  C   C1407     1.0  0.85895  0.43713  0.68540  1.0000
  H   H2425     1.0  0.93807  0.37850  0.70808  1.0000
  C   C1408     1.0  0.97247  0.59384  0.65619  1.0000
  C   C1409     1.0  0.79217  0.46818  0.63774  1.0000
  C   C1410     1.0  0.69356  0.47076  0.49893  1.0000
  H   H2426     1.0  0.76989  0.47559  0.65212  1.0000
  H   H2427     1.0  0.55234  0.60707  0.66148  1.0000
  S   S402      1.0  0.58382  0.44044  0.70447  1.0000
  H   H2428     1.0  0.84645  0.46060  0.63494  1.0000
  H   H2429     1.0  0.58542  0.41026  0.64882  1.0000
  H   H2430     1.0  0.91331  0.61910  0.66638  1.0000
  H   H2431     1.0  0.49184  0.46243  0.68347  1.0000
  Fe  Fe199     1.0  0.98851  0.54707  0.52299  1.0000
  C   C1411     1.0  0.61053  0.57420  0.48835  1.0000
  H   H2432     1.0  0.74768  0.36791  0.72203  1.0000
  C   C1412     1.0  0.62719  0.60439  0.48893  1.0000
  C   C1413     1.0  0.58302  0.34663  0.67401  1.0000
  H   H2433     1.0  0.79632  0.48755  0.61904  1.0000
  H   H2434     1.0  0.90394  0.37460  0.49416  1.0000
  H   H2435     1.0  0.97334  0.47517  0.63649  1.0000
  H   H2436     1.0  0.92250  0.58837  0.60537  1.0000
  C   C1414     1.0  0.81129  0.40726  0.67284  1.0000
  C   C1415     1.0  0.68789  0.52406  0.51563  1.0000
  H   H2437     1.0  0.85038  0.38282  0.48427  1.0000
  Fe  Fe200     1.0  0.56244  0.48919  0.68857  1.0000
  C   C1416     1.0  0.72644  0.53200  0.51273  1.0000
  C   C1417     1.0  0.96415  0.42574  0.69940  1.0000
  S   S403      1.0  0.60137  0.51922  0.70435  1.0000
  S   S404      1.0  0.72526  0.64676  0.48292  1.0000
  C   C1418     1.0  0.51092  0.58420  0.62884  1.0000
  H   H2438     1.0  0.96856  0.53648  0.63887  1.0000
  C   C1419     1.0  0.94518  0.59546  0.61438  1.0000
  H   H2439     1.0  0.87087  0.58609  0.69825  1.0000
  H   H2440     1.0  0.52465  0.33613  0.71166  1.0000
  C   C1420     1.0  0.58048  0.43281  0.47824  1.0000
  H   H2441     1.0  0.52311  0.60916  0.70989  1.0000
  H   H2442     1.0  0.67844  0.44700  0.55640  1.0000
  H   H2443     1.0  0.67960  0.53421  0.49528  1.0000
  H   H2444     1.0  0.73740  0.52192  0.53175  1.0000
  Fe  Fe201     1.0  0.95632  0.33837  0.55941  1.0000
  C   C1421     1.0  0.53090  0.61421  0.61100  1.0000
  H   H2445     1.0  0.90920  0.56474  0.70271  1.0000
  Fe  Fe202     1.0  0.94902  0.53647  0.47663  1.0000
  H   H2446     1.0  0.73034  0.55927  0.50965  1.0000
  S   S405      1.0  0.67013  0.33650  0.62527  1.0000
  C   C1422     1.0  0.50636  0.47248  0.61200  1.0000
  H   H2447     1.0  0.62524  0.55273  0.48393  1.0000
  H   H2448     1.0  0.88157  0.45937  0.50050  1.0000
  H   H2449     1.0  0.49869  0.53429  0.67856  1.0000
  S   S406      1.0  0.92278  0.64892  0.50928  1.0000
  H   H2450     1.0  0.90017  0.46279  0.69904  1.0000
  H   H2451     1.0  0.96033  0.40724  0.47639  1.0000
  H   H2452     1.0  0.94491  0.64046  0.58459  1.0000
  H   H2453     1.0  0.83684  0.42100  0.49364  1.0000
  H   H2454     1.0  0.97086  0.55627  0.69421  1.0000
  C   C1423     1.0  0.85267  0.40972  0.47660  1.0000
  C   C1424     1.0  0.97425  0.58322  0.68758  1.0000
  H   H2455     1.0  0.97414  0.64269  0.60862  1.0000
  H   H2456     1.0  0.58179  0.33477  0.53016  1.0000
  N   N104      1.0  0.88938  0.42182  0.47281  1.0000
  H   H2457     1.0  0.82039  0.32943  0.71752  1.0000
  H   H2458     1.0  0.96924  0.42532  0.72070  1.0000
  Fe  Fe203     1.0  0.89044  0.41390  0.82170  1.0000
  S   S407      1.0  0.86830  0.43011  0.78207  1.0000
  S   S408      1.0  0.93038  0.37488  0.82482  1.0000
  Fe  Fe204     1.0  0.84512  0.45741  0.85572  1.0000
  S   S409      1.0  0.81771  0.47688  0.82012  1.0000
  S   S410      1.0  0.83493  0.47076  0.89929  1.0000
  Fe  Fe205     1.0  0.81812  0.42468  0.81076  1.0000
  H   H2459     1.0  0.98085  0.64495  0.86772  1.0000
  Fe  Fe206     1.0  0.87000  0.48123  0.79434  1.0000
  S   S411      1.0  0.87846  0.52912  0.76462  1.0000
  S   S412      1.0  0.83994  0.40461  0.84926  1.0000
  S   S413      1.0  0.89751  0.46561  0.83106  1.0000
  C   C1425     1.0  0.56419  0.35931  0.76768  1.0000
  H   H2460     1.0  0.49157  0.41346  0.81984  1.0000
  H   H2461     1.0  0.77860  0.44375  0.74529  1.0000
  S   S414      1.0  0.67535  0.46293  0.93183  1.0000
  H   H2462     1.0  0.64272  0.36587  0.90390  1.0000
  H   H2463     1.0  0.51655  0.54409  0.83253  1.0000
  C   C1426     1.0  0.68997  0.45145  0.82771  1.0000
  H   H2464     1.0  0.77183  0.33144  0.90206  1.0000
  H   H2465     1.0  0.61273  0.32496  0.94326  1.0000
  H   H2466     1.0  0.97900  0.51010  0.93563  1.0000
  H   H2467     1.0  0.84989  0.64798  0.94066  1.0000
  H   H2468     1.0  0.52338  0.49798  0.80621  1.0000
  Fe  Fe207     1.0  0.56373  0.51660  0.74408  1.0000
  S   S415      1.0  0.58214  0.46905  0.76476  1.0000
  S   S416      1.0  0.55538  0.55776  0.77100  1.0000
  C   C1427     1.0  0.88737  0.55079  0.88751  1.0000
  H   H2469     1.0  0.71642  0.47117  0.77309  1.0000
  Fe  Fe208     1.0  0.54606  0.44376  0.74297  1.0000
  C   C1428     1.0  0.89384  0.45457  0.94381  1.0000
  H   H2470     1.0  0.78897  0.40654  0.73096  1.0000
  C   C1429     1.0  0.66782  0.51135  0.79130  1.0000
  H   H2471     1.0  0.70880  0.56211  0.78466  1.0000
  H   H2472     1.0  0.73034  0.48510  0.83168  1.0000
  H   H2473     1.0  0.57252  0.62010  0.93411  1.0000
  S   S417      1.0  0.77137  0.40068  0.80079  1.0000
  C   C1430     1.0  0.93660  0.35844  0.85900  1.0000
  C   C1431     1.0  0.91145  0.35988  0.88244  1.0000
  H   H2474     1.0  0.86747  0.44421  0.95054  1.0000
  H   H2475     1.0  0.88778  0.37212  0.87995  1.0000
  C   C1432     1.0  0.74835  0.33772  0.79972  1.0000
  C   C1433     1.0  0.79088  0.47215  0.90986  1.0000
  C   C1434     1.0  0.77008  0.48806  0.89157  1.0000
  C   C1435     1.0  0.73452  0.48669  0.89926  1.0000
  C   C1436     1.0  0.71976  0.46868  0.92482  1.0000
  C   C1437     1.0  0.74064  0.45385  0.94353  1.0000
  C   C1438     1.0  0.77624  0.45571  0.93610  1.0000
  H   H2476     1.0  0.71837  0.49871  0.88510  1.0000
  C   C1439     1.0  0.91110  0.43282  0.92218  1.0000
  H   H2477     1.0  0.72057  0.41230  0.74760  1.0000
  C   C1440     1.0  0.62238  0.57871  0.75468  1.0000
  H   H2478     1.0  0.60552  0.32566  0.77326  1.0000
  H   H2479     1.0  0.65735  0.40741  0.90448  1.0000
  H   H2480     1.0  0.76372  0.36523  0.86169  1.0000
  C   C1441     1.0  0.70656  0.55753  0.82956  1.0000
  C   C1442     1.0  0.95219  0.50096  0.93814  1.0000
  H   H2481     1.0  0.89842  0.40808  0.92592  1.0000
  H   H2482     1.0  0.90886  0.58430  0.81839  1.0000
  H   H2483     1.0  0.54389  0.33902  0.93357  1.0000
  H   H2484     1.0  0.75717  0.63557  0.88466  1.0000
  H   H2485     1.0  0.66772  0.52946  0.77209  1.0000
  H   H2486     1.0  0.56076  0.44029  0.83062  1.0000
  C   C1443     1.0  0.66517  0.38298  0.89836  1.0000
  C   C1444     1.0  0.77668  0.35811  0.79991  1.0000
  H   H2487     1.0  0.51837  0.44401  0.79747  1.0000
  H   H2488     1.0  0.89132  0.52452  0.88401  1.0000
  H   H2489     1.0  0.75191  0.48958  0.78374  1.0000
  H   H2490     1.0  0.86820  0.53692  0.93207  1.0000
  H   H2491     1.0  0.70935  0.56657  0.95534  1.0000
  H   H2492     1.0  0.58011  0.38132  0.76520  1.0000
  C   C1445     1.0  0.91677  0.34494  0.90927  1.0000
  H   H2493     1.0  0.66015  0.48790  0.78452  1.0000
  C   C1446     1.0  0.91660  0.55053  0.76569  1.0000
  C   C1447     1.0  0.94459  0.53353  0.77430  1.0000
  H   H2494     1.0  0.91257  0.63759  0.83461  1.0000
  H   H2495     1.0  0.82212  0.43242  0.73832  1.0000
  H   H2496     1.0  0.88973  0.47957  0.93264  1.0000
  H   H2497     1.0  0.83507  0.53962  0.91117  1.0000
  H   H2498     1.0  0.94323  0.50695  0.77987  1.0000
  C   C1448     1.0  0.94638  0.57655  0.84605  1.0000
  H   H2499     1.0  0.70508  0.38982  0.92358  1.0000
  H   H2500     1.0  0.78135  0.50135  0.87151  1.0000
  C   C1449     1.0  0.65156  0.61629  0.77851  1.0000
  C   C1450     1.0  0.62118  0.61934  0.79686  1.0000
  C   C1451     1.0  0.59144  0.60196  0.79405  1.0000
  C   C1452     1.0  0.59209  0.58123  0.77315  1.0000
  C   C1453     1.0  0.65187  0.59626  0.75726  1.0000
  C   C1454     1.0  0.97483  0.55080  0.77519  1.0000
  H   H2501     1.0  0.56801  0.60427  0.80828  1.0000
  S   S418      1.0  0.67136  0.46072  0.73307  1.0000
  H   H2502     1.0  0.89018  0.61318  0.88271  1.0000
  H   H2503     1.0  0.83090  0.35977  0.80041  1.0000
  H   H2504     1.0  0.70672  0.43722  0.81339  1.0000
  N   N105      1.0  0.72269  0.35269  0.89669  1.0000
  C   C1455     1.0  0.74956  0.34173  0.91470  1.0000
  C   C1456     1.0  0.73956  0.37573  0.87138  1.0000
  H   H2505     1.0  0.96532  0.58209  0.82661  1.0000
  H   H2506     1.0  0.93869  0.42928  0.92246  1.0000
  N   N106      1.0  0.70299  0.50950  0.79962  1.0000
  C   C1457     1.0  0.74888  0.41054  0.87694  1.0000
  H   H2507     1.0  0.85505  0.57661  0.91845  1.0000
  H   H2508     1.0  0.95070  0.62897  0.75393  1.0000
  H   H2509     1.0  0.81749  0.55947  0.81975  1.0000
  H   H2510     1.0  0.75998  0.36323  0.92271  1.0000
  H   H2511     1.0  0.72364  0.37882  0.85424  1.0000
  C   C1458     1.0  0.50894  0.43492  0.81986  1.0000
  H   H2512     1.0  0.75028  0.50318  0.73315  1.0000
  H   H2513     1.0  0.62061  0.63492  0.81322  1.0000
  C   C1459     1.0  0.79752  0.43242  0.73027  1.0000
  H   H2514     1.0  0.94749  0.49561  0.91724  1.0000
  H   H2515     1.0  0.63941  0.51004  0.83477  1.0000
  C   C1460     1.0  0.53859  0.33425  0.95690  1.0000
  H   H2516     1.0  0.72579  0.42455  0.88344  1.0000
  H   H2517     1.0  0.76624  0.40985  0.89282  1.0000
  H   H2518     1.0  0.76228  0.42471  0.85718  1.0000
  C   C1461     1.0  0.94769  0.32955  0.91273  1.0000
  S   S419      1.0  0.51042  0.40073  0.75981  1.0000
  H   H2519     1.0  0.82624  0.59901  0.82870  1.0000
  H   H2520     1.0  0.91237  0.54279  0.83289  1.0000
  C   C1462     1.0  0.70374  0.48691  0.82679  1.0000
  Fe  Fe209     1.0  0.65683  0.42612  0.96976  1.0000
  C   C1463     1.0  0.94913  0.60238  0.75945  1.0000
  H   H2521     1.0  0.53580  0.48723  0.83967  1.0000
  C   C1464     1.0  0.69474  0.36957  0.91389  1.0000
  S   S420      1.0  0.61245  0.39214  0.96955  1.0000
  H   H2522     1.0  0.72030  0.54480  0.84612  1.0000
  H   H2523     1.0  0.71448  0.58403  0.82653  1.0000
  H   H2524     1.0  0.74736  0.54034  0.74883  1.0000
  H   H2525     1.0  0.68933  0.43832  0.84927  1.0000
  C   C1465     1.0  0.91119  0.56844  0.83840  1.0000
  H   H2526     1.0  0.67516  0.59398  0.74286  1.0000
  C   C1466     1.0  0.51306  0.49192  0.82897  1.0000
  C   C1467     1.0  0.88456  0.63479  0.84118  1.0000
  H   H2527     1.0  0.96500  0.45061  0.95239  1.0000
  C   C1468     1.0  0.73367  0.51695  0.74798  1.0000
  C   C1469     1.0  0.49723  0.52366  0.83857  1.0000
  H   H2528     1.0  0.85839  0.57783  0.80688  1.0000
  H   H2529     1.0  0.79235  0.44350  0.95031  1.0000
  C   C1470     1.0  0.57855  0.32785  0.77223  1.0000
  H   H2530     1.0  0.68888  0.49676  0.84498  1.0000
  C   C1471     1.0  0.94746  0.46972  0.96025  1.0000
  H   H2531     1.0  0.72017  0.32671  0.95694  1.0000
  C   C1472     1.0  0.87529  0.60711  0.86632  1.0000
  H   H2532     1.0  0.90858  0.44450  0.90056  1.0000
  C   C1473     1.0  0.80889  0.34417  0.80040  1.0000
  H   H2533     1.0  0.67883  0.55640  0.83713  1.0000
  C   C1474     1.0  0.91895  0.58498  0.75805  1.0000
  C   C1475     1.0  0.58023  0.63791  0.94745  1.0000
  H   H2534     1.0  0.68252  0.35222  0.93236  1.0000
  H   H2535     1.0  0.87257  0.63129  0.82269  1.0000
  C   C1476     1.0  0.78003  0.61566  0.92059  1.0000
  N   N107      1.0  0.91133  0.45650  0.96896  1.0000
  H   H2536     1.0  0.95609  0.55494  0.85882  1.0000
  C   C1477     1.0  0.54050  0.42115  0.83240  1.0000
  H   H2537     1.0  0.89727  0.59828  0.75146  1.0000
  C   C1478     1.0  0.50879  0.33362  0.76952  1.0000
  H   H2538     1.0  0.68988  0.33248  0.87107  1.0000
  C   C1479     1.0  0.63837  0.52134  0.81294  1.0000
  H   H2539     1.0  0.71004  0.52243  0.73876  1.0000
  H   H2540     1.0  0.74502  0.54415  0.79782  1.0000
  H   H2541     1.0  0.94569  0.59826  0.85748  1.0000
  C   C1480     1.0  0.83786  0.57487  0.82527  1.0000
  H   H2542     1.0  0.93579  0.52140  0.94471  1.0000
  H   H2543     1.0  0.76169  0.59547  0.92682  1.0000
  H   H2544     1.0  0.62326  0.56307  0.73845  1.0000
  H   H2545     1.0  0.55158  0.40157  0.82011  1.0000
  H   H2546     1.0  0.67179  0.38662  0.87524  1.0000
  C   C1481     1.0  0.97309  0.32896  0.88945  1.0000
  C   C1482     1.0  0.96734  0.34286  0.86264  1.0000
  H   H2547     1.0  0.95997  0.64824  0.91710  1.0000
  S   S421      1.0  0.69007  0.63622  0.78145  1.0000
  H   H2548     1.0  0.91108  0.55901  0.89436  1.0000
  C   C1483     1.0  0.80575  0.61940  0.93676  1.0000
  H   H2549     1.0  0.50004  0.61862  0.87117  1.0000
  C   C1484     1.0  0.52924  0.36213  0.76639  1.0000
  H   H2550     1.0  0.63715  0.54858  0.81189  1.0000
  C   C1485     1.0  0.72661  0.49520  0.77698  1.0000
  N   N108      1.0  0.88093  0.57182  0.86075  1.0000
  H   H2551     1.0  0.89716  0.34570  0.92723  1.0000
  C   C1486     1.0  0.85953  0.55124  0.91342  1.0000
  C   C1487     1.0  0.84960  0.55752  0.85226  1.0000
  H   H2552     1.0  0.61384  0.51218  0.80811  1.0000
  H   H2553     1.0  0.72947  0.44085  0.96364  1.0000
  H   H2554     1.0  0.72340  0.34844  0.79919  1.0000
  C   C1488     1.0  0.97723  0.58521  0.76794  1.0000
  C   C1489     1.0  0.71654  0.54359  0.80152  1.0000
  H   H2555     1.0  0.66348  0.45096  0.82306  1.0000
  C   C1490     1.0  0.82999  0.64502  0.92820  1.0000
  C   C1491     1.0  0.77736  0.63844  0.89674  1.0000
  H   H2556     1.0  0.53394  0.40938  0.85453  1.0000
  H   H2557     1.0  0.85346  0.53099  0.84967  1.0000
  H   H2558     1.0  0.82704  0.55794  0.86887  1.0000
  H   H2559     1.0  0.84810  0.61044  0.87528  1.0000
  H   H2560     1.0  0.90952  0.34767  0.76063  1.0000
  H   H2561     1.0  0.50252  0.45383  0.87637  1.0000
  S   S422      1.0  0.80744  0.59068  0.96681  1.0000
  H   H2562     1.0  0.86292  0.32426  0.84985  1.0000
  H   H2563     1.0  0.49392  0.33342  0.89621  1.0000
  H   H2564     1.0  0.51505  0.34779  0.96325  1.0000
  H   H2565     1.0  0.56023  0.34479  0.96474  1.0000
  C   C1492     1.0  0.70702  0.32383  0.88666  1.0000
  H   H2566     1.0  0.60812  0.64250  0.94104  1.0000
  H   H2567     1.0  0.83489  0.33037  0.88147  1.0000
  C   C1493     1.0  0.71301  0.40807  0.72787  1.0000
  H   H2568     1.0  0.98708  0.34227  0.84467  1.0000
  S   S423      1.0  0.52307  0.49127  0.72653  1.0000
  Fe  Fe210     1.0  0.61813  0.47045  0.72449  1.0000
  H   H2569     1.0  0.71499  0.65571  0.96509  1.0000
  H   H2570     1.0  0.92735  0.40552  0.97170  1.0000
  H   H2571     1.0  0.85891  0.32429  0.74703  1.0000
  C   C1494     1.0  0.91051  0.32264  0.75397  1.0000
  S   S424      1.0  0.61929  0.89205  0.00206  1.0000
  C   C1495     1.0  0.75312  0.88358  0.98961  1.0000
  Fe  Fe211     1.0  0.85198  0.74084  0.99257  1.0000
  S   S425      1.0  0.85017  0.75076  0.03717  1.0000
  Fe  Fe212     1.0  0.66615  0.91376  0.97367  1.0000
  S   S426      1.0  0.90508  0.81165  0.01132  1.0000
  Fe  Fe213     1.0  0.90738  0.75718  0.02634  1.0000
  S   S427      1.0  0.94594  0.74600  0.05632  1.0000
  Fe  Fe214     1.0  0.84821  0.80398  0.01904  1.0000
  S   S428      1.0  0.81311  0.83685  0.04327  1.0000
  H   H2572     1.0  0.76467  0.75612  0.99209  1.0000
  C   C1496     1.0  0.98161  0.70083  0.08650  1.0000
  H   H2573     1.0  0.57329  0.73283  0.12369  1.0000
  S   S429      1.0  0.66460  0.70645  0.13466  1.0000
  S   S430      1.0  0.82852  0.67388  0.07347  1.0000
  Fe  Fe215     1.0  0.82739  0.75202  0.20878  1.0000
  C   C1497     1.0  0.49237  0.70846  0.06812  1.0000
  S   S431      1.0  0.86581  0.75262  0.16907  1.0000
  C   C1498     1.0  0.82517  0.93840  0.09882  1.0000
  H   H2574     1.0  0.52255  0.90459  0.03668  1.0000
  H   H2575     1.0  0.54679  0.86742  0.00863  1.0000
  H   H2576     1.0  0.68758  0.76296  0.00811  1.0000
  H   H2577     1.0  0.63463  0.73813  0.07887  1.0000
  H   H2578     1.0  0.69282  0.72159  0.06707  1.0000
  H   H2579     1.0  0.69069  0.75567  0.08644  1.0000
  C   C1499     1.0  0.72173  0.65678  0.00811  1.0000
  H   H2580     1.0  0.91662  0.78012  0.10298  1.0000
  C   C1500     1.0  0.70245  0.72914  0.20183  1.0000
  C   C1501     1.0  0.69159  0.73114  0.17562  1.0000
  C   C1502     1.0  0.67831  0.70309  0.16730  1.0000
  C   C1503     1.0  0.67526  0.67310  0.18532  1.0000
  C   C1504     1.0  0.68555  0.67127  0.21184  1.0000
  H   H2581     1.0  0.50638  0.83117  0.08209  1.0000
  H   H2582     1.0  0.69368  0.75437  0.16174  1.0000
  C   C1505     1.0  0.50501  0.75742  0.19403  1.0000
  C   C1506     1.0  0.95355  0.76812  0.18538  1.0000
  C   C1507     1.0  0.85583  0.73059  0.14249  1.0000
  C   C1508     1.0  0.88207  0.71718  0.12474  1.0000
  C   C1509     1.0  0.87444  0.69993  0.10316  1.0000
  C   C1510     1.0  0.84062  0.69679  0.09885  1.0000
  C   C1511     1.0  0.81468  0.71130  0.11602  1.0000
  C   C1512     1.0  0.82210  0.72753  0.13809  1.0000
  H   H2583     1.0  0.90838  0.71993  0.12764  1.0000
  C   C1513     1.0  0.58896  0.71516  0.20935  1.0000
  H   H2584     1.0  0.78843  0.70873  0.11291  1.0000
  H   H2585     1.0  0.80171  0.73802  0.15144  1.0000
  H   H2586     1.0  0.92432  0.70761  0.17870  1.0000
  C   C1514     1.0  0.84036  0.98382  0.06126  1.0000
  H   H2587     1.0  0.74368  0.91255  0.16181  1.0000
  H   H2588     1.0  0.53461  0.73427  0.07914  1.0000
  H   H2589     1.0  0.79004  0.84443  0.98803  1.0000
  H   H2590     1.0  0.60495  0.73795  0.15813  1.0000
  C   C1515     1.0  0.68944  0.87121  0.21882  1.0000
  N   N109      1.0  0.50167  0.85465  0.03995  1.0000
  C   C1516     1.0  0.60314  0.67088  0.98967  1.0000
  C   C1517     1.0  0.73745  0.90725  0.00550  1.0000
  C   C1518     1.0  0.74653  0.90992  0.03177  1.0000
  C   C1519     1.0  0.77007  0.88831  0.04275  1.0000
  C   C1520     1.0  0.78596  0.86478  0.02706  1.0000
  C   C1521     1.0  0.77793  0.86268  0.00020  1.0000
  H   H2591     1.0  0.97609  0.67614  0.16757  1.0000
  H   H2592     1.0  0.73488  0.92844  0.04392  1.0000
  H   H2593     1.0  0.77606  0.88992  0.06353  1.0000
  C   C1522     1.0  0.98262  0.70038  0.20455  1.0000
  C   C1523     1.0  0.75749  0.76426  0.07916  1.0000
  H   H2594     1.0  0.64336  0.78008  0.06465  1.0000
  H   H2595     1.0  0.73776  0.81584  0.03456  1.0000
  H   H2596     1.0  0.75263  0.93051  0.20357  1.0000
  C   C1524     1.0  0.74815  0.85904  0.20063  1.0000
  C   C1525     1.0  0.52505  0.82349  0.99801  1.0000
  H   H2597     1.0  0.58833  0.68403  0.15283  1.0000
  C   C1526     1.0  0.78538  0.86973  0.18829  1.0000
  S   S432      1.0  0.62780  0.66281  0.08505  1.0000
  H   H2598     1.0  0.98749  0.90763  0.97399  1.0000
  H   H2599     1.0  0.53308  0.74443  0.14260  1.0000
  H   H2600     1.0  0.74541  0.79636  0.98950  1.0000
  H   H2601     1.0  0.56465  0.77471  0.12670  1.0000
  H   H2602     1.0  0.51287  0.77692  0.17596  1.0000
  C   C1527     1.0  0.93015  0.80165  0.10821  1.0000
  H   H2603     1.0  0.79610  0.88751  0.20012  1.0000
  H   H2604     1.0  0.80177  0.84764  0.18972  1.0000
  H   H2605     1.0  0.78805  0.88005  0.16574  1.0000
  C   C1528     1.0  0.73138  0.66335  0.97903  1.0000
  H   H2606     1.0  0.54092  0.82801  0.97693  1.0000
  H   H2607     1.0  0.66478  0.80757  0.02306  1.0000
  H   H2608     1.0  0.53844  0.80472  0.01087  1.0000
  H   H2609     1.0  0.78920  0.96634  0.97744  1.0000
  C   C1529     1.0  0.96492  0.68309  0.04497  1.0000
  H   H2610     1.0  0.98357  0.72002  0.15925  1.0000
  H   H2611     1.0  0.97946  0.94591  0.02654  1.0000
  S   S433      1.0  0.89041  0.97272  0.20581  1.0000
  C   C1530     1.0  0.77461  0.68304  0.01440  1.0000
  H   H2612     1.0  0.89463  0.68921  0.08981  1.0000
  C   C1531     1.0  0.83805  0.95611  0.11774  1.0000
  C   C1532     1.0  0.49925  0.88977  0.04669  1.0000
  H   H2613     1.0  0.79157  0.69034  0.02796  1.0000
  H   H2614     1.0  0.66938  0.85020  0.18470  1.0000
  H   H2615     1.0  0.62159  0.68240  0.02781  1.0000
  H   H2616     1.0  0.50034  0.81313  0.99482  1.0000
  H   H2617     1.0  0.57398  0.82569  0.04543  1.0000
  C   C1533     1.0  0.85098  0.98824  0.10869  1.0000
  C   C1534     1.0  0.54553  0.69480  0.18524  1.0000
  C   C1535     1.0  0.94543  0.74786  0.21478  1.0000
  H   H2618     1.0  0.78502  0.76008  0.08001  1.0000
  H   H2619     1.0  0.73623  0.66147  0.04848  1.0000
  H   H2620     1.0  0.74304  0.74743  0.09689  1.0000
  N   N110      1.0  0.56211  0.72582  0.19110  1.0000
  H   H2621     1.0  0.66650  0.92047  0.18016  1.0000
  S   S434      1.0  0.61474  0.79928  0.98991  1.0000
  H   H2622     1.0  0.51810  0.80617  0.05568  1.0000
  H   H2623     1.0  0.64493  0.74802  0.04174  1.0000
  H   H2624     1.0  0.98091  0.71893  0.10087  1.0000
  C   C1536     1.0  0.74333  0.66662  0.02594  1.0000
  H   H2625     1.0  0.92232  0.97351  0.12390  1.0000
  C   C1537     1.0  0.52276  0.71039  0.07939  1.0000
  H   H2626     1.0  0.64879  0.83544  0.21944  1.0000
  C   C1538     1.0  0.53579  0.74482  0.20805  1.0000
  H   H2627     1.0  0.70543  0.81021  0.06449  1.0000
  H   H2628     1.0  0.52484  0.70016  0.17249  1.0000
  C   C1539     1.0  0.55758  0.84082  0.05932  1.0000
  H   H2629     1.0  0.81431  0.91388  0.10586  1.0000
  H   H2630     1.0  0.98127  0.76802  0.17733  1.0000
  H   H2631     1.0  0.92495  0.80214  0.13109  1.0000
  H   H2632     1.0  0.54730  0.76726  0.21371  1.0000
  C   C1540     1.0  0.52790  0.68532  0.98967  1.0000
  H   H2633     1.0  0.62787  0.65914  0.98273  1.0000
  C   C1541     1.0  0.91971  0.69878  0.20160  1.0000
  H   H2634     1.0  0.58291  0.77288  0.16915  1.0000
  N   N111      1.0  0.88523  0.84685  0.09801  1.0000
  C   C1542     1.0  0.87762  0.86942  0.07241  1.0000
  C   C1543     1.0  0.85920  0.81885  0.10355  1.0000
  C   C1544     1.0  0.92087  0.83398  0.09083  1.0000
  C   C1545     1.0  0.88301  0.86679  0.12210  1.0000
  C   C1546     1.0  0.90182  0.89968  0.06213  1.0000
  C   C1547     1.0  0.82226  0.82775  0.11491  1.0000
  H   H2635     1.0  0.56452  0.83410  0.08064  1.0000
  C   C1548     1.0  0.88580  0.84800  0.15140  1.0000
  H   H2636     1.0  0.87811  0.85539  0.05427  1.0000
  H   H2637     1.0  0.85153  0.87946  0.07591  1.0000
  H   H2638     1.0  0.86576  0.79858  0.11918  1.0000
  H   H2639     1.0  0.85881  0.80711  0.08417  1.0000
  H   H2640     1.0  0.92564  0.82897  0.06856  1.0000
  H   H2641     1.0  0.94036  0.85292  0.09241  1.0000
  H   H2642     1.0  0.90347  0.88618  0.11798  1.0000
  H   H2643     1.0  0.85910  0.88109  0.12399  1.0000
  H   H2644     1.0  0.89427  0.91299  0.04252  1.0000
  H   H2645     1.0  0.89948  0.91766  0.07745  1.0000
  H   H2646     1.0  0.70016  0.95107  0.17902  1.0000
  H   H2647     1.0  0.80560  0.80552  0.11647  1.0000
  H   H2648     1.0  0.82026  0.83473  0.13635  1.0000
  H   H2649     1.0  0.81170  0.84760  0.10103  1.0000
  S   S435      1.0  0.84548  0.79383  0.97565  1.0000
  H   H2650     1.0  0.95783  0.79719  0.10252  1.0000
  H   H2651     1.0  0.92881  0.89258  0.05688  1.0000
  H   H2652     1.0  0.91275  0.84695  0.15512  1.0000
  H   H2653     1.0  0.87466  0.82279  0.15501  1.0000
  H   H2654     1.0  0.87080  0.86104  0.16773  1.0000
  H   H2655     1.0  0.51919  0.88972  0.08659  1.0000
  H   H2656     1.0  0.51375  0.98046  0.07466  1.0000
  H   H2657     1.0  0.56072  0.68369  0.10025  1.0000
  H   H2658     1.0  0.67839  0.84459  0.03369  1.0000
  H   H2659     1.0  0.74089  0.84099  0.18726  1.0000
  H   H2660     1.0  0.58694  0.70841  0.01773  1.0000
  S   S436      1.0  0.77563  0.77480  0.21671  1.0000
  N   N112      1.0  0.71519  0.76706  0.04313  1.0000
  C   C1549     1.0  0.74975  0.75666  0.05046  1.0000
  C   C1550     1.0  0.71230  0.75614  0.01511  1.0000
  C   C1551     1.0  0.68859  0.74879  0.06541  1.0000
  C   C1552     1.0  0.71242  0.80400  0.04276  1.0000
  C   C1553     1.0  0.57894  0.74721  0.16477  1.0000
  C   C1554     1.0  0.65096  0.75447  0.06189  1.0000
  C   C1555     1.0  0.68757  0.82213  0.02450  1.0000
  H   H2661     1.0  0.75318  0.72963  0.05015  1.0000
  H   H2662     1.0  0.77073  0.76909  0.03466  1.0000
  C   C1556     1.0  0.49497  0.89454  0.07805  1.0000
  H   H2663     1.0  0.71254  0.72866  0.01686  1.0000
  Fe  Fe216     1.0  0.84371  0.96860  0.18550  1.0000
  Fe  Fe217     1.0  0.62324  0.85308  0.97347  1.0000
  C   C1557     1.0  0.71895  0.90140  0.17313  1.0000
  N   N113      1.0  0.72255  0.88641  0.20265  1.0000
  H   H2664     1.0  0.54489  0.70738  0.98352  1.0000
  C   C1558     1.0  0.82640  0.95218  0.07066  1.0000
  H   H2665     1.0  0.75357  0.67117  0.15835  1.0000
  H   H2666     1.0  0.56376  0.86745  0.05276  1.0000
  S   S437      1.0  0.83877  0.93670  0.15213  1.0000
  H   H2667     1.0  0.75292  0.79038  0.08219  1.0000
  C   C1559     1.0  0.74047  0.76952  0.99061  1.0000
  S   S438      1.0  0.90932  0.74249  0.98331  1.0000
  C   C1560     1.0  0.56089  0.74935  0.13846  1.0000
  C   C1561     1.0  0.60998  0.74306  0.21760  1.0000
  H   H2668     1.0  0.69178  0.93693  0.14766  1.0000
  S   S439      1.0  0.70764  0.93505  0.99284  1.0000
  S   S440      1.0  0.53989  0.94458  0.98277  1.0000
  C   C1562     1.0  0.52080  0.85647  0.01033  1.0000
  H   H2669     1.0  0.62918  0.71390  0.99866  1.0000
  C   C1563     1.0  0.53685  0.98783  0.97514  1.0000
  C   C1564     1.0  0.61006  0.69501  0.01002  1.0000
  H   H2670     1.0  0.95150  0.68737  0.02705  1.0000
  H   H2671     1.0  0.60829  0.69948  0.19866  1.0000
  C   C1565     1.0  0.96469  0.70703  0.06304  1.0000
  H   H2672     1.0  0.81696  0.93816  0.05599  1.0000
  C   C1566     1.0  0.67397  0.84275  0.20659  1.0000
  C   C1567     1.0  0.53788  0.68166  0.09105  1.0000
  H   H2673     1.0  0.53263  0.68048  0.20525  1.0000
  C   C1568     1.0  0.91413  0.66092  0.20515  1.0000
  C   C1569     1.0  0.78429  0.68920  0.98520  1.0000
  H   H2674     1.0  0.70091  0.83151  0.00311  1.0000
  C   C1570     1.0  0.69265  0.92894  0.17034  1.0000
  H   H2675     1.0  0.93861  0.75990  0.17005  1.0000
  H   H2676     1.0  0.71255  0.88200  0.16068  1.0000
  C   C1571     1.0  0.73592  0.91191  0.21836  1.0000
  H   H2677     1.0  0.94680  0.79427  0.18707  1.0000
  C   C1572     1.0  0.69967  0.69920  0.21984  1.0000
  C   C1573     1.0  0.56977  0.67103  0.17022  1.0000
  N   N114      1.0  0.94725  0.71074  0.21628  1.0000
  Fe  Fe218     1.0  0.65576  0.65720  0.12176  1.0000
  H   H2678     1.0  0.62433  0.75843  0.19893  1.0000
  C   C1574     1.0  0.51953  0.83212  0.06013  1.0000
  H   H2679     1.0  0.95524  0.98315  0.14269  1.0000
  H   H2680     1.0  0.89467  0.70928  0.20950  1.0000
  H   H2681     1.0  0.71226  0.75093  0.20836  1.0000
  H   H2682     1.0  0.54331  0.67122  0.02990  1.0000
  H   H2683     1.0  0.68986  0.82033  0.20792  1.0000
  C   C1575     1.0  0.54193  0.65945  0.01077  1.0000
  H   H2684     1.0  0.66923  0.88992  0.22111  1.0000
  H   H2685     1.0  0.50303  0.69399  0.99982  1.0000
  H   H2686     1.0  0.50792  0.87377  0.99554  1.0000
  H   H2687     1.0  0.74856  0.84469  0.22177  1.0000
  C   C1576     1.0  0.98983  0.69753  0.17276  1.0000
  H   H2688     1.0  0.58379  0.65592  0.18543  1.0000
  H   H2689     1.0  0.98892  0.67588  0.21540  1.0000
  H   H2690     1.0  0.90482  0.67276  0.39993  1.0000
  S   S441      1.0  0.87455  0.93034  0.28401  1.0000
  H   H2691     1.0  0.62920  0.73162  0.23022  1.0000
  S   S442      1.0  0.80973  0.95215  0.22636  1.0000
  C   C1577     1.0  0.54884  0.83898  0.33176  1.0000
  C   C1578     1.0  0.74945  0.85727  0.28598  1.0000
  S   S443      1.0  0.85957  0.70269  0.30116  1.0000
  H   H2692     1.0  0.78226  0.74706  0.39070  1.0000
  S   S444      1.0  0.50317  0.69554  0.33373  1.0000
  H   H2693     1.0  0.82814  0.86997  0.30651  1.0000
  S   S445      1.0  0.62325  0.94196  0.39888  1.0000
  H   H2694     1.0  0.87108  0.69977  0.36392  1.0000
  S   S446      1.0  0.71454  0.69667  0.25204  1.0000
  C   C1579     1.0  0.88389  0.65871  0.39361  1.0000
  Fe  Fe219     1.0  0.71747  0.69827  0.41201  1.0000
  S   S447      1.0  0.71275  0.72541  0.36946  1.0000
  C   C1580     1.0  0.53765  0.91025  0.31287  1.0000
  C   C1581     1.0  0.63450  0.82340  0.40993  1.0000
  H   H2695     1.0  0.61230  0.66215  0.38670  1.0000
  S   S448      1.0  0.65311  0.89174  0.33898  1.0000
  N   N115      1.0  0.96943  0.87971  0.45026  1.0000
  H   H2696     1.0  0.69229  0.85901  0.37842  1.0000
  H   H2697     1.0  0.49385  0.82940  0.40374  1.0000
  H   H2698     1.0  0.53400  0.89002  0.46593  1.0000
  C   C1582     1.0  0.88438  0.78174  0.31142  1.0000
  C   C1583     1.0  0.93893  0.69651  0.24695  1.0000
  H   H2699     1.0  0.58684  0.85453  0.37081  1.0000
  C   C1584     1.0  0.97859  0.88768  0.41882  1.0000
  C   C1585     1.0  0.90754  0.89977  0.44769  1.0000
  Fe  Fe220     1.0  0.53043  0.74395  0.33146  1.0000
  S   S449      1.0  0.55612  0.75272  0.36813  1.0000
  H   H2700     1.0  0.67194  0.78727  0.42121  1.0000
  S   S450      1.0  0.54913  0.74706  0.28508  1.0000
  H   H2701     1.0  0.56360  0.89788  0.39629  1.0000
  H   H2702     1.0  0.54478  0.93686  0.30704  1.0000
  C   C1586     1.0  0.71188  0.89371  0.43038  1.0000
  S   S451      1.0  0.95002  0.76673  0.40956  1.0000
  C   C1587     1.0  0.71491  0.81151  0.37486  1.0000
  H   H2703     1.0  0.72135  0.81155  0.28899  1.0000
  H   H2704     1.0  0.61497  0.67512  0.33503  1.0000
  C   C1588     1.0  0.77825  0.66432  0.33015  1.0000
  H   H2705     1.0  0.52367  0.87617  0.40924  1.0000
  C   C1589     1.0  0.85834  0.68442  0.38338  1.0000
  H   H2706     1.0  0.71477  0.66444  0.31515  1.0000
  H   H2707     1.0  0.58952  0.67435  0.27803  1.0000
  Fe  Fe221     1.0  0.51644  0.70159  0.28699  1.0000
  H   H2708     1.0  0.95748  0.73248  0.27125  1.0000
  N   N116      1.0  0.83436  0.80525  0.34337  1.0000
  Fe  Fe222     1.0  0.97894  0.75519  0.36909  1.0000
  S   S452      1.0  0.76653  0.67479  0.42064  1.0000
  H   H2709     1.0  0.57881  0.90039  0.33712  1.0000
  H   H2710     1.0  0.93138  0.84595  0.23057  1.0000
  C   C1590     1.0  0.66951  0.73368  0.36826  1.0000
  C   C1591     1.0  0.64705  0.73380  0.39336  1.0000
  C   C1592     1.0  0.61262  0.74089  0.39279  1.0000
  C   C1593     1.0  0.60003  0.74638  0.36723  1.0000
  C   C1594     1.0  0.62234  0.74613  0.34197  1.0000
  C   C1595     1.0  0.65726  0.74019  0.34249  1.0000
  H   H2711     1.0  0.65622  0.72872  0.41331  1.0000
  H   H2712     1.0  0.59551  0.74142  0.41234  1.0000
  H   H2713     1.0  0.61278  0.75051  0.32212  1.0000
  H   H2714     1.0  0.67464  0.74005  0.32300  1.0000
  S   S453      1.0  0.84624  0.77404  0.24357  1.0000
  S   S454      1.0  0.81194  0.70371  0.23544  1.0000
  C   C1596     1.0  0.80143  0.76764  0.38637  1.0000
  S   S455      1.0  0.59916  0.97019  0.33808  1.0000
  C   C1597     1.0  0.81919  0.86682  0.32951  1.0000
  H   H2715     1.0  0.66855  0.86390  0.45244  1.0000
  Fe  Fe223     1.0  0.82706  0.72711  0.27071  1.0000
  H   H2716     1.0  0.49301  0.88259  0.37291  1.0000
  Fe  Fe224     1.0  0.85547  0.96061  0.24672  1.0000
  H   H2717     1.0  0.83553  0.67281  0.37789  1.0000
  C   C1598     1.0  0.72082  0.83635  0.29453  1.0000
  C   C1599     1.0  0.69142  0.84744  0.31051  1.0000
  C   C1600     1.0  0.69039  0.87944  0.31820  1.0000
  H   H2718     1.0  0.90602  0.79331  0.31862  1.0000
  H   H2719     1.0  0.66951  0.83094  0.31725  1.0000
  C   C1601     1.0  0.90120  0.89610  0.27905  1.0000
  C   C1602     1.0  0.90692  0.88358  0.25337  1.0000
  C   C1603     1.0  0.92768  0.85585  0.25034  1.0000
  C   C1604     1.0  0.94293  0.84042  0.27289  1.0000
  C   C1605     1.0  0.93774  0.85335  0.29842  1.0000
  C   C1606     1.0  0.91684  0.88097  0.30149  1.0000
  H   H2720     1.0  0.96368  0.75742  0.22715  1.0000
  H   H2721     1.0  0.72847  0.79539  0.43070  1.0000
  H   H2722     1.0  0.94943  0.84179  0.31592  1.0000
  H   H2723     1.0  0.91263  0.89057  0.32138  1.0000
  H   H2724     1.0  0.80029  0.66810  0.34104  1.0000
  C   C1607     1.0  0.55053  0.89732  0.34069  1.0000
  C   C1608     1.0  0.81603  0.77262  0.35466  1.0000
  H   H2725     1.0  0.83908  0.87592  0.34043  1.0000
  C   C1609     1.0  0.70897  0.84226  0.39012  1.0000
  H   H2726     1.0  0.54118  0.91484  0.35571  1.0000
  H   H2727     1.0  0.74608  0.83510  0.43103  1.0000
  H   H2728     1.0  0.83510  0.66636  0.43724  1.0000
  H   H2729     1.0  0.84361  0.82574  0.38041  1.0000
  H   H2730     1.0  0.79136  0.83229  0.36178  1.0000
  C   C1610     1.0  0.74837  0.88930  0.29355  1.0000
  H   H2731     1.0  0.78883  0.82401  0.32729  1.0000
  H   H2732     1.0  0.73393  0.85571  0.38684  1.0000
  H   H2733     1.0  0.66529  0.88054  0.41748  1.0000
  H   H2734     1.0  0.71857  0.92507  0.31536  1.0000
  N   N117      1.0  0.54004  0.86237  0.35316  1.0000
  Fe  Fe225     1.0  0.76188  0.72800  0.24679  1.0000
  C   C1611     1.0  0.71323  0.81509  0.46908  1.0000
  H   H2735     1.0  0.97518  0.94698  0.23059  1.0000
  C   C1612     1.0  0.80700  0.83094  0.34102  1.0000
  H   H2736     1.0  0.52546  0.72945  0.22835  1.0000
  C   C1613     1.0  0.55122  0.87308  0.40211  1.0000
  C   C1614     1.0  0.85826  0.81549  0.36214  1.0000
  C   C1615     1.0  0.98793  0.92446  0.40802  1.0000
  H   H2737     1.0  0.82152  0.76038  0.39947  1.0000
  C   C1616     1.0  0.86954  0.66100  0.29990  1.0000
  H   H2738     1.0  0.72941  0.81896  0.35354  1.0000
  H   H2739     1.0  0.91255  0.70311  0.25560  1.0000
  H   H2740     1.0  0.96290  0.69587  0.41039  1.0000
  H   H2741     1.0  0.56205  0.86064  0.42045  1.0000
  S   S456      1.0  0.52530  0.96252  0.39836  1.0000
  H   H2742     1.0  0.61589  0.95461  0.47081  1.0000
  H   H2743     1.0  0.97024  0.97378  0.30815  1.0000
  C   C1617     1.0  0.55876  0.85232  0.37766  1.0000
  H   H2744     1.0  0.79718  0.88351  0.33259  1.0000
  H   H2745     1.0  0.93725  0.83840  0.44557  1.0000
  H   H2746     1.0  0.55383  0.82574  0.38618  1.0000
  C   C1618     1.0  0.85264  0.80354  0.31402  1.0000
  Fe  Fe226     1.0  0.64366  0.94250  0.35287  1.0000
  H   H2747     1.0  0.59035  0.86279  0.46124  1.0000
  H   H2748     1.0  0.90897  0.79561  0.36639  1.0000
  H   H2749     1.0  0.87998  0.75658  0.32288  1.0000
  H   H2750     1.0  0.60265  0.82700  0.33479  1.0000
  C   C1619     1.0  0.71904  0.90034  0.30968  1.0000
  C   C1620     1.0  0.68327  0.86801  0.43082  1.0000
  H   H2751     1.0  0.79445  0.76910  0.34294  1.0000
  C   C1621     1.0  0.94165  0.73251  0.43584  1.0000
  H   H2752     1.0  0.55429  0.65761  0.44891  1.0000
  C   C1622     1.0  0.59072  0.66578  0.34840  1.0000
  H   H2753     1.0  0.87846  0.78712  0.39757  1.0000
  H   H2754     1.0  0.59432  0.75899  0.23099  1.0000
  H   H2755     1.0  0.78859  0.78961  0.39366  1.0000
  H   H2756     1.0  0.62248  0.84596  0.41691  1.0000
  H   H2757     1.0  0.57733  0.69949  0.22911  1.0000
  H   H2758     1.0  0.53675  0.67115  0.38938  1.0000
  H   H2759     1.0  0.87755  0.76356  0.36943  1.0000
  H   H2760     1.0  0.89266  0.77921  0.28893  1.0000
  H   H2761     1.0  0.83464  0.79488  0.30091  1.0000
  C   C1623     1.0  0.88177  0.78870  0.37427  1.0000
  S   S457      1.0  0.70816  0.72067  0.45221  1.0000
  C   C1624     1.0  0.58688  0.83788  0.31895  1.0000
  H   H2762     1.0  0.50948  0.90830  0.31480  1.0000
  H   H2763     1.0  0.87533  0.83614  0.35064  1.0000
  S   S458      1.0  0.77570  0.74737  0.28465  1.0000
  H   H2764     1.0  0.72606  0.90091  0.40891  1.0000
  H   H2765     1.0  0.89609  0.87458  0.45072  1.0000
  H   H2766     1.0  0.75719  0.67924  0.33933  1.0000
  H   H2767     1.0  0.59749  0.86244  0.30893  1.0000
  H   H2768     1.0  0.83225  0.75111  0.35078  1.0000
  H   H2769     1.0  0.86200  0.82829  0.30324  1.0000
  H   H2770     1.0  0.78593  0.67424  0.30772  1.0000
  C   C1625     1.0  0.94589  0.67403  0.45341  1.0000
  H   H2771     1.0  0.77036  0.90574  0.28685  1.0000
  S   S459      1.0  0.96777  0.80482  0.26849  1.0000
  H   H2772     1.0  0.75241  0.90023  0.23343  1.0000
  H   H2773     1.0  0.91177  0.90992  0.42507  1.0000
  H   H2774     1.0  0.69307  0.86128  0.24073  1.0000
  C   C1626     1.0  0.92700  0.73815  0.46269  1.0000
  H   H2775     1.0  0.61437  0.80372  0.41457  1.0000
  S   S460      1.0  0.95316  0.73548  0.33680  1.0000
  H   H2776     1.0  0.69056  0.80033  0.37180  1.0000
  C   C1627     1.0  0.95735  0.84416  0.45796  1.0000
  C   C1628     1.0  0.66417  0.81231  0.42606  1.0000
  H   H2777     1.0  0.54077  0.69473  0.43023  1.0000
  N   N118      1.0  0.69455  0.83568  0.42098  1.0000
  S   S461      1.0  0.50378  0.81836  0.24631  1.0000
  H   H2778     1.0  0.69659  0.91481  0.25528  1.0000
  H   H2779     1.0  0.70007  0.91651  0.43733  1.0000
  C   C1629     1.0  0.95124  0.70038  0.43109  1.0000
  H   H2780     1.0  0.54141  0.81336  0.34116  1.0000
  Fe  Fe227     1.0  0.50049  0.77453  0.28038  1.0000
  H   H2781     1.0  0.58376  0.68170  0.42197  1.0000
  Fe  Fe228     1.0  0.75473  0.69296  0.46253  1.0000
  C   C1630     1.0  0.72193  0.82020  0.43670  1.0000
  H   H2782     1.0  0.96640  0.93714  0.39908  1.0000
  H   H2783     1.0  0.81696  0.98072  0.43831  1.0000
  C   C1631     1.0  0.55705  0.67278  0.42794  1.0000
  H   H2784     1.0  0.72987  0.88512  0.44511  1.0000
  H   H2785     1.0  0.64230  0.82758  0.38683  1.0000
  S   S462      1.0  0.78689  0.84450  0.26570  1.0000
  C   C1632     1.0  0.94039  0.90097  0.46101  1.0000
  H   H2786     1.0  0.91963  0.75512  0.22446  1.0000
  Fe  Fe229     1.0  0.58101  0.97237  0.38364  1.0000
  H   H2787     1.0  0.57534  0.68759  0.35276  1.0000
  H   H2788     1.0  0.85066  0.70162  0.39892  1.0000
  H   H2789     1.0  0.89477  0.89486  0.23602  1.0000
  C   C1633     1.0  0.96284  0.70702  0.26653  1.0000
  Fe  Fe230     1.0  0.79303  0.79256  0.25425  1.0000
  H   H2790     1.0  0.65284  0.80851  0.44865  1.0000
  H   H2791     1.0  0.95705  0.88062  0.40845  1.0000
  H   H2792     1.0  0.87560  0.66412  0.44838  1.0000
  H   H2793     1.0  0.58947  0.82145  0.30235  1.0000
  H   H2794     1.0  0.72972  0.79232  0.38580  1.0000
  H   H2795     1.0  0.49694  0.80639  0.37450  1.0000
  H   H2796     1.0  0.76735  0.94884  0.46269  1.0000
  C   C1634     1.0  0.96298  0.95966  0.24826  1.0000
  H   H2797     1.0  0.96617  0.94418  0.26824  1.0000
  H   H2798     1.0  0.91958  0.76282  0.46658  1.0000
  H   H2799     1.0  0.53379  0.84422  0.31414  1.0000
  H   H2800     1.0  0.88818  0.91550  0.45830  1.0000
  Fe  Fe231     1.0  0.98535  0.77343  0.30592  1.0000
  H   H2801     1.0  0.54976  0.89740  0.29530  1.0000
  H   H2802     1.0  0.93537  0.96078  0.24688  1.0000
  H   H2803     1.0  0.72299  0.95081  0.24445  1.0000
  C   C1635     1.0  0.50185  0.86087  0.36234  1.0000
  H   H2804     1.0  0.94846  0.92741  0.45816  1.0000
  H   H2805     1.0  0.91039  0.66344  0.32416  1.0000
  H   H2806     1.0  0.67577  0.65847  0.35827  1.0000
  C   C1636     1.0  0.70947  0.93112  0.23647  1.0000
  C   C1637     1.0  0.98465  0.81773  0.45401  1.0000
  H   H2807     1.0  0.95788  0.69066  0.28702  1.0000
  H   H2808     1.0  0.78905  0.77547  0.46484  1.0000
  H   H2809     1.0  0.97204  0.79304  0.45926  1.0000
  H   H2810     1.0  0.74648  0.97434  0.43678  1.0000
  Fe  Fe232     1.0  0.67987  0.67265  0.46888  1.0000
  S   S463      1.0  0.67561  0.98884  0.35003  1.0000
  H   H2811     1.0  0.93916  0.66911  0.24978  1.0000
  H   H2812     1.0  0.92271  0.98596  0.28624  1.0000
  C   C1638     1.0  0.74852  0.96862  0.45941  1.0000
  H   H2813     1.0  0.99018  0.70481  0.25805  1.0000
  H   H2814     1.0  0.72328  0.95826  0.47022  1.0000
  H   H2815     1.0  0.68990  0.94321  0.22486  1.0000
  H   H2816     1.0  0.87275  0.98831  0.44952  1.0000
  S   S464      1.0  0.52372  0.65614  0.26554  1.0000
  Fe  Fe233     1.0  0.68403  0.81013  0.58966  1.0000
  S   S465      1.0  0.63536  0.83530  0.58237  1.0000
  S   S466      1.0  0.68598  0.76310  0.61959  1.0000
  Fe  Fe234     1.0  0.72807  0.85897  0.54523  1.0000
  S   S467      1.0  0.68306  0.88769  0.53416  1.0000
  S   S468      1.0  0.77991  0.87323  0.52074  1.0000
  Fe  Fe235     1.0  0.66605  0.88177  0.58064  1.0000
  S   S469      1.0  0.64300  0.92610  0.59753  1.0000
  Fe  Fe236     1.0  0.65719  0.83863  0.53673  1.0000
  S   S470      1.0  0.62834  0.83017  0.50208  1.0000
  S   S471      1.0  0.71343  0.85660  0.59189  1.0000
  S   S472      1.0  0.70380  0.80971  0.54386  1.0000
  C   C1639     1.0  0.85310  0.79844  0.49883  1.0000
  H   H2817     1.0  0.69107  0.73068  0.67926  1.0000
  H   H2818     1.0  0.78270  0.67539  0.58393  1.0000
  S   S473      1.0  0.89567  0.81119  0.58246  1.0000
  N   N119      1.0  0.67026  0.74541  0.71942  1.0000
  H   H2819     1.0  0.52346  0.81153  0.70605  1.0000
  S   S474      1.0  0.94711  0.86776  0.54269  1.0000
  H   H2820     1.0  0.52725  0.66353  0.54771  1.0000
  Fe  Fe237     1.0  0.93419  0.84883  0.58903  1.0000
  C   C1640     1.0  0.84960  0.94614  0.51815  1.0000
  Fe  Fe238     1.0  0.91209  0.82687  0.53634  1.0000
  S   S475      1.0  0.87465  0.83385  0.50521  1.0000
  C   C1641     1.0  0.54382  0.87856  0.48447  1.0000
  H   H2821     1.0  0.56672  0.74428  0.66625  1.0000
  H   H2822     1.0  0.78925  0.81299  0.56191  1.0000
  H   H2823     1.0  0.70215  0.78564  0.69491  1.0000
  H   H2824     1.0  0.54612  0.92983  0.55239  1.0000
  H   H2825     1.0  0.57130  0.98383  0.48511  1.0000
  H   H2826     1.0  0.94534  0.83941  0.48043  1.0000
  H   H2827     1.0  0.88247  0.76445  0.52281  1.0000
  C   C1642     1.0  0.80953  0.77307  0.47727  1.0000
  C   C1643     1.0  0.92071  0.75966  0.67345  1.0000
  C   C1644     1.0  0.92132  0.75540  0.64536  1.0000
  C   C1645     1.0  0.56394  0.94986  0.55505  1.0000
  H   H2828     1.0  0.54845  0.94687  0.50088  1.0000
  C   C1646     1.0  0.94943  0.70762  0.68161  1.0000
  H   H2829     1.0  0.90996  0.78177  0.68096  1.0000
  C   C1647     1.0  0.63751  0.92282  0.69224  1.0000
  H   H2830     1.0  0.94906  0.94163  0.69674  1.0000
  C   C1648     1.0  0.93556  0.73621  0.69135  1.0000
  H   H2831     1.0  0.98677  0.68377  0.52805  1.0000
  H   H2832     1.0  0.79640  0.79324  0.59581  1.0000
  H   H2833     1.0  0.64647  0.92714  0.48379  1.0000
  C   C1649     1.0  0.94749  0.89961  0.64062  1.0000
  H   H2834     1.0  0.81504  0.89257  0.69058  1.0000
  C   C1650     1.0  0.77771  0.91463  0.61599  1.0000
  C   C1651     1.0  0.84532  0.73888  0.50493  1.0000
  H   H2835     1.0  0.90933  0.91012  0.67475  1.0000
  H   H2836     1.0  0.59724  0.79349  0.71456  1.0000
  C   C1652     1.0  0.79855  0.91119  0.52429  1.0000
  C   C1653     1.0  0.77966  0.93532  0.53739  1.0000
  H   H2837     1.0  0.55468  0.72079  0.59912  1.0000
  H   H2838     1.0  0.87667  0.94949  0.51135  1.0000
  H   H2839     1.0  0.81676  0.93410  0.67351  1.0000
  C   C1654     1.0  0.83334  0.91703  0.51425  1.0000
  H   H2840     1.0  0.75269  0.93113  0.54500  1.0000
  H   H2841     1.0  0.53707  0.77107  0.61974  1.0000
  H   H2842     1.0  0.50966  0.70138  0.53386  1.0000
  H   H2843     1.0  0.54530  0.73988  0.49822  1.0000
  C   C1655     1.0  0.58857  0.84903  0.50578  1.0000
  C   C1656     1.0  0.56982  0.85024  0.53244  1.0000
  C   C1657     1.0  0.53752  0.86455  0.53507  1.0000
  C   C1658     1.0  0.52453  0.87875  0.51109  1.0000
  H   H2844     1.0  0.51752  0.96279  0.58155  1.0000
  H   H2845     1.0  0.58229  0.93706  0.56799  1.0000
  H   H2846     1.0  0.57980  0.83969  0.55105  1.0000
  H   H2847     1.0  0.81508  0.96418  0.63202  1.0000
  H   H2848     1.0  0.64857  0.96938  0.48885  1.0000
  H   H2849     1.0  0.95322  0.81262  0.70870  1.0000
  C   C1659     1.0  0.59198  0.69885  0.65869  1.0000
  C   C1660     1.0  0.58979  0.73335  0.65688  1.0000
  C   C1661     1.0  0.61771  0.75372  0.64299  1.0000
  C   C1662     1.0  0.64819  0.73948  0.63194  1.0000
  C   C1663     1.0  0.64989  0.70511  0.63332  1.0000
  C   C1664     1.0  0.62166  0.68498  0.64597  1.0000
  H   H2850     1.0  0.61002  0.72447  0.58585  1.0000
  H   H2851     1.0  0.61623  0.78030  0.64208  1.0000
  H   H2852     1.0  0.67326  0.69388  0.62488  1.0000
  H   H2853     1.0  0.87549  0.94342  0.63418  1.0000
  H   H2854     1.0  0.64089  0.75431  0.56814  1.0000
  C   C1665     1.0  0.61603  0.94325  0.67747  1.0000
  C   C1666     1.0  0.61815  0.94431  0.64837  1.0000
  C   C1667     1.0  0.64108  0.92420  0.63397  1.0000
  C   C1668     1.0  0.66226  0.90323  0.64873  1.0000
  C   C1669     1.0  0.66083  0.90290  0.67784  1.0000
  H   H2855     1.0  0.82214  0.96498  0.59510  1.0000
  H   H2856     1.0  0.75457  0.69990  0.65390  1.0000
  H   H2857     1.0  0.67991  0.88756  0.63775  1.0000
  C   C1670     1.0  0.86219  0.76706  0.51014  1.0000
  N   N120      1.0  0.79290  0.72781  0.58416  1.0000
  C   C1671     1.0  0.78557  0.75951  0.56623  1.0000
  C   C1672     1.0  0.78034  0.69963  0.57104  1.0000
  C   C1673     1.0  0.77563  0.72884  0.61402  1.0000
  C   C1674     1.0  0.57556  0.86315  0.48180  1.0000
  C   C1675     1.0  0.54470  0.74152  0.58544  1.0000
  H   H2858     1.0  0.75757  0.76363  0.56806  1.0000
  H   H2859     1.0  0.76143  0.96642  0.61184  1.0000
  H   H2860     1.0  0.79659  0.69765  0.55046  1.0000
  H   H2861     1.0  0.79430  0.75819  0.54356  1.0000
  H   H2862     1.0  0.75270  0.74449  0.61450  1.0000
  H   H2863     1.0  0.85084  0.83080  0.72180  1.0000
  C   C1676     1.0  0.82673  0.80145  0.48227  1.0000
  H   H2864     1.0  0.52311  0.86540  0.55570  1.0000
  H   H2865     1.0  0.53776  0.78898  0.54176  1.0000
  H   H2866     1.0  0.70800  0.83862  0.47775  1.0000
  H   H2867     1.0  0.57772  0.77832  0.59825  1.0000
  H   H2868     1.0  0.77374  0.91528  0.59374  1.0000
  S   S476      1.0  0.62803  0.67048  0.49493  1.0000
  H   H2869     1.0  0.67726  0.88685  0.68926  1.0000
  H   H2870     1.0  0.50821  0.97764  0.53082  1.0000
  H   H2871     1.0  0.82777  0.84658  0.60808  1.0000
  H   H2872     1.0  0.52663  0.77977  0.49517  1.0000
  H   H2873     1.0  0.60553  0.75435  0.52554  1.0000
  H   H2874     1.0  0.87260  0.86937  0.71935  1.0000
  C   C1677     1.0  0.98173  0.90418  0.62839  1.0000
  N   N121      1.0  0.55906  0.74153  0.55479  1.0000
  H   H2875     1.0  0.59347  0.91626  0.51570  1.0000
  H   H2876     1.0  0.88849  0.83891  0.69666  1.0000
  C   C1678     1.0  0.54589  0.76455  0.50522  1.0000
  H   H2877     1.0  0.78129  0.98308  0.55156  1.0000
  H   H2878     1.0  0.88243  0.94820  0.59598  1.0000
  N   N122      1.0  0.81547  0.91568  0.61811  1.0000
  H   H2879     1.0  0.82885  0.79345  0.56486  1.0000
  H   H2880     1.0  0.55569  0.97395  0.59329  1.0000
  H   H2881     1.0  0.50396  0.84714  0.69130  1.0000
  C   C1679     1.0  0.94977  0.70322  0.65348  1.0000
  H   H2882     1.0  0.84396  0.72727  0.56101  1.0000
  H   H2883     1.0  0.93292  0.89428  0.48419  1.0000
  S   S477      1.0  0.91808  0.87798  0.62545  1.0000
  H   H2884     1.0  0.83812  0.69401  0.62220  1.0000
  H   H2885     1.0  0.78370  0.67700  0.63246  1.0000
  H   H2886     1.0  0.83542  0.67108  0.59278  1.0000
  C   C1680     1.0  0.86686  0.95603  0.61486  1.0000
  S   S478      1.0  0.93349  0.98776  0.48424  1.0000
  H   H2887     1.0  0.85258  0.71457  0.51373  1.0000
  H   H2888     1.0  0.62144  0.74248  0.70415  1.0000
  H   H2889     1.0  0.70982  0.71071  0.70801  1.0000
  C   C1681     1.0  0.81882  0.74165  0.48882  1.0000
  H   H2890     1.0  0.91082  0.77417  0.63147  1.0000
  S   S479      1.0  0.50782  0.98490  0.67907  1.0000
  C   C1682     1.0  0.53686  0.76305  0.53743  1.0000
  H   H2891     1.0  0.94190  0.85312  0.69585  1.0000
  C   C1683     1.0  0.83109  0.72549  0.58309  1.0000
  C   C1684     1.0  0.83470  0.90017  0.59401  1.0000
  C   C1685     1.0  0.80111  0.79139  0.57301  1.0000
  C   C1686     1.0  0.82244  0.89586  0.64512  1.0000
  H   H2892     1.0  0.72822  0.93695  0.62628  1.0000
  C   C1687     1.0  0.93624  0.72747  0.63527  1.0000
  H   H2893     1.0  0.83700  0.85828  0.57087  1.0000
  C   C1688     1.0  0.74307  0.70212  0.56529  1.0000
  C   C1689     1.0  0.93588  0.91319  0.66535  1.0000
  H   H2894     1.0  0.75809  0.94718  0.64795  1.0000
  S   S480      1.0  0.95346  0.78979  0.53246  1.0000
  H   H2895     1.0  0.77891  0.90810  0.67564  1.0000
  H   H2896     1.0  0.79255  0.74119  0.62596  1.0000
  S   S481      1.0  0.55842  0.67196  0.67624  1.0000
  S   S482      1.0  0.94066  0.72472  0.59942  1.0000
  C   C1690     1.0  0.59514  0.75505  0.54806  1.0000
  H   H2897     1.0  0.85033  0.89355  0.64522  1.0000
  C   C1691     1.0  0.62133  0.73649  0.56470  1.0000
  H   H2898     1.0  0.59633  0.78177  0.55014  1.0000
  C   C1692     1.0  0.79589  0.96469  0.54108  1.0000
  H   H2899     1.0  0.84802  0.89848  0.50414  1.0000
  C   C1693     1.0  0.80717  0.90891  0.67250  1.0000
  C   C1694     1.0  0.75553  0.94300  0.62637  1.0000
  H   H2900     1.0  0.57098  0.77693  0.49704  1.0000
  C   C1695     1.0  0.82249  0.86533  0.59059  1.0000
  H   H2901     1.0  0.86226  0.89786  0.59575  1.0000
  Fe  Fe239     1.0  0.98745  0.82874  0.54272  1.0000
  H   H2902     1.0  0.84157  0.74647  0.59174  1.0000
  H   H2903     1.0  0.51663  0.73706  0.58897  1.0000
  C   C1696     1.0  0.66377  0.68787  0.70356  1.0000
  H   H2904     1.0  0.79517  0.86422  0.58826  1.0000
  H   H2905     1.0  0.59765  0.95837  0.68834  1.0000
  H   H2906     1.0  0.87232  0.98285  0.61383  1.0000
  N   N123      1.0  0.58245  0.96513  0.52663  1.0000
  C   C1697     1.0  0.60741  0.93944  0.51705  1.0000
  H   H2907     1.0  0.83369  0.91617  0.57379  1.0000
  C   C1698     1.0  0.50767  0.83286  0.71161  1.0000
  H   H2908     1.0  0.50946  0.75546  0.54346  1.0000
  C   C1699     1.0  0.68524  0.71970  0.70181  1.0000
  H   H2909     1.0  0.53944  0.79540  0.58607  1.0000
  H   H2910     1.0  0.57378  0.69039  0.56256  1.0000
  C   C1700     1.0  0.55927  0.70651  0.54827  1.0000
  H   H2911     1.0  0.62445  0.93196  0.53292  1.0000
  H   H2912     1.0  0.73392  0.67756  0.56180  1.0000
  C   C1701     1.0  0.52384  0.68991  0.55060  1.0000
  C   C1702     1.0  0.93097  0.68003  0.48028  1.0000
  H   H2913     1.0  0.74736  0.74974  0.70968  1.0000
  C   C1703     1.0  0.92241  0.71215  0.48483  1.0000
  H   H2914     1.0  0.81257  0.87007  0.64704  1.0000
  S   S483      1.0  0.79761  0.70472  0.48557  1.0000
  C   C1704     1.0  0.95839  0.93078  0.67800  1.0000
  C   C1705     1.0  0.82822  0.95100  0.61506  1.0000
  H   H2915     1.0  0.91248  0.71695  0.50584  1.0000
  H   H2916     1.0  0.63423  0.71727  0.55292  1.0000
  H   H2917     1.0  0.95984  0.68897  0.69575  1.0000
  C   C1706     1.0  0.87661  0.84271  0.71816  1.0000
  Fe  Fe240     1.0  0.94001  0.77713  0.57888  1.0000
  C   C1707     1.0  0.84433  0.69417  0.59915  1.0000
  H   H2918     1.0  0.64891  0.77385  0.68548  1.0000
  C   C1708     1.0  0.55807  0.97083  0.50551  1.0000
  S   S484      1.0  0.97713  0.81302  0.58920  1.0000
  H   H2919     1.0  0.57326  0.70497  0.52681  1.0000
  H   H2920     1.0  0.96921  0.98708  0.60096  1.0000
  H   H2921     1.0  0.97858  0.72430  0.51008  1.0000
  Fe  Fe241     1.0  0.52792  0.68293  0.71711  1.0000
  C   C1709     1.0  0.64030  0.76100  0.70717  1.0000
  H   H2922     1.0  0.74148  0.71939  0.54576  1.0000
  H   H2923     1.0  0.51109  0.94507  0.63413  1.0000
  C   C1710     1.0  0.76341  0.69558  0.63189  1.0000
  H   H2924     1.0  0.76559  0.89088  0.62707  1.0000
  H   H2925     1.0  0.81928  0.82580  0.47374  1.0000
  H   H2926     1.0  0.60151  0.96035  0.63712  1.0000
  C   C1711     1.0  0.55033  0.77364  0.59766  1.0000
  H   H2927     1.0  0.96155  0.68177  0.64570  1.0000
  C   C1712     1.0  0.83100  0.97003  0.53168  1.0000
  C   C1713     1.0  0.69674  0.77270  0.71692  1.0000
  H   H2928     1.0  0.94122  0.97955  0.63328  1.0000
  H   H2929     1.0  0.50821  0.69038  0.57149  1.0000
  H   H2930     1.0  0.67526  0.67353  0.68676  1.0000
  C   C1714     1.0  0.63060  0.94876  0.48846  1.0000
  H   H2931     1.0  0.63703  0.69242  0.70048  1.0000
  H   H2932     1.0  0.61525  0.98665  0.57000  1.0000
  H   H2933     1.0  0.87267  0.69443  0.59419  1.0000
  C   C1715     1.0  0.54377  0.97304  0.57411  1.0000
  H   H2934     1.0  0.69133  0.79772  0.47675  1.0000
  H   H2935     1.0  0.81481  0.97549  0.47537  1.0000
  H   H2936     1.0  0.90304  0.98211  0.68819  1.0000
  H   H2937     1.0  0.72554  0.71047  0.58293  1.0000
  H   H2938     1.0  0.73544  0.80409  0.47816  1.0000
  H   H2939     1.0  0.62342  0.65839  0.64705  1.0000
  H   H2940     1.0  0.64861  0.97800  0.54212  1.0000
  C   C1716     1.0  0.95310  0.83863  0.71312  1.0000
  H   H2941     1.0  0.74122  0.68504  0.62449  1.0000
  H   H2942     1.0  0.65395  0.85548  0.79674  1.0000
  S   S485      1.0  0.70505  0.79662  0.78839  1.0000
  Fe  Fe242     1.0  0.86226  0.96384  0.84640  1.0000
  S   S486      1.0  0.89241  0.94552  0.80880  1.0000
  S   S487      1.0  0.87346  0.95940  0.89066  1.0000
  C   C1717     1.0  0.50139  0.84971  0.80194  1.0000
  C   C1718     1.0  0.98159  0.66519  0.90679  1.0000
  H   H2943     1.0  0.51109  0.70569  0.88907  1.0000
  Fe  Fe243     1.0  0.84230  0.92436  0.80265  1.0000
  S   S488      1.0  0.84236  0.87110  0.79541  1.0000
  H   H2944     1.0  0.95568  0.89640  0.95476  1.0000
  H   H2945     1.0  0.66438  0.67164  0.72375  1.0000
  S   S489      1.0  0.81349  0.93947  0.84199  1.0000
  C   C1719     1.0  0.95034  0.71708  0.91381  1.0000
  H   H2946     1.0  0.79829  0.94668  0.91706  1.0000
  C   C1720     1.0  0.92737  0.87683  0.74600  1.0000
  Fe  Fe244     1.0  0.63867  0.90252  0.92146  1.0000
  C   C1721     1.0  0.77165  0.95443  0.92390  1.0000
  S   S490      1.0  0.64640  0.90476  0.87503  1.0000
  C   C1722     1.0  0.74006  0.97806  0.75230  1.0000
  H   H2947     1.0  0.98013  0.87928  0.75729  1.0000
  C   C1723     1.0  0.74764  0.93633  0.90840  1.0000
  C   C1724     1.0  0.49923  0.78977  0.81140  1.0000
  H   H2948     1.0  0.76214  0.97522  0.73579  1.0000
  S   S491      1.0  0.93940  0.74462  0.72491  1.0000
  S   S492      1.0  0.54047  0.66767  0.76076  1.0000
  C   C1725     1.0  0.66135  0.73098  0.74993  1.0000
  H   H2949     1.0  0.77237  0.77360  0.79479  1.0000
  H   H2950     1.0  0.55088  0.83809  0.83648  1.0000
  S   S493      1.0  0.56367  0.94442  0.78848  1.0000
  H   H2951     1.0  0.57531  0.95659  0.88078  1.0000
  S   S494      1.0  0.49531  0.97917  0.76664  1.0000
  C   C1726     1.0  0.94703  0.82040  0.76420  1.0000
  C   C1727     1.0  0.98146  0.66967  0.87470  1.0000
  H   H2952     1.0  0.59809  0.78910  0.88785  1.0000
  H   H2953     1.0  0.94800  0.73848  0.92583  1.0000
  H   H2954     1.0  0.63359  0.68397  0.76551  1.0000
  S   S495      1.0  0.62220  0.70172  0.89905  1.0000
  H   H2955     1.0  0.51226  0.91533  0.91532  1.0000
  H   H2956     1.0  0.59103  0.75254  0.83767  1.0000
  H   H2957     1.0  0.56667  0.66114  0.94251  1.0000
  H   H2958     1.0  0.75322  0.94267  0.88530  1.0000
  C   C1728     1.0  0.58773  0.76282  0.95526  1.0000
  C   C1729     1.0  0.63823  0.98531  0.80290  1.0000
  Fe  Fe245     1.0  0.80505  0.98664  0.81465  1.0000
  H   H2959     1.0  0.61087  0.71045  0.74276  1.0000
  H   H2960     1.0  0.95367  0.72836  0.89132  1.0000
  H   H2961     1.0  0.76516  0.94352  0.94628  1.0000
  H   H2962     1.0  0.84579  0.68793  0.89782  1.0000
  H   H2963     1.0  0.52001  0.93055  0.85023  1.0000
  C   C1730     1.0  0.72552  0.98383  0.83576  1.0000
  H   H2964     1.0  0.59067  0.80929  0.81372  1.0000
  S   S496      1.0  0.93007  0.81858  0.92758  1.0000
  H   H2965     1.0  0.75123  0.90930  0.91310  1.0000
  C   C1731     1.0  0.91527  0.69893  0.92068  1.0000
  C   C1732     1.0  0.88637  0.91907  0.90089  1.0000
  C   C1733     1.0  0.88239  0.90601  0.92941  1.0000
  C   C1734     1.0  0.89463  0.87446  0.93766  1.0000
  C   C1735     1.0  0.91172  0.85644  0.91741  1.0000
  C   C1736     1.0  0.91501  0.86922  0.88893  1.0000
  C   C1737     1.0  0.90206  0.90033  0.88069  1.0000
  H   H2966     1.0  0.94412  0.80788  0.80950  1.0000
  S   S497      1.0  0.73972  0.70619  0.80146  1.0000
  H   H2967     1.0  0.92786  0.85533  0.87313  1.0000
  H   H2968     1.0  0.90572  0.91025  0.85871  1.0000
  S   S498      1.0  0.79707  0.69393  0.85926  1.0000
  C   C1738     1.0  0.55618  0.84170  0.85749  1.0000
  H   H2969     1.0  0.61205  0.77631  0.74621  1.0000
  C   C1739     1.0  0.67684  0.93516  0.86025  1.0000
  C   C1740     1.0  0.70508  0.92719  0.84159  1.0000
  H   H2970     1.0  0.53248  0.96872  0.91551  1.0000
  H   H2971     1.0  0.54485  0.82103  0.87339  1.0000
  H   H2972     1.0  0.70804  0.90224  0.83652  1.0000
  H   H2973     1.0  0.75159  0.94531  0.81521  1.0000
  Fe  Fe246     1.0  0.70389  0.74590  0.81342  1.0000
  H   H2974     1.0  0.58091  0.93406  0.85162  1.0000
  C   C1741     1.0  0.62130  0.73099  0.92248  1.0000
  C   C1742     1.0  0.58958  0.74097  0.93526  1.0000
  C   C1743     1.0  0.51341  0.98049  0.90282  1.0000
  H   H2975     1.0  0.56020  0.91419  0.88476  1.0000
  C   C1744     1.0  0.64944  0.76580  0.94922  1.0000
  C   C1745     1.0  0.65130  0.74356  0.92935  1.0000
  H   H2976     1.0  0.56632  0.73127  0.93006  1.0000
  H   H2977     1.0  0.89885  0.79964  0.73863  1.0000
  C   C1746     1.0  0.89695  0.82637  0.74095  1.0000
  H   H2978     1.0  0.67586  0.73552  0.91989  1.0000
  C   C1747     1.0  0.74306  0.81790  0.78975  1.0000
  C   C1748     1.0  0.74383  0.85251  0.78767  1.0000
  C   C1749     1.0  0.77415  0.86934  0.78957  1.0000
  C   C1750     1.0  0.80386  0.85154  0.79272  1.0000
  C   C1751     1.0  0.80317  0.81708  0.79412  1.0000
  C   C1752     1.0  0.77272  0.80026  0.79318  1.0000
  H   H2979     1.0  0.72087  0.86625  0.78508  1.0000
  H   H2980     1.0  0.77458  0.89597  0.78846  1.0000
  N   N124      1.0  0.81437  0.79985  0.89138  1.0000
  C   C1753     1.0  0.84231  0.77558  0.88470  1.0000
  C   C1754     1.0  0.78943  0.78308  0.91577  1.0000
  C   C1755     1.0  0.83079  0.82928  0.90014  1.0000
  C   C1756     1.0  0.79807  0.80994  0.86539  1.0000
  C   C1757     1.0  0.87305  0.78925  0.86269  1.0000
  C   C1758     1.0  0.77508  0.74944  0.91144  1.0000
  C   C1759     1.0  0.80692  0.85656  0.91002  1.0000
  C   C1760     1.0  0.76051  0.82096  0.86986  1.0000
  H   H2981     1.0  0.85252  0.76506  0.90417  1.0000
  H   H2982     1.0  0.83220  0.75404  0.87646  1.0000
  H   H2983     1.0  0.76724  0.79879  0.92124  1.0000
  H   H2984     1.0  0.80166  0.77860  0.93510  1.0000
  H   H2985     1.0  0.84598  0.82103  0.91721  1.0000
  H   H2986     1.0  0.84930  0.84215  0.88246  1.0000
  H   H2987     1.0  0.81308  0.83042  0.85138  1.0000
  H   H2988     1.0  0.79852  0.78932  0.85249  1.0000
  H   H2989     1.0  0.88850  0.76830  0.85574  1.0000
  H   H2990     1.0  0.86493  0.80355  0.84380  1.0000
  H   H2991     1.0  0.89015  0.80477  0.87189  1.0000
  H   H2992     1.0  0.76814  0.74967  0.89022  1.0000
  H   H2993     1.0  0.79407  0.72984  0.91467  1.0000
  H   H2994     1.0  0.75195  0.74237  0.92712  1.0000
  H   H2995     1.0  0.79735  0.87122  0.89195  1.0000
  H   H2996     1.0  0.82193  0.87418  0.91904  1.0000
  H   H2997     1.0  0.78572  0.84724  0.92681  1.0000
  H   H2998     1.0  0.74282  0.79988  0.87869  1.0000
  H   H2999     1.0  0.75330  0.83085  0.84914  1.0000
  H   H3000     1.0  0.75588  0.84068  0.88332  1.0000
  N   N125      1.0  0.61704  0.81849  0.84791  1.0000
  C   C1761     1.0  0.65330  0.82679  0.85094  1.0000
  C   C1762     1.0  0.61640  0.81602  0.81730  1.0000
  C   C1763     1.0  0.60697  0.78558  0.86561  1.0000
  C   C1764     1.0  0.66189  0.82222  0.88123  1.0000
  C   C1765     1.0  0.62742  0.84738  0.79624  1.0000
  H   H3001     1.0  0.67162  0.81125  0.83905  1.0000
  H   H3002     1.0  0.66024  0.85276  0.84166  1.0000
  H   H3003     1.0  0.63289  0.79549  0.81066  1.0000
  N   N126      1.0  0.93178  0.84124  0.74124  1.0000
  H   H3004     1.0  0.65990  0.75090  0.76360  1.0000
  H   H3005     1.0  0.66715  0.79599  0.88812  1.0000
  H   H3006     1.0  0.68552  0.83661  0.88154  1.0000
  H   H3007     1.0  0.60960  0.86800  0.79930  1.0000
  H   H3008     1.0  0.62687  0.84172  0.77458  1.0000
  H   H3009     1.0  0.97378  0.70973  0.96228  1.0000
  S   S499      1.0  0.67257  0.87233  0.94763  1.0000
  C   C1766     1.0  0.54587  0.81774  0.77876  1.0000
  H   H3010     1.0  0.54544  0.87061  0.77355  1.0000
  H   H3011     1.0  0.57096  0.74382  0.87334  1.0000
  H   H3012     1.0  0.94876  0.90233  0.77650  1.0000
  Fe  Fe247     1.0  0.51444  0.92801  0.77749  1.0000
  H   H3013     1.0  0.90924  0.68785  0.94303  1.0000
  N   N127      1.0  0.50108  0.95664  0.88523  1.0000
  H   H3014     1.0  0.72032  0.94074  0.91569  1.0000
  H   H3015     1.0  0.93019  0.94384  0.95891  1.0000
  H   H3016     1.0  0.93325  0.96029  0.92188  1.0000
  H   H3017     1.0  0.60296  0.86992  0.84521  1.0000
  H   H3018     1.0  0.94785  0.79403  0.76063  1.0000
  H   H3019     1.0  0.67260  0.77495  0.95496  1.0000
  C   C1767     1.0  0.59459  0.84576  0.85787  1.0000
  S   S500      1.0  0.82891  0.96928  0.77451  1.0000
  H   H3020     1.0  0.54243  0.69552  0.84450  1.0000
  C   C1768     1.0  0.52990  0.78852  0.79301  1.0000
  H   H3021     1.0  0.59695  0.84882  0.87984  1.0000
  S   S501      1.0  0.70122  0.65880  0.85770  1.0000
  Fe  Fe248     1.0  0.69379  0.67210  0.81258  1.0000
  C   C1769     1.0  0.82763  0.66758  0.90400  1.0000
  H   H3022     1.0  0.97399  0.82696  0.76407  1.0000
  H   H3023     1.0  0.63204  0.96312  0.81884  1.0000
  H   H3024     1.0  0.76981  0.68352  0.94517  1.0000
  Fe  Fe249     1.0  0.58436  0.94416  0.74317  1.0000
  H   H3025     1.0  0.56309  0.76965  0.96559  1.0000
  H   H3026     1.0  0.82607  0.80320  0.79658  1.0000
  H   H3027     1.0  0.97057  0.94363  0.86429  1.0000
  C   C1770     1.0  0.72977  0.95146  0.82970  1.0000
  C   C1771     1.0  0.76251  0.67931  0.96769  1.0000
  Fe  Fe250     1.0  0.66820  0.70259  0.86541  1.0000
  H   H3028     1.0  0.71967  0.98338  0.94574  1.0000
  C   C1772     1.0  0.52867  0.94993  0.86178  1.0000
  H   H3029     1.0  0.95892  0.68310  0.86842  1.0000
  H   H3030     1.0  0.50153  0.71026  0.83844  1.0000
  H   H3031     1.0  0.65810  0.95560  0.77081  1.0000
  H   H3032     1.0  0.54297  0.86453  0.86283  1.0000
  C   C1773     1.0  0.95723  0.89416  0.75567  1.0000
  H   H3033     1.0  0.90468  0.87919  0.76202  1.0000
  S   S502      1.0  0.58988  0.87968  0.94493  1.0000
  H   H3034     1.0  0.64174  0.83081  0.89686  1.0000
  C   C1774     1.0  0.51467  0.68923  0.84881  1.0000
  S   S503      1.0  0.82311  0.70925  0.96949  1.0000
  C   C1775     1.0  0.53187  0.84825  0.78347  1.0000
  H   H3035     1.0  0.88008  0.82732  0.76125  1.0000
  H   H3036     1.0  0.92570  0.84684  0.79979  1.0000
  C   C1776     1.0  0.49102  0.92444  0.90391  1.0000
  H   H3037     1.0  0.91316  0.67963  0.90704  1.0000
  H   H3038     1.0  0.56978  0.81692  0.76482  1.0000
  S   S504      1.0  0.55068  0.75111  0.79017  1.0000
  H   H3039     1.0  0.89174  0.86455  0.95972  1.0000
  H   H3040     1.0  0.62952  0.76925  0.86599  1.0000
  H   H3041     1.0  0.51123  0.66701  0.83866  1.0000
  H   H3042     1.0  0.98660  0.84369  0.86749  1.0000
  H   H3043     1.0  0.86999  0.92032  0.94513  1.0000
  C   C1777     1.0  0.98510  0.91916  0.90324  1.0000
  H   H3044     1.0  0.90343  0.80860  0.79827  1.0000
  C   C1778     1.0  0.62784  0.71013  0.75875  1.0000
  S   S505      1.0  0.71146  0.73940  0.85851  1.0000
  H   H3045     1.0  0.68224  0.71487  0.75651  1.0000
  H   H3046     1.0  0.55694  0.77786  0.85110  1.0000
  S   S506      1.0  0.63710  0.94634  0.94462  1.0000
  Fe  Fe251     1.0  0.74416  0.69666  0.84726  1.0000
  C   C1779     1.0  0.92867  0.82135  0.79448  1.0000
  C   C1780     1.0  0.98230  0.95966  0.93789  1.0000
  H   H3047     1.0  0.68764  0.96700  0.79178  1.0000
  C   C1781     1.0  0.57977  0.76423  0.85622  1.0000
  H   H3048     1.0  0.65076  0.97353  0.88100  1.0000
  S   S507      1.0  0.98168  0.69465  0.78185  1.0000
  Fe  Fe252     1.0  0.52250  0.71834  0.76800  1.0000
  H   H3049     1.0  0.61256  0.71899  0.77724  1.0000
  C   C1782     1.0  0.80084  0.66469  0.88862  1.0000
  S   S508      1.0  0.65742  0.71289  0.82112  1.0000
  C   C1783     1.0  0.61760  0.77514  0.96241  1.0000
  H   H3050     1.0  0.72892  0.74718  0.74654  1.0000
  C   C1784     1.0  0.67289  0.96737  0.86680  1.0000
  C   C1785     1.0  0.56294  0.93810  0.87071  1.0000
  H   H3051     1.0  0.92147  0.89215  0.72669  1.0000
  H   H3052     1.0  0.96531  0.91678  0.74074  1.0000
  C   C1786     1.0  0.97822  0.68749  0.95141  1.0000
  H   H3053     1.0  0.95751  0.91272  0.90710  1.0000
  C   C1787     1.0  0.94314  0.96228  0.94171  1.0000
  H   H3054     1.0  0.73438  0.95319  0.76458  1.0000
  H   H3055     1.0  0.89497  0.71708  0.91690  1.0000
  H   H3056     1.0  0.52296  0.67453  0.97103  1.0000
  H   H3057     1.0  0.51880  0.66293  0.88975  1.0000
  N   N128      1.0  0.98074  0.69656  0.91998  1.0000
  H   H3058     1.0  0.87537  0.65871  0.84772  1.0000
  H   H3059     1.0  0.95573  0.67089  0.95995  1.0000
  S   S509      1.0  0.53681  0.92241  0.73323  1.0000
  H   H3060     1.0  0.73244  0.76512  0.97051  1.0000
  S   S510      1.0  0.63471  0.92206  0.72868  1.0000
  H   H3061     1.0  0.69964  0.97035  0.72874  1.0000
  Fe  Fe253     1.0  0.90240  0.79610  0.96936  1.0000
  C   C1788     1.0  0.50305  0.68322  0.88095  1.0000
  C   C1789     1.0  0.62058  0.78644  0.72390  1.0000
  Fe  Fe254     1.0  0.98669  0.72294  0.73871  1.0000
  H   H3062     1.0  0.49203  0.98741  0.91849  1.0000
  C   C1790     1.0  0.98365  0.90050  0.95331  1.0000
  H   H3063     1.0  0.74645  0.88169  0.96911  1.0000
  H   H3064     1.0  0.68707  0.79196  0.73014  1.0000
  H   H3065     1.0  0.49166  0.70335  0.93483  1.0000
  H   H3066     1.0  0.93592  0.98695  0.94769  1.0000
  C   C1791     1.0  0.66716  0.97684  0.78006  1.0000
  H   H3067     1.0  0.59704  0.68650  0.97075  1.0000
  H   H3068     1.0  0.52227  0.84856  0.72278  1.0000
  H   H3069     1.0  0.74612  0.78519  0.72739  1.0000
  C   C1792     1.0  0.73157  0.76252  0.72568  1.0000
  H   H3070     1.0  0.53406  0.97217  0.84569  1.0000
  S   S511      1.0  0.51469  0.73480  0.72360  1.0000
  Fe  Fe255     1.0  0.59055  0.92108  0.97074  1.0000
  H   H3071     1.0  0.63573  0.80952  0.72270  1.0000
  S   S512      1.0  0.99023  0.97426  0.76338  1.0000
  H   H3072     1.0  0.98678  0.84845  0.96953  1.0000
  Fe  Fe256     1.0  0.52195  0.97477  0.72272  1.0000
