data_image0
_chemical_formula_structural       CH2CH4CHCSH3CFeS2FeSHFeSFeS3FeS2FeSHFeSFeS3CHCHCHC2HC2SHCHC3H5CH2C6H11C6H4CHC2H4CH2NH2C2SH3C2SH4SNC5H6NC8H11CHCH9CH3CH2CH6CHC2HFeCHC3H2CH2NC6HCH3SH10CH4FeH4CHCH2CNSC3H3SNH7CNCH3C3H2CH7CH2C2H2CH2C2HFeH6C2H2CHCHCH2C2SHCSCH5C3H2C2H2FeS2FeS2FeSFeS3FeS2FeSFeSFeS3FeS2FeS2FeH2SCFeS2HC2FeH2CSH3CSHFeSH2CHC6H5CHC6H4C4H3C6H4C6H3CHC4HSH2SHNHCHSHSC2H4CHC2H2C2HSHNCHC2H6C2H3CHCH4CH7CHCH3CH2CH15C2H2CH4CHCSH2C2H2CH4CH4CHNC6HCH13CHCNC8H20CH2CH2CH2FeH9CH4CNCH4CHSH2FeHC2HNHCHCSFeHNC8H9CHCH2C2HC2NCH2SCHCHC3HC3HC3HCSCHCSH2CHCH3CNH2CH5C3HC2H4CH2NCH11CS2H8CH3SHNFeC2HSHC2HCH4FeCFeS2FeSCSH2C2FeS2H2CHS2FeSHFeS2FeSFeHS2FeS2FeS2FeSFeS3HC3H2CH13C3H2NSC6H4C4SH2C6H5C2HC7H4C2H2NCHCHFeH8C2H2C3H5SCSCHCFeHFeCHSC2H4C2FeCHC3H2SH11CH2C2HNH2C2H2SC4HCH2C2H2SCFeH6NCH2C2HCH14NHC2H2C2H3CH5CH3CH2CH2CH4CHC2H3SCHCNH3CSC2H2NC8H18C3H2CHCHSHC2HCHCHC2H3CH3C2H4C2FeH3CH4SH2CHC2HCHCH4C2H10N2FeSC3HFeH2SH2FeHCSHC2H3CHCHC2HFeS2FeS2FeSFeS3FeSFeS2FeSFeS3C4H4CH4C6H4C6H5CHC2HC2HCH2CHNCH2C3HCH4CHNCHCH2C2H3SH6SHCH5C2HCH3CSC2SHC4HNH2C2SH2C2H4CHCH8CH2CHNC8H22C2H2CH2CHCH7C2HCHCH2CH2NC3H2CH3NHC2H3SCH6CH2NH2CH3CH9C4H3CHCH2CH3SH2SCHFeS2FeS2CFeS3FeSCFeCSFeS2FeSHFeS2Fe2S3C3HC2FeS2FeSCFeCFeS3H2CH3CH2CHCH2SC3SH7C2SCH3C6H4C3H7SHC2HC6H12C8H4SH7CH5C4H3CH3CH2C2H3CH7NC8H20CH4CHC2H4SH3CHCHSCH2SHC2H3CHC2HSH3FeHFeCHCHCHC2H2CHC2HSH6CH3CHCHNHCH3C2H2CH2C5H4C2H3CHNHFeHCHCH3FeH3C3HC3H2C3H2CHSH3C2H2FeNSH4NHCNCH2CH2CHNHC2HCHSH6NHCSHCH3CHCSC2HCH3CH2CHCH2CH4C2HCHSFeSCFeSCFeSFeS3C2HSHSH2SH2CNFeS2FeSHFeSFeHS2H2CH2NCHSH2SH2C2H2C2HSCHC4H2CFeH2CHCH3FeCHFeH5C4HCH2NSHC3HC4H4C6H5CH2C3HC2H2CH5CFeNCH2SH4CHNCHC4SCH16SH3NHC3HC3H4SHCH2FeH4CSCH3C2HC2HC2SH2CHC3H2FeH2CH2CH3FeC3HCHCSCH2FeNCHC3HCH2CHCH5CH5SH6CSC2HC2H3C2H3CH6CH4CHSC2H2CHCH2CSCHNH8CHCSH3C4H2C2H2CHCH4CHC4HCHS2H2NH2FeS2FeS2H3CS2CHCH4CH2CFeS2FeS2FeSFeS3HCHCHC3H3C2H3NHSNH2CSHC7H5C8H6FeHFeC2HC2H2C3HC2H9NC2HC3NH3C2H13CHC2HNHCHCH4C2H9NC2H7FeH2CSH2SCHC4SHCHCHFeHC3FeH2CH6C2HSCS2CHSNC3HCH9CFeH5CFeCHC2H3CHCH3SC2SC2H2CHCSCHC2H3CH4CNH2FeHCH2CH3SHC2H2CH7CHSCHCHCHC5HCH2S2H3SH3C2H2CHC2H3C3H2CH4SCH2CNCHCHCH2C2HC2H2SH3SH5CH4C2HC2H2NHC3H2NH2C2HCH5CHCH2CS2FeSCSFeSCS3FeSFeSFeS2FeCSH2FeS2FeS2FeSFeHS3C3H2CH2C8H4C3H3SCH2C3H2C6H6NC6H5NH2SC3FeH7FeSH2CH3SFeHSFeHCHC3FeCH2CH2FeCHC2HNHSH3NC8H20NC8H4CH15NHCH3C2FeH10C2FeCHCHCFeHSH2C2HCSH3CHCSH2C2H8CHC2SH3SHCH4CHSH2FeHSH4CNH2CHCH2CH7CH5CH5CHCH5CH5C5FeS2FeS2FeSFeS3FeSFeS2FeS3HFeS2FeS2FeSFeS3FeS2NSFeSFeS2FeSNFeS2FeC2HSCH5CH5CHC6H5CHC2HCH3C6H4CHCH4C6H4C6H4C6H5CH2SH6C3H3SH4C2H3CHCHSCH2SHC2HNCHC2H2SH2C2HCHC2HC2HCH2CHCHCH2C2H6CHCH3CNHCH7C3H6NCHC2H2CHCH7CH8CH2NC6H14CNH2CHCH2C2HCH2FeH4C2HCH2CHCHC2FeH3FeH9CH3SC3HCH5CH3C2H2C3HCH2C3H3CHNCHCH6CHSH2CH6NH4CH2CS2HCH3CHSHFeHSH3CHCHSH4FeS2FeS2FeSFeS3FeSNHFeSH3C2HCH3CHC6H5C3H5NC6H5CHFeH4SH4CH3NCH12CH3CSCHC6H4CHC2SHSH2C2H5CH6CNCHNCH3CH2CNSH2CH2NC3H7C2HFeHC2H6CH5CFeH2C3HCHCH4C3H2C3H3CH2C3H4CH8C3H5CNCHC6H2CH4C2HFeH2CHCH4SFeCHSCH2CH3C6HC2H4FeSFeHFeSHS2H2CH2SHFeS3HCFeS2FeSHFeSCFeSFeS4HCHCH2CHCH2SCHCHC6H7FeSCHC2NCHSH4SCHCH2C6H3CHSHCSH2FeH3C2HFeH5CH2NHCH2CSH2CSH3CHC2H9C3H3CHCH5C3HCHC2H5CHCFeH7NC4SC2H5C2H6CH2FeH5CFeH5CHCH4SFeS2FeS2FeNFeS3FeS2FeSHFeSFeS3FeHSFeS3FeS3FeSFeHS2FeSFeSNH2CH3C3H3C2HCHCHC2HCH2C6H4C6H6C2H5C6H4C6H6CSHC3H2C2H4C6H6NHCNCH2CH2CH4C2H2NC2H3C2H2CH6C4H4CH2CH2CH2CH3SCHFeC2H2C2H5CH2C2H2FeCHC2H3CHNH4SHCH3SCH2SCH5NC8H20NC8H17C2SC2H5NH3CH4C2HCH6CH2C3HSH4CH2FeHCHCH2CFeHS2FeSFeS2FeSFeS4FeCFeS2FeSFeSFeS2FeS2FeSFeS3FeS2FeS2CHFeSCH4NC7H4C5HC6H4C6H4C6H5C4H2CHCH9CH3CH6CNSH3CH2SH2CH3FeHSCHSH5C4H3CNHC2H6CH2C2FeH6SH3CSCHSHNC4HC4H7C2H10NHCH4C2H2SHCH2C2H2CH3C2H4NCH2CH8C3H5FeSH3CHNC8H10CH9CH4C2HCHC3H2C2H2FeCH3CH2NHC3H6CH3CHC2HC2H8C2HC2NCHCH3CH3CH9CH4CHNHCHSH4FeS2HSCFeSFeSHSFeS2FeSCFeSFeHS2H4C6H4C6H3CH2CHC2H3SH10C6H7C3SCH6CH2CH2CSHS2CH2NC8H22CH3CH3C2HCHCNH3NCHC2SCHCH2CH3C2HCSNHNFeCH3CHC2H3CH5CH2CH2C2HCH3FeSH2CH2CHC2H4CHCFeS2FeS2FeSFeS3FeS2FeSHFeSFeS2C2H3C2HC3H2SH4C6H4C6H6CHC5H6C2H2CH6C3H2C2H4CH4C3H2CH4C2H4C3H2C3SH3NHCHC2H4CHFeH2CNH7C2HC3H2NHCH6C2HSH2FeC3SH2SHCHCH4C2SCNHNHCH6CH3NC5HCH2CH4CHSH3SH2C2H3C2H4SFeHCH9CH2C3HCHSH7C3H6CH3CHNHFeS2FeSCSCHFeS2FeS2FeSFeS3FeS2FeS2FeSFeS3CSCFeS2FeSHFeSFeS3HCHFeNCHCH2C6H4SH3CHC6H3C6H7C4H6C3HC6H4C5HCHNC8H20NC7H2CH15SCH2C5H14C2H4FeNH3CHCH2CH4C2HNC5H2CHCH9CH3CHCH2NC8H17SH2NC8H22C2H3C2HCH2CHCFeS2CFeCHCH10CSHC4H3C2HCH2CSH3SHCH2CH2FeHCHCHSCH7NH4CHCHC2FeS2FeS2FeSFeS3CSCH3FeH2FeS2FeSCFeSFeS3Fe2CH4C2H2CHC6H4SHC4HCSCH5C8H4C3H2CH8SCH2C2H3CHCHCH3CH5CHCH2C4SH3CHCH7C2H8CHSC5SHNH3NHCH6CSCH2CHCHCH2CH6SC2HC2NHCH5C2H3CH6CHCH3CH5CHC2HC3SFeH3CH3NCH2NC3HCHSCHC2H3CH9SCH2CH3CH2CH3NCHCH3C2H3CH3CHCHCHCH2CHCSHC2HFeC2FeH2CHCHFeCHCHCHCHNSH3CH5FeH3CHNH2C2H3CFeSCFeSCFeSFeS2HFeSNFeSHFeSFeS3FeS2FeSFeS2FeS2FeS2FeHFeHS4FeSHSH2NC5H2C6H4C6H5CH2CH2C3H2C2H3C2H3C6H4C2HCHC2H2CH2CH10C2NH2CH4CHSH3CH2CH7CH2C2H2C3HNH3C2H2FeHCH3CH2C3SHSHCH3C2H2CH3CH2C3HSCSHFeHC3H3C2HFeSC2H2CHCHCSH3SFeHCHSH2C2H3CNH4CH2CH2CH3CH2NC8H21CH3CH4C2H2CH5CNH5C2H5CH4SH4SC4SHCH2CHCH3CH2SC2H5CH3NFeS2FeSHFeHFeS3C4FeHCSHC2HCHCH2FeSHSFe2S2FeS2FeS2Fe2S5HCFeS2FeS2FeSFeS2C3SH8C6H4C6H3NCH6C6H4CSCH4CH2CHC2H2SH3CNH2C4H4C6H4C4HCH2CH7C4H2CH3CH2CHCH2C2HC2HC2H3NC2HC5H13CHCSH5CH4C3HCH3CHCH2CH4CH5CHSC2H6CHCH2SH4C2H2CH2SCH3CSHCHNC8H10CH9C2NCHNCHSH2FeCHCFeHC2H2C2HCH4C2NHCHNHFeH2SH4NH3SH4CHCHCHC2H4CH2CH4CH9CHC2H3CHCH4CHCH2FeH4CHCFeS2FeCSFeH3SCH3SCH6FeHCH3CSH2FeSHFeS2FeSFeS2CSHCSHCS2H2SNH2SHC6H4CFeHCNC7H4C7HCH3CH2CH3CH5C2H2CHCH3CHSHFeSCH2SC2HC3H2CHNHFeC3HCHCH2FeHC2HC3HC2HCH4SHSCH2SCHCSHSHSCHCHCH2SHSC2HFeHC2NC5HC2H3CH8CH6NC8H21CHCH2CFeH2FeHSH2SCHNHSCH2SH5C3H2CH9C2HSNH2C3H7FeCHFeCHCH2CH7CH3C2H6SH3CHCHSHFeSHFeSFeS3FeS2FeSHFeSFeS3HSCFeSFeSHCSHC2FeHSC4H5C6H5C6H4CH8C3FeHCHSC5NCH3CH2C7H6CHSHCHSCHCH4FeCH2CNCHC2H2C2HCH5CHNH10NH3CHCHSCHC3H7SHC2H4SC3SH3CH2NCHCNCH2SHC2H3CHC2H4S2H3CH3NCHCH2CHCH5C3H2C2H2CH3CH2C2H5CH2C2H2CH5NC3H4CHFeH5SC2H3C2H2CH3CNHC2FeS2FeS2FeSFeS3FeSHFeS2FeS2FeSFeS3FeS2HCHFeSHSH2NFeCSHCFeH4SCHC2HC2H2CH2CH6C6H4SHCHCFeH2C7H4C6H4C6H4C6H5CSH2CH2CH5CNCHCH2CFeCH4C3H11CNHCHSCH9C2HSHCHFeH6FeC3H2CHC5H7CHCHC2H6C3H4NCH7C3H2CNC2HCH6FeH4C2HCH6FeS4H3C4H3NCH4CSHCH2CHC2H2C3SH2NC4H10CHCH3CH5CHCH3C2SNH2CH3CH3CH2SCNC2H2CH4CHCH3CH2CHCHC2FeS2FeS2FeSFeHS3FeS2FeS2FeSFeS3FeS2FeSCFe2S3H2C2HSH3C4H3CHNH4C6H4C4H2C6H4C6H6C2HCH3C2H2SHCH3CHC3HNC8H20CH2CHC2H5CH3CH2C3H5C2H4CH3C2HCSCNHC2H3CHC2H6NH4CH2C2H2NC8H20NC7H17SNCH2CH2SHFe2NH2SH5C3HSHSHFeC3HSH2SHCH2FeCH4SCHNCSH3CHCHCHCHCHSC2H3C3H2C3H5CH3FeH5SH2CH8C5H2C2H2CHC2H2CH2C2H8CFeSHFeSFeSHCFeS2FeS2FeSFeS3FeSCFeSHFeSFeS3HC3HCH2CH6CH3CH2CHC6H4C6H4CHC3HSCH4C2H7SH4C6H3CH6NHCH2C2H2C2NC5HCH7CH5CH5SH2CH3CH4CH2CHCHCH3C2SH5NC8HC2H12CH3CH4CHNH2C2H3SNH4SCHSH2C2H2CH3CH2CH2CH
_chemical_formula_sum              "C2688 H4608 S768 Fe384 N192"
_cell_length_a       69.5315
_cell_length_b       69.558
_cell_length_c       75.4486
_cell_angle_alpha    73.8997
_cell_angle_beta     73.9495
_cell_angle_gamma    74.3883

_space_group_name_H-M_alt    "P 1"
_space_group_IT_number       1

loop_
  _space_group_symop_operation_xyz
  'x, y, z'

loop_
  _atom_site_type_symbol
  _atom_site_label
  _atom_site_symmetry_multiplicity
  _atom_site_fract_x
  _atom_site_fract_y
  _atom_site_fract_z
  _atom_site_occupancy
  C   C1        1.0  0.19758  0.31903  0.11116  1.0000
  H   H1        1.0  0.18329  0.25391  0.98759  1.0000
  H   H2        1.0  0.23276  0.29631  0.98777  1.0000
  C   C2        1.0  0.09926  0.13451  0.21209  1.0000
  H   H3        1.0  0.06541  0.27040  0.98909  1.0000
  H   H4        1.0  0.36910  0.02310  0.18938  1.0000
  H   H5        1.0  0.37947  0.99875  0.09432  1.0000
  H   H6        1.0  0.34335  0.30617  0.98992  1.0000
  C   C3        1.0  0.18376  0.15405  0.01352  1.0000
  H   H7        1.0  0.02720  0.12099  0.08434  1.0000
  C   C4        1.0  0.99980  0.01400  0.13516  1.0000
  S   S1        1.0  0.29941  0.27134  0.06795  1.0000
  H   H8        1.0  0.36168  0.07384  0.14918  1.0000
  H   H9        1.0  0.15879  0.12491  0.05260  1.0000
  H   H10       1.0  0.02387  0.00081  0.20547  1.0000
  C   C5        1.0  0.04395  0.99794  0.23177  1.0000
  Fe  Fe1       1.0  0.17532  0.26527  0.04583  1.0000
  S   S2        1.0  0.16961  0.25224  0.07709  1.0000
  S   S3        1.0  0.16953  0.29810  0.03033  1.0000
  Fe  Fe2       1.0  0.19495  0.22423  0.03599  1.0000
  S   S4        1.0  0.19178  0.20721  0.06637  1.0000
  H   H11       1.0  0.99905  0.12974  0.18061  1.0000
  Fe  Fe3       1.0  0.16021  0.22697  0.07039  1.0000
  S   S5        1.0  0.13055  0.21655  0.08551  1.0000
  Fe  Fe4       1.0  0.20156  0.23377  0.07064  1.0000
  S   S6        1.0  0.22252  0.23002  0.09000  1.0000
  S   S7        1.0  0.16275  0.24212  0.03963  1.0000
  S   S8        1.0  0.20793  0.24858  0.03994  1.0000
  Fe  Fe5       1.0  0.09471  0.11668  0.14254  1.0000
  S   S9        1.0  0.08899  0.09942  0.17287  1.0000
  S   S10       1.0  0.12569  0.12531  0.12940  1.0000
  Fe  Fe6       1.0  0.05208  0.11777  0.13877  1.0000
  S   S11       1.0  0.04247  0.10154  0.16881  1.0000
  H   H12       1.0  0.47444  0.02080  0.10936  1.0000
  Fe  Fe7       1.0  0.05874  0.12128  0.17586  1.0000
  S   S12       1.0  0.04519  0.13422  0.20197  1.0000
  Fe  Fe8       1.0  0.07334  0.08082  0.16370  1.0000
  S   S13       1.0  0.07435  0.04797  0.17938  1.0000
  S   S14       1.0  0.06531  0.13994  0.14629  1.0000
  S   S15       1.0  0.08208  0.09563  0.13286  1.0000
  C   C6        1.0  0.14816  0.30785  0.06417  1.0000
  H   H13       1.0  0.38896  0.04720  0.17676  1.0000
  C   C7        1.0  0.38762  0.05607  0.16227  1.0000
  H   H14       1.0  0.39703  0.10396  0.18126  1.0000
  C   C8        1.0  0.16027  0.20925  0.99302  1.0000
  H   H15       1.0  0.08795  0.07307  0.21826  1.0000
  C   C9        1.0  0.46402  0.08567  0.14859  1.0000
  C   C10       1.0  0.46224  0.06809  0.16301  1.0000
  H   H16       1.0  0.36113  0.08027  0.17105  1.0000
  C   C11       1.0  0.45105  0.10658  0.17197  1.0000
  C   C12       1.0  0.30062  0.28293  0.01431  1.0000
  S   S16       1.0  0.47253  0.08421  0.12479  1.0000
  H   H17       1.0  0.46666  0.05321  0.15954  1.0000
  C   C13       1.0  0.20256  0.28753  0.09936  1.0000
  H   H18       1.0  0.03459  0.99411  0.14531  1.0000
  C   C14       1.0  0.14044  0.32109  0.07670  1.0000
  C   C15       1.0  0.39017  0.09403  0.17656  1.0000
  C   C16       1.0  0.34567  0.23739  0.02289  1.0000
  H   H19       1.0  0.02849  0.03875  0.14919  1.0000
  H   H20       1.0  0.44517  0.02568  0.15535  1.0000
  H   H21       1.0  0.28252  0.25894  0.02337  1.0000
  H   H22       1.0  0.99947  0.10426  0.19557  1.0000
  H   H23       1.0  0.43693  0.06188  0.14259  1.0000
  C   C17       1.0  0.03847  0.04879  0.10726  1.0000
  H   H24       1.0  0.29830  0.29860  0.00558  1.0000
  H   H25       1.0  0.34522  0.31107  0.01113  1.0000
  C   C18       1.0  0.12701  0.15052  0.11668  1.0000
  C   C19       1.0  0.10962  0.16464  0.11205  1.0000
  C   C20       1.0  0.11105  0.18472  0.10219  1.0000
  C   C21       1.0  0.12986  0.19085  0.09680  1.0000
  C   C22       1.0  0.14736  0.17668  0.10115  1.0000
  C   C23       1.0  0.14590  0.15657  0.11110  1.0000
  H   H26       1.0  0.09505  0.16009  0.11603  1.0000
  H   H27       1.0  0.09745  0.19561  0.09884  1.0000
  H   H28       1.0  0.16188  0.18133  0.09727  1.0000
  H   H29       1.0  0.15939  0.14573  0.11474  1.0000
  H   H30       1.0  0.40372  0.01861  0.09302  1.0000
  H   H31       1.0  0.11523  0.13191  0.20492  1.0000
  H   H32       1.0  0.19144  0.13781  0.01738  1.0000
  H   H33       1.0  0.24211  0.27763  0.10571  1.0000
  H   H34       1.0  0.38437  0.09531  0.14056  1.0000
  H   H35       1.0  0.16591  0.21506  0.01746  1.0000
  H   H36       1.0  0.38186  0.10455  0.16592  1.0000
  C   C24       1.0  0.27695  0.26152  0.07419  1.0000
  C   C25       1.0  0.27490  0.24496  0.08960  1.0000
  C   C26       1.0  0.25805  0.23571  0.09424  1.0000
  C   C27       1.0  0.24339  0.24237  0.08314  1.0000
  C   C28       1.0  0.24548  0.25881  0.06746  1.0000
  C   C29       1.0  0.26214  0.26854  0.06313  1.0000
  H   H37       1.0  0.28639  0.23924  0.09803  1.0000
  H   H38       1.0  0.25658  0.22304  0.10634  1.0000
  H   H39       1.0  0.23420  0.26411  0.05884  1.0000
  H   H40       1.0  0.26364  0.28126  0.05112  1.0000
  C   C30       1.0  0.07397  0.07957  0.22799  1.0000
  H   H41       1.0  0.41822  0.10583  0.13664  1.0000
  C   C31       1.0  0.18439  0.26702  0.99262  1.0000
  C   C32       1.0  0.00517  0.10293  0.13012  1.0000
  H   H42       1.0  0.05471  0.05867  0.22839  1.0000
  H   H43       1.0  0.00929  0.11511  0.21698  1.0000
  H   H44       1.0  0.41009  0.06497  0.18162  1.0000
  H   H45       1.0  0.00880  0.04973  0.12630  1.0000
  C   C33       1.0  0.44894  0.08914  0.18639  1.0000
  H   H46       1.0  0.41515  0.00403  0.07536  1.0000
  H   H47       1.0  0.18001  0.26876  0.10724  1.0000
  N   N1        1.0  0.02080  0.01785  0.12459  1.0000
  H   H48       1.0  0.35377  0.24267  0.03085  1.0000
  H   H49       1.0  0.42969  0.08931  0.11996  1.0000
  C   C34       1.0  0.19392  0.20890  0.99689  1.0000
  C   C35       1.0  0.17272  0.21164  0.00374  1.0000
  S   S17       1.0  0.36437  0.05026  0.21368  1.0000
  H   H50       1.0  0.14520  0.29259  0.06851  1.0000
  H   H51       1.0  0.41921  0.02391  0.16561  1.0000
  H   H52       1.0  0.05803  0.07827  0.20742  1.0000
  C   C36       1.0  0.06375  0.13676  0.21247  1.0000
  C   C37       1.0  0.08437  0.13356  0.20329  1.0000
  S   S18       1.0  0.03201  0.12944  0.11748  1.0000
  H   H53       1.0  0.17218  0.28972  0.11855  1.0000
  H   H54       1.0  0.22599  0.25251  0.99314  1.0000
  H   H55       1.0  0.04119  0.08507  0.22824  1.0000
  H   H56       1.0  0.08890  0.13058  0.18928  1.0000
  S   S19       1.0  0.41619  0.04290  0.22646  1.0000
  N   N2        1.0  0.02113  0.00548  0.23333  1.0000
  C   C38       1.0  0.08859  0.00001  0.14417  1.0000
  C   C39       1.0  0.08953  0.02036  0.13514  1.0000
  C   C40       1.0  0.08500  0.03526  0.14583  1.0000
  C   C41       1.0  0.07993  0.02974  0.16558  1.0000
  C   C42       1.0  0.07913  0.00934  0.17457  1.0000
  H   H57       1.0  0.15287  0.30925  0.99255  1.0000
  H   H58       1.0  0.09364  0.02466  0.11988  1.0000
  H   H59       1.0  0.08568  0.05095  0.13881  1.0000
  H   H60       1.0  0.07545  0.00493  0.18982  1.0000
  H   H61       1.0  0.45265  0.05633  0.19304  1.0000
  H   H62       1.0  0.00088  0.99805  0.14381  1.0000
  N   N3        1.0  0.11662  0.18947  0.15959  1.0000
  C   C43       1.0  0.11036  0.20672  0.14362  1.0000
  C   C44       1.0  0.10291  0.17447  0.16386  1.0000
  C   C45       1.0  0.13869  0.17936  0.15297  1.0000
  C   C46       1.0  0.11423  0.19865  0.17618  1.0000
  C   C47       1.0  0.12486  0.22189  0.13430  1.0000
  C   C48       1.0  0.07988  0.18264  0.17096  1.0000
  C   C49       1.0  0.14586  0.15678  0.16256  1.0000
  C   C50       1.0  0.11847  0.18376  0.19468  1.0000
  H   H63       1.0  0.10879  0.20055  0.13210  1.0000
  H   H64       1.0  0.09504  0.21615  0.14841  1.0000
  H   H65       1.0  0.10728  0.16067  0.17464  1.0000
  H   H66       1.0  0.10469  0.16853  0.15107  1.0000
  H   H67       1.0  0.14194  0.17937  0.13770  1.0000
  H   H68       1.0  0.14926  0.18818  0.15425  1.0000
  H   H69       1.0  0.12486  0.20926  0.17263  1.0000
  H   H70       1.0  0.09886  0.20871  0.17946  1.0000
  H   H71       1.0  0.11824  0.23386  0.12310  1.0000
  H   H72       1.0  0.12659  0.22986  0.14441  1.0000
  H   H73       1.0  0.14012  0.21446  0.12708  1.0000
  C   C51       1.0  0.44756  0.00796  0.12255  1.0000
  H   H74       1.0  0.31548  0.24156  0.01889  1.0000
  C   C52       1.0  0.02859  0.00545  0.10951  1.0000
  H   H75       1.0  0.13904  0.14647  0.15831  1.0000
  H   H76       1.0  0.14258  0.15401  0.17814  1.0000
  H   H77       1.0  0.16270  0.15222  0.15765  1.0000
  H   H78       1.0  0.13502  0.17991  0.19476  1.0000
  H   H79       1.0  0.11288  0.16960  0.19759  1.0000
  H   H80       1.0  0.10985  0.19085  0.20686  1.0000
  H   H81       1.0  0.25520  0.31946  0.00083  1.0000
  H   H82       1.0  0.33084  0.28233  0.03101  1.0000
  H   H83       1.0  0.40915  0.11038  0.11562  1.0000
  C   C53       1.0  0.31305  0.32156  0.13439  1.0000
  H   H84       1.0  0.23538  0.29873  0.11767  1.0000
  H   H85       1.0  0.04347  0.04890  0.09193  1.0000
  H   H86       1.0  0.42294  0.04926  0.13473  1.0000
  C   C54       1.0  0.45421  0.06987  0.18191  1.0000
  H   H87       1.0  0.31313  0.30497  0.13974  1.0000
  H   H88       1.0  0.16850  0.27461  0.99820  1.0000
  C   C55       1.0  0.41513  0.09814  0.12697  1.0000
  H   H89       1.0  0.34443  0.22144  0.03038  1.0000
  H   H90       1.0  0.35494  0.05703  0.17141  1.0000
  H   H91       1.0  0.42163  0.08323  0.16401  1.0000
  H   H92       1.0  0.48201  0.09200  0.21607  1.0000
  H   H93       1.0  0.07676  0.18742  0.18451  1.0000
  H   H94       1.0  0.07263  0.09639  0.22367  1.0000
  C   C56       1.0  0.05806  0.14103  0.23053  1.0000
  H   H95       1.0  0.20395  0.31262  0.06557  1.0000
  C   C57       1.0  0.33566  0.28258  0.01556  1.0000
  C   C58       1.0  0.05680  0.01401  0.22852  1.0000
  H   H96       1.0  0.00507  0.10147  0.07908  1.0000
  Fe  Fe9       1.0  0.38236  0.05570  0.23157  1.0000
  C   C59       1.0  0.42379  0.05409  0.14734  1.0000
  H   H97       1.0  0.07323  0.19523  0.16028  1.0000
  C   C60       1.0  0.28491  0.27249  0.01172  1.0000
  C   C61       1.0  0.40740  0.07720  0.16893  1.0000
  C   C62       1.0  0.45808  0.10490  0.15309  1.0000
  H   H98       1.0  0.26986  0.28332  0.01236  1.0000
  H   H99       1.0  0.37917  0.08726  0.18892  1.0000
  C   C63       1.0  0.01762  0.11279  0.09632  1.0000
  H   H100      1.0  0.05131  0.04070  0.11427  1.0000
  H   H101      1.0  0.42322  0.99679  0.09779  1.0000
  N   N4        1.0  0.16250  0.15605  0.04744  1.0000
  C   C64       1.0  0.14058  0.16290  0.05739  1.0000
  C   C65       1.0  0.16874  0.13343  0.05540  1.0000
  C   C66       1.0  0.16279  0.15938  0.02676  1.0000
  C   C67       1.0  0.17555  0.16858  0.05046  1.0000
  C   C68       1.0  0.13044  0.18554  0.05072  1.0000
  C   C69       1.0  0.16789  0.12720  0.07685  1.0000
  H   H102      1.0  0.47926  0.02812  0.21580  1.0000
  C   C70       1.0  0.19875  0.15932  0.04847  1.0000
  H   H103      1.0  0.13062  0.15334  0.05621  1.0000
  H   H104      1.0  0.13935  0.16073  0.07278  1.0000
  H   H105      1.0  0.18437  0.12683  0.04831  1.0000
  S   S20       1.0  0.21006  0.21073  0.01039  1.0000
  H   H106      1.0  0.15249  0.15066  0.02481  1.0000
  H   H107      1.0  0.15675  0.17563  0.02083  1.0000
  H   H108      1.0  0.17393  0.18388  0.04065  1.0000
  H   H109      1.0  0.16997  0.17170  0.06491  1.0000
  H   H110      1.0  0.11563  0.18923  0.06076  1.0000
  H   H111      1.0  0.13977  0.19626  0.05059  1.0000
  H   H112      1.0  0.12675  0.18854  0.03668  1.0000
  H   H113      1.0  0.17609  0.11105  0.08054  1.0000
  H   H114      1.0  0.17523  0.13668  0.08148  1.0000
  H   H115      1.0  0.15189  0.12787  0.08513  1.0000
  C   C71       1.0  0.24138  0.29417  0.10388  1.0000
  H   H116      1.0  0.01018  0.04486  0.10445  1.0000
  H   H117      1.0  0.20735  0.17174  0.04129  1.0000
  H   H118      1.0  0.20503  0.14743  0.04009  1.0000
  H   H119      1.0  0.20262  0.15336  0.06260  1.0000
  Fe  Fe10      1.0  0.41807  0.07378  0.22855  1.0000
  H   H120      1.0  0.05052  0.01106  0.13197  1.0000
  H   H121      1.0  0.29599  0.28520  0.02906  1.0000
  H   H122      1.0  0.49459  0.00287  0.22000  1.0000
  H   H123      1.0  0.43199  0.03735  0.17482  1.0000
  C   C72       1.0  0.01866  0.04043  0.11597  1.0000
  H   H124      1.0  0.18113  0.32278  0.07994  1.0000
  C   C73       1.0  0.05582  0.07493  0.22305  1.0000
  H   H125      1.0  0.11351  0.08499  0.22255  1.0000
  H   H126      1.0  0.03546  0.06480  0.10891  1.0000
  C   C74       1.0  0.36521  0.06781  0.16342  1.0000
  N   N5        1.0  0.32265  0.27183  0.01017  1.0000
  S   S21       1.0  0.29544  0.31590  0.09270  1.0000
  C   C75       1.0  0.03431  0.01055  0.13871  1.0000
  C   C76       1.0  0.46872  0.00724  0.11741  1.0000
  C   C77       1.0  0.22909  0.30748  0.08896  1.0000
  H   H127      1.0  0.17170  0.29349  0.09372  1.0000
  H   H128      1.0  0.03995  0.01594  0.16361  1.0000
  H   H129      1.0  0.01105  0.04029  0.19219  1.0000
  S   S22       1.0  0.44130  0.09178  0.20990  1.0000
  N   N6        1.0  0.20623  0.30899  0.09444  1.0000
  H   H130      1.0  0.05405  0.02693  0.21651  1.0000
  H   H131      1.0  0.32607  0.32441  0.13838  1.0000
  H   H132      1.0  0.02129  0.01309  0.09722  1.0000
  H   H133      1.0  0.44706  0.12148  0.17539  1.0000
  H   H134      1.0  0.99955  0.01380  0.21494  1.0000
  H   H135      1.0  0.14392  0.21106  0.99849  1.0000
  H   H136      1.0  0.07162  0.17010  0.17373  1.0000
  C   C78       1.0  0.01780  0.11340  0.11467  1.0000
  N   N7        1.0  0.40411  0.06842  0.15408  1.0000
  C   C79       1.0  0.39918  0.08467  0.13706  1.0000
  H   H137      1.0  0.01340  0.02019  0.16417  1.0000
  H   H138      1.0  0.43701  0.02203  0.11835  1.0000
  H   H139      1.0  0.38965  0.04446  0.15388  1.0000
  C   C80       1.0  0.22738  0.28215  0.99607  1.0000
  C   C81       1.0  0.02203  0.03270  0.20156  1.0000
  C   C82       1.0  0.41005  0.00278  0.09082  1.0000
  H   H140      1.0  0.31572  0.32452  0.11883  1.0000
  H   H141      1.0  0.23271  0.32286  0.08569  1.0000
  C   C83       1.0  0.09363  0.13900  0.23003  1.0000
  H   H142      1.0  0.48022  0.06292  0.20613  1.0000
  H   H143      1.0  0.32045  0.31505  0.00690  1.0000
  H   H144      1.0  0.23579  0.30163  0.07577  1.0000
  H   H145      1.0  0.00955  0.15570  0.22427  1.0000
  H   H146      1.0  0.18144  0.15671  0.99896  1.0000
  H   H147      1.0  0.45933  0.11852  0.14197  1.0000
  H   H148      1.0  0.39718  0.07748  0.12636  1.0000
  C   C84       1.0  0.33039  0.26979  0.98984  1.0000
  H   H149      1.0  0.02122  0.04423  0.20941  1.0000
  H   H150      1.0  0.00230  0.14881  0.19834  1.0000
  C   C85       1.0  0.43010  0.03426  0.16183  1.0000
  C   C86       1.0  0.32396  0.25066  0.02284  1.0000
  H   H151      1.0  0.21151  0.28609  0.00425  1.0000
  H   H152      1.0  0.07330  0.00665  0.22527  1.0000
  C   C87       1.0  0.08324  0.99453  0.16389  1.0000
  H   H153      1.0  0.03761  0.02963  0.19254  1.0000
  H   H154      1.0  0.35495  0.23691  0.00842  1.0000
  C   C88       1.0  0.36486  0.02401  0.21857  1.0000
  C   C89       1.0  0.02839  0.02223  0.15472  1.0000
  H   H155      1.0  0.13199  0.31582  0.09085  1.0000
  Fe  Fe11      1.0  0.29675  0.30453  0.06730  1.0000
  H   H156      1.0  0.19387  0.16435  0.01265  1.0000
  H   H157      1.0  0.05874  0.01433  0.09700  1.0000
  H   H158      1.0  0.31646  0.25148  0.03778  1.0000
  H   H159      1.0  0.19988  0.30770  0.12448  1.0000
  H   H160      1.0  0.19205  0.26134  0.00467  1.0000
  H   H161      1.0  0.28930  0.26805  0.99791  1.0000
  C   C90       1.0  0.05189  0.00068  0.10158  1.0000
  C   C91       1.0  0.00501  0.10183  0.09334  1.0000
  H   H162      1.0  0.21021  0.27992  0.08730  1.0000
  H   H163      1.0  0.20931  0.27795  0.11150  1.0000
  C   C92       1.0  0.33586  0.30496  0.00508  1.0000
  H   H164      1.0  0.25745  0.29623  0.09887  1.0000
  C   C93       1.0  0.18018  0.28520  0.10496  1.0000
  H   H165      1.0  0.23712  0.27474  0.00657  1.0000
  C   C94       1.0  0.19786  0.32105  0.07724  1.0000
  H   H166      1.0  0.35198  0.27455  0.01303  1.0000
  H   H167      1.0  0.00502  0.10357  0.14433  1.0000
  C   C95       1.0  0.01610  0.01257  0.21403  1.0000
  C   C96       1.0  0.36805  0.01437  0.20372  1.0000
  S   S23       1.0  0.32124  0.32131  0.04914  1.0000
  H   H168      1.0  0.49212  0.05453  0.22540  1.0000
  C   C97       1.0  0.15947  0.31451  0.04604  1.0000
  S   S24       1.0  0.38458  0.08742  0.23101  1.0000
  C   C98       1.0  0.49372  0.01812  0.21012  1.0000
  H   H169      1.0  0.49421  0.04787  0.17994  1.0000
  H   H170      1.0  0.49322  0.01580  0.19629  1.0000
  H   H171      1.0  0.12947  0.32483  0.01719  1.0000
  H   H172      1.0  0.16491  0.32393  0.10866  1.0000
  H   H173      1.0  0.32578  0.25646  0.98794  1.0000
  C   C99       1.0  0.14304  0.32431  0.98805  1.0000
  C   C100      1.0  0.49479  0.06172  0.21008  1.0000
  C   C101      1.0  0.37061  0.99312  0.20727  1.0000
  H   H174      1.0  0.05507  0.99395  0.08906  1.0000
  H   H175      1.0  0.11869  0.05943  0.23718  1.0000
  C   C102      1.0  0.11359  0.07595  0.23720  1.0000
  C   C103      1.0  0.36297  0.01245  0.23715  1.0000
  H   H176      1.0  0.30199  0.15070  0.31237  1.0000
  H   H177      1.0  0.13337  0.18573  0.36410  1.0000
  Fe  Fe12      1.0  0.41539  0.13088  0.38246  1.0000
  S   S25       1.0  0.42059  0.15150  0.35371  1.0000
  S   S26       1.0  0.44329  0.11904  0.39486  1.0000
  Fe  Fe13      1.0  0.37233  0.13063  0.38130  1.0000
  S   S27       1.0  0.37428  0.15100  0.35229  1.0000
  S   S28       1.0  0.34324  0.12040  0.39792  1.0000
  Fe  Fe14      1.0  0.40554  0.13154  0.34572  1.0000
  S   S29       1.0  0.42060  0.12098  0.31874  1.0000
  Fe  Fe15      1.0  0.38896  0.16893  0.36314  1.0000
  S   S30       1.0  0.38134  0.20313  0.35353  1.0000
  S   S31       1.0  0.40252  0.10947  0.37376  1.0000
  S   S32       1.0  0.38491  0.14999  0.39284  1.0000
  Fe  Fe16      1.0  0.20079  0.16123  0.38470  1.0000
  S   S33       1.0  0.23003  0.14156  0.39259  1.0000
  S   S34       1.0  0.17551  0.14686  0.38319  1.0000
  Fe  Fe17      1.0  0.21307  0.20049  0.38442  1.0000
  S   S35       1.0  0.24300  0.18418  0.39191  1.0000
  Fe  Fe18      1.0  0.24508  0.16570  0.37121  1.0000
  S   S36       1.0  0.27491  0.15901  0.35069  1.0000
  Fe  Fe19      1.0  0.22535  0.16179  0.41274  1.0000
  S   S37       1.0  0.23329  0.15009  0.44143  1.0000
  S   S38       1.0  0.21643  0.18387  0.36166  1.0000
  S   S39       1.0  0.19483  0.17952  0.40684  1.0000
  Fe  Fe20      1.0  0.11889  0.13841  0.30620  1.0000
  S   S40       1.0  0.09282  0.15506  0.29154  1.0000
  S   S41       1.0  0.13995  0.15562  0.31129  1.0000
  Fe  Fe21      1.0  0.11479  0.09668  0.30345  1.0000
  S   S42       1.0  0.08888  0.10969  0.28863  1.0000
  S   S43       1.0  0.12774  0.06279  0.30823  1.0000
  Fe  Fe22      1.0  0.10667  0.13364  0.27174  1.0000
  H   H178      1.0  0.49150  0.07897  0.32550  1.0000
  H   H179      1.0  0.45650  0.19676  0.42875  1.0000
  S   S44       1.0  0.13383  0.11892  0.28477  1.0000
  C   C104      1.0  0.40051  0.04539  0.35535  1.0000
  Fe  Fe23      1.0  0.38226  0.07601  0.26222  1.0000
  S   S45       1.0  0.41605  0.06519  0.25979  1.0000
  S   S46       1.0  0.36265  0.09268  0.28475  1.0000
  H   H180      1.0  0.30841  0.26500  0.46066  1.0000
  C   C105      1.0  0.28631  0.23558  0.48400  1.0000
  C   C106      1.0  0.40132  0.05438  0.31398  1.0000
  Fe  Fe24      1.0  0.41097  0.03546  0.25807  1.0000
  H   H181      1.0  0.32437  0.14181  0.46954  1.0000
  H   H182      1.0  0.29422  0.12507  0.33534  1.0000
  C   C107      1.0  0.43310  0.02853  0.30955  1.0000
  S   S47       1.0  0.37690  0.04539  0.26309  1.0000
  H   H183      1.0  0.42073  0.24094  0.38128  1.0000
  H   H184      1.0  0.10998  0.08054  0.36164  1.0000
  H   H185      1.0  0.01612  0.01553  0.25921  1.0000
  C   C108      1.0  0.28168  0.16223  0.43704  1.0000
  S   S48       1.0  0.05348  0.01920  0.32625  1.0000
  H   H186      1.0  0.08475  0.07522  0.32254  1.0000
  Fe  Fe25      1.0  0.07693  0.12970  0.30969  1.0000
  S   S49       1.0  0.04687  0.99937  0.28610  1.0000
  H   H187      1.0  0.32240  0.09328  0.27788  1.0000
  H   H188      1.0  0.25966  0.12302  0.33798  1.0000
  C   C109      1.0  0.39786  0.23904  0.41598  1.0000
  H   H189      1.0  0.23846  0.22703  0.39650  1.0000
  C   C110      1.0  0.16621  0.14903  0.36293  1.0000
  C   C111      1.0  0.14915  0.14072  0.36507  1.0000
  C   C112      1.0  0.14101  0.14241  0.34941  1.0000
  C   C113      1.0  0.14989  0.15244  0.33142  1.0000
  C   C114      1.0  0.16691  0.16082  0.32929  1.0000
  C   C115      1.0  0.17509  0.15909  0.34494  1.0000
  H   H190      1.0  0.14205  0.13313  0.37898  1.0000
  H   H191      1.0  0.12763  0.13633  0.35130  1.0000
  H   H192      1.0  0.17380  0.16870  0.31542  1.0000
  H   H193      1.0  0.18821  0.16556  0.34308  1.0000
  H   H194      1.0  0.40603  0.05905  0.35507  1.0000
  C   C116      1.0  0.22205  0.16733  0.45652  1.0000
  H   H195      1.0  0.20499  0.18931  0.43711  1.0000
  C   C117      1.0  0.40321  0.11573  0.30873  1.0000
  C   C118      1.0  0.38386  0.11285  0.31947  1.0000
  C   C119      1.0  0.37089  0.10678  0.31170  1.0000
  C   C120      1.0  0.37739  0.10338  0.29331  1.0000
  C   C121      1.0  0.39638  0.10706  0.28239  1.0000
  C   C122      1.0  0.40929  0.11319  0.29011  1.0000
  H   H196      1.0  0.37914  0.11473  0.33391  1.0000
  H   H197      1.0  0.35624  0.10390  0.32022  1.0000
  H   H198      1.0  0.40116  0.10516  0.26797  1.0000
  H   H199      1.0  0.42411  0.11573  0.28168  1.0000
  C   C123      1.0  0.36886  0.21649  0.37146  1.0000
  C   C124      1.0  0.36422  0.20605  0.39029  1.0000
  C   C125      1.0  0.35546  0.21694  0.40462  1.0000
  C   C126      1.0  0.36377  0.23788  0.36687  1.0000
  H   H200      1.0  0.36774  0.18964  0.39394  1.0000
  H   H201      1.0  0.35242  0.20881  0.41926  1.0000
  H   H202      1.0  0.36725  0.24602  0.35228  1.0000
  C   C127      1.0  0.32428  0.12901  0.38463  1.0000
  C   C128      1.0  0.30368  0.13290  0.39385  1.0000
  C   C129      1.0  0.28849  0.14180  0.38341  1.0000
  C   C130      1.0  0.29384  0.14676  0.36367  1.0000
  C   C131      1.0  0.31437  0.14217  0.35437  1.0000
  C   C132      1.0  0.32953  0.13300  0.36487  1.0000
  H   H203      1.0  0.29940  0.12948  0.40906  1.0000
  H   H204      1.0  0.27266  0.14494  0.39073  1.0000
  H   H205      1.0  0.31862  0.14580  0.33911  1.0000
  H   H206      1.0  0.34524  0.12887  0.35766  1.0000
  C   C133      1.0  0.44233  0.12342  0.41693  1.0000
  C   C134      1.0  0.46065  0.11882  0.42299  1.0000
  C   C135      1.0  0.46073  0.12212  0.44043  1.0000
  C   C136      1.0  0.44247  0.12999  0.45199  1.0000
  C   C137      1.0  0.42401  0.13448  0.44608  1.0000
  C   C138      1.0  0.42395  0.13129  0.42847  1.0000
  H   H207      1.0  0.47487  0.11265  0.41418  1.0000
  H   H208      1.0  0.47498  0.11857  0.44498  1.0000
  H   H209      1.0  0.40970  0.13462  0.42398  1.0000
  C   C139      1.0  0.07481  0.03026  0.32147  1.0000
  H   H210      1.0  0.41739  0.22062  0.43412  1.0000
  C   C140      1.0  0.08767  0.05991  0.32028  1.0000
  C   C141      1.0  0.10762  0.04989  0.31370  1.0000
  C   C142      1.0  0.11125  0.02984  0.31124  1.0000
  C   C143      1.0  0.09479  0.02003  0.31501  1.0000
  H   H211      1.0  0.18711  0.09351  0.30809  1.0000
  S   S50       1.0  0.04358  0.13333  0.32477  1.0000
  H   H212      1.0  0.12671  0.02202  0.30619  1.0000
  H   H213      1.0  0.19092  0.27201  0.43751  1.0000
  S   S51       1.0  0.34074  0.25160  0.41815  1.0000
  H   H214      1.0  0.02662  0.12655  0.26823  1.0000
  N   N8        1.0  0.30380  0.13334  0.45768  1.0000
  H   H215      1.0  0.15492  0.23251  0.32992  1.0000
  C   C144      1.0  0.44395  0.06845  0.30012  1.0000
  H   H216      1.0  0.27765  0.15217  0.43014  1.0000
  S   S52       1.0  0.20283  0.23475  0.37911  1.0000
  H   H217      1.0  0.15290  0.18415  0.40220  1.0000
  S   S53       1.0  0.39567  0.22886  0.48151  1.0000
  C   C145      1.0  0.07140  0.05007  0.32428  1.0000
  C   C146      1.0  0.29440  0.09344  0.34798  1.0000
  H   H218      1.0  0.45244  0.00156  0.32399  1.0000
  H   H219      1.0  0.16895  0.11659  0.30295  1.0000
  H   H220      1.0  0.32576  0.08455  0.31096  1.0000
  H   H221      1.0  0.11901  0.26480  0.35994  1.0000
  C   C147      1.0  0.23471  0.24308  0.38997  1.0000
  H   H222      1.0  0.99648  0.18462  0.31340  1.0000
  C   C148      1.0  0.27753  0.11461  0.31094  1.0000
  C   C149      1.0  0.09253  0.08086  0.25049  1.0000
  H   H223      1.0  0.38645  0.24586  0.42732  1.0000
  H   H224      1.0  0.12310  0.07699  0.37970  1.0000
  C   C150      1.0  0.43501  0.22922  0.37952  1.0000
  C   C151      1.0  0.02191  0.12519  0.28334  1.0000
  H   H225      1.0  0.18490  0.27989  0.48724  1.0000
  S   S54       1.0  0.44337  0.13448  0.47349  1.0000
  H   H226      1.0  0.46546  0.01443  0.30148  1.0000
  N   N9        1.0  0.42049  0.04379  0.32127  1.0000
  C   C152      1.0  0.07300  0.14208  0.23936  1.0000
  H   H227      1.0  0.13020  0.19424  0.39357  1.0000
  C   C153      1.0  0.05593  0.08008  0.26062  1.0000
  C   C154      1.0  0.30434  0.09491  0.46153  1.0000
  H   H228      1.0  0.18033  0.11254  0.32238  1.0000
  H   H229      1.0  0.09102  0.04315  0.24005  1.0000
  H   H230      1.0  0.27945  0.09110  0.34742  1.0000
  H   H231      1.0  0.16346  0.19005  0.36825  1.0000
  H   H232      1.0  0.44284  0.05440  0.32957  1.0000
  H   H233      1.0  0.05200  0.09712  0.25634  1.0000
  C   C155      1.0  0.48427  0.12676  0.30212  1.0000
  C   C156      1.0  0.48214  0.01677  0.25884  1.0000
  H   H234      1.0  0.23735  0.27211  0.42718  1.0000
  H   H235      1.0  0.30171  0.07723  0.31896  1.0000
  H   H236      1.0  0.28258  0.17692  0.42658  1.0000
  C   C157      1.0  0.26209  0.12962  0.32256  1.0000
  H   H237      1.0  0.25273  0.21549  0.45028  1.0000
  C   C158      1.0  0.21824  0.25045  0.38075  1.0000
  H   H238      1.0  0.43442  0.07353  0.28943  1.0000
  H   H239      1.0  0.44386  0.07946  0.36664  1.0000
  H   H240      1.0  0.09512  0.07618  0.26505  1.0000
  H   H241      1.0  0.02368  0.05417  0.31641  1.0000
  C   C159      1.0  0.24070  0.22942  0.44731  1.0000
  H   H242      1.0  0.30985  0.08377  0.45221  1.0000
  H   H243      1.0  0.12188  0.23231  0.34826  1.0000
  H   H244      1.0  0.17817  0.24816  0.33873  1.0000
  H   H245      1.0  0.17464  0.08013  0.38496  1.0000
  H   H246      1.0  0.13871  0.19847  0.33938  1.0000
  H   H247      1.0  0.24212  0.23664  0.47241  1.0000
  H   H248      1.0  0.19250  0.22962  0.32510  1.0000
  C   C160      1.0  0.13596  0.26119  0.35536  1.0000
  H   H249      1.0  0.14086  0.21020  0.40216  1.0000
  C   C161      1.0  0.35441  0.24881  0.38116  1.0000
  H   H250      1.0  0.14214  0.27384  0.35655  1.0000
  H   H251      1.0  0.26899  0.16582  0.44907  1.0000
  H   H252      1.0  0.46639  0.06829  0.35184  1.0000
  C   C162      1.0  0.20523  0.25831  0.47024  1.0000
  H   H253      1.0  0.19033  0.04048  0.31834  1.0000
  H   H254      1.0  0.25851  0.25122  0.39831  1.0000
  C   C163      1.0  0.38698  0.04059  0.31460  1.0000
  H   H255      1.0  0.18427  0.05885  0.37391  1.0000
  H   H256      1.0  0.06857  0.14568  0.25317  1.0000
  H   H257      1.0  0.29270  0.22354  0.47568  1.0000
  H   H258      1.0  0.32847  0.29216  0.46104  1.0000
  H   H259      1.0  0.39693  0.20958  0.43469  1.0000
  H   H260      1.0  0.39917  0.03593  0.36999  1.0000
  H   H261      1.0  0.16334  0.04429  0.32708  1.0000
  H   H262      1.0  0.05609  0.05800  0.32943  1.0000
  H   H263      1.0  0.47406  0.13955  0.29439  1.0000
  H   H264      1.0  0.12439  0.09882  0.35997  1.0000
  H   H265      1.0  0.35080  0.26536  0.37762  1.0000
  H   H266      1.0  0.45720  0.12821  0.32466  1.0000
  H   H267      1.0  0.40979  0.14025  0.45512  1.0000
  H   H268      1.0  0.14685  0.05402  0.36364  1.0000
  H   H269      1.0  0.18846  0.29052  0.46194  1.0000
  C   C164      1.0  0.28628  0.31824  0.47305  1.0000
  C   C165      1.0  0.19937  0.19901  0.46313  1.0000
  H   H270      1.0  0.24382  0.23524  0.43178  1.0000
  H   H271      1.0  0.22591  0.22452  0.45233  1.0000
  C   C166      1.0  0.00847  0.06088  0.32439  1.0000
  H   H272      1.0  0.31092  0.12450  0.28301  1.0000
  H   H273      1.0  0.38927  0.23864  0.40580  1.0000
  H   H274      1.0  0.48936  0.02965  0.25213  1.0000
  H   H275      1.0  0.20810  0.24981  0.48444  1.0000
  C   C167      1.0  0.30213  0.11032  0.33144  1.0000
  H   H276      1.0  0.27194  0.13397  0.47174  1.0000
  C   C168      1.0  0.49412  0.99736  0.26403  1.0000
  S   S55       1.0  0.34211  0.17031  0.47700  1.0000
  H   H277      1.0  0.02171  0.07555  0.33872  1.0000
  H   H278      1.0  0.30633  0.16516  0.44757  1.0000
  C   C169      1.0  0.05458  0.07435  0.28209  1.0000
  C   C170      1.0  0.31612  0.26450  0.47193  1.0000
  H   H279      1.0  0.29574  0.09118  0.28496  1.0000
  H   H280      1.0  0.08776  0.09785  0.24803  1.0000
  C   C171      1.0  0.00340  0.11933  0.29313  1.0000
  H   H281      1.0  0.34452  0.14070  0.43658  1.0000
  H   H282      1.0  0.31851  0.10903  0.33127  1.0000
  H   H283      1.0  0.28741  0.12023  0.44508  1.0000
  H   H284      1.0  0.37297  0.05046  0.31001  1.0000
  C   C172      1.0  0.31116  0.12508  0.29751  1.0000
  H   H285      1.0  0.34456  0.11363  0.44109  1.0000
  H   H286      1.0  0.40518  0.06267  0.29908  1.0000
  H   H287      1.0  0.04317  0.07457  0.25878  1.0000
  H   H288      1.0  0.05414  0.01974  0.24151  1.0000
  C   C173      1.0  0.30253  0.15308  0.44280  1.0000
  H   H289      1.0  0.43430  0.22033  0.36966  1.0000
  N   N10       1.0  0.42288  0.20467  0.41151  1.0000
  C   C174      1.0  0.43254  0.18492  0.42328  1.0000
  C   C175      1.0  0.41007  0.19934  0.40111  1.0000
  C   C176      1.0  0.40892  0.21771  0.42494  1.0000
  C   C177      1.0  0.43960  0.21519  0.39839  1.0000
  C   C178      1.0  0.44527  0.18692  0.43629  1.0000
  C   C179      1.0  0.42141  0.18335  0.38900  1.0000
  H   H290      1.0  0.17212  0.20685  0.37649  1.0000
  C   C180      1.0  0.45387  0.01679  0.31461  1.0000
  H   H291      1.0  0.42064  0.17628  0.43229  1.0000
  H   H292      1.0  0.44313  0.17460  0.41417  1.0000
  H   H293      1.0  0.40289  0.21307  0.39168  1.0000
  H   H294      1.0  0.39695  0.19319  0.41129  1.0000
  H   H295      1.0  0.44413  0.22456  0.40577  1.0000
  H   H296      1.0  0.45380  0.20379  0.39437  1.0000
  H   H297      1.0  0.45405  0.17150  0.44178  1.0000
  H   H298      1.0  0.43541  0.19258  0.44889  1.0000
  H   H299      1.0  0.42259  0.16760  0.39791  1.0000
  H   H300      1.0  0.41253  0.18442  0.37846  1.0000
  H   H301      1.0  0.43696  0.18559  0.38124  1.0000
  H   H302      1.0  0.42956  0.02585  0.34718  1.0000
  H   H303      1.0  0.17456  0.06376  0.30885  1.0000
  C   C181      1.0  0.20855  0.18559  0.45085  1.0000
  H   H304      1.0  0.22011  0.29426  0.46299  1.0000
  C   C182      1.0  0.16290  0.22314  0.34138  1.0000
  N   N11       1.0  0.31150  0.20697  0.35928  1.0000
  C   C183      1.0  0.31813  0.20638  0.33855  1.0000
  C   C184      1.0  0.28955  0.20450  0.36569  1.0000
  C   C185      1.0  0.32510  0.18918  0.36971  1.0000
  C   C186      1.0  0.31401  0.22710  0.36126  1.0000
  C   C187      1.0  0.34103  0.20600  0.32946  1.0000
  C   C188      1.0  0.27401  0.22162  0.35598  1.0000
  C   C189      1.0  0.31720  0.18176  0.39109  1.0000
  C   C190      1.0  0.30548  0.23256  0.38084  1.0000
  H   H305      1.0  0.31457  0.19269  0.33615  1.0000
  H   H306      1.0  0.30963  0.21992  0.32989  1.0000
  H   H307      1.0  0.28370  0.20336  0.38108  1.0000
  H   H308      1.0  0.28836  0.18974  0.36343  1.0000
  H   H309      1.0  0.32820  0.17545  0.36366  1.0000
  H   H310      1.0  0.34032  0.19269  0.36787  1.0000
  H   H311      1.0  0.33049  0.22769  0.35768  1.0000
  H   H312      1.0  0.30755  0.24016  0.35067  1.0000
  H   H313      1.0  0.34382  0.20578  0.31429  1.0000
  H   H314      1.0  0.34578  0.21977  0.33001  1.0000
  H   H315      1.0  0.35110  0.19208  0.33590  1.0000
  H   H316      1.0  0.27395  0.23690  0.35784  1.0000
  H   H317      1.0  0.27649  0.22181  0.34078  1.0000
  H   H318      1.0  0.25838  0.21872  0.36252  1.0000
  H   H319      1.0  0.32955  0.16981  0.39681  1.0000
  H   H320      1.0  0.30404  0.17438  0.39394  1.0000
  H   H321      1.0  0.31317  0.19398  0.39899  1.0000
  H   H322      1.0  0.31741  0.22727  0.38932  1.0000
  H   H323      1.0  0.29170  0.22663  0.38911  1.0000
  H   H324      1.0  0.30057  0.24946  0.37893  1.0000
  C   C191      1.0  0.31079  0.08580  0.28896  1.0000
  H   H325      1.0  0.31579  0.06920  0.28904  1.0000
  H   H326      1.0  0.24589  0.28267  0.45547  1.0000
  C   C192      1.0  0.09165  0.03766  0.26919  1.0000
  H   H327      1.0  0.43566  0.03569  0.29416  1.0000
  H   H328      1.0  0.10826  0.03218  0.26381  1.0000
  C   C193      1.0  0.20693  0.26734  0.42995  1.0000
  H   H329      1.0  0.34023  0.27305  0.44722  1.0000
  H   H330      1.0  0.25683  0.24949  0.45139  1.0000
  Fe  Fe26      1.0  0.28469  0.30701  0.43281  1.0000
  H   H331      1.0  0.28882  0.15417  0.29356  1.0000
  H   H332      1.0  0.46517  0.10546  0.31672  1.0000
  H   H333      1.0  0.28239  0.15238  0.47612  1.0000
  H   H334      1.0  0.01216  0.02930  0.30720  1.0000
  H   H335      1.0  0.44929  0.08199  0.30049  1.0000
  H   H336      1.0  0.00644  0.18334  0.33307  1.0000
  H   H337      1.0  0.45240  0.11294  0.35664  1.0000
  H   H338      1.0  0.39210  0.06652  0.32166  1.0000
  H   H339      1.0  0.06661  0.04290  0.25555  1.0000
  C   C194      1.0  0.33407  0.27548  0.46183  1.0000
  H   H340      1.0  0.36289  0.21715  0.47302  1.0000
  H   H341      1.0  0.18868  0.21294  0.45877  1.0000
  H   H342      1.0  0.35701  0.12279  0.45388  1.0000
  H   H343      1.0  0.44670  0.08779  0.34169  1.0000
  C   C195      1.0  0.20420  0.19463  0.48086  1.0000
  N   N12       1.0  0.48149  0.10626  0.33703  1.0000
  C   C196      1.0  0.23316  0.27283  0.48519  1.0000
  H   H344      1.0  0.44768  0.23748  0.37238  1.0000
  H   H345      1.0  0.13711  0.06447  0.34288  1.0000
  H   H346      1.0  0.00542  0.11983  0.33760  1.0000
  H   H347      1.0  0.08558  0.02364  0.27685  1.0000
  C   C197      1.0  0.14445  0.19816  0.39403  1.0000
  H   H348      1.0  0.15937  0.24265  0.37083  1.0000
  S   S56       1.0  0.10174  0.11476  0.32609  1.0000
  H   H349      1.0  0.13998  0.26106  0.34015  1.0000
  H   H350      1.0  0.22028  0.30089  0.36752  1.0000
  Fe  Fe27      1.0  0.31777  0.28004  0.41039  1.0000
  H   H351      1.0  0.49204  0.11567  0.29292  1.0000
  C   C198      1.0  0.99731  0.11763  0.31268  1.0000
  C   C199      1.0  0.45522  0.08284  0.35317  1.0000
  H   H352      1.0  0.45187  0.03415  0.25684  1.0000
  N   N13       1.0  0.32116  0.24291  0.48323  1.0000
  H   H353      1.0  0.46477  0.13843  0.35874  1.0000
  C   C200      1.0  0.35059  0.23831  0.40004  1.0000
  H   H354      1.0  0.15728  0.06560  0.38458  1.0000
  C   C201      1.0  0.35416  0.22590  0.46205  1.0000
  S   S57       1.0  0.31025  0.29713  0.38226  1.0000
  Fe  Fe28      1.0  0.27765  0.29721  0.39812  1.0000
  H   H355      1.0  0.31471  0.15657  0.28824  1.0000
  N   N14       1.0  0.16141  0.07785  0.34398  1.0000
  C   C202      1.0  0.17894  0.06130  0.33754  1.0000
  C   C203      1.0  0.16745  0.08651  0.35741  1.0000
  C   C204      1.0  0.15647  0.09488  0.32745  1.0000
  C   C205      1.0  0.14278  0.06866  0.35343  1.0000
  C   C206      1.0  0.17638  0.05218  0.32207  1.0000
  C   C207      1.0  0.17102  0.07166  0.37618  1.0000
  C   C208      1.0  0.17449  0.10464  0.31471  1.0000
  C   C209      1.0  0.12435  0.08229  0.36420  1.0000
  H   H356      1.0  0.19357  0.06679  0.33244  1.0000
  H   H357      1.0  0.18151  0.04812  0.34958  1.0000
  H   H358      1.0  0.15591  0.10016  0.36099  1.0000
  H   H359      1.0  0.18187  0.09216  0.35066  1.0000
  H   H360      1.0  0.14973  0.08966  0.31830  1.0000
  H   H361      1.0  0.14447  0.10766  0.33230  1.0000
  H   H362      1.0  0.30445  0.27452  0.48072  1.0000
  H   H363      1.0  0.04831  0.13447  0.28526  1.0000
  H   H364      1.0  0.11659  0.22044  0.37244  1.0000
  C   C210      1.0  0.24602  0.25675  0.39107  1.0000
  H   H365      1.0  0.11300  0.19949  0.35256  1.0000
  C   C211      1.0  0.22671  0.16283  0.47436  1.0000
  H   H366      1.0  0.20060  0.27718  0.36569  1.0000
  H   H367      1.0  0.35971  0.30488  0.42731  1.0000
  C   C212      1.0  0.21327  0.27131  0.37274  1.0000
  C   C213      1.0  0.15810  0.20397  0.37421  1.0000
  H   H368      1.0  0.19067  0.22333  0.35003  1.0000
  C   C214      1.0  0.41540  0.03249  0.34155  1.0000
  C   C215      1.0  0.03429  0.12948  0.29300  1.0000
  N   N15       1.0  0.14855  0.22192  0.36060  1.0000
  C   C216      1.0  0.12825  0.21945  0.35904  1.0000
  H   H369      1.0  0.16850  0.20773  0.33792  1.0000
  H   H370      1.0  0.99912  0.12335  0.23839  1.0000
  S   S58       1.0  0.28552  0.27779  0.42525  1.0000
  C   C217      1.0  0.24165  0.24521  0.45765  1.0000
  H   H371      1.0  0.32354  0.23215  0.45812  1.0000
  C   C218      1.0  0.24076  0.27770  0.38299  1.0000
  H   H372      1.0  0.39399  0.03033  0.30454  1.0000
  C   C219      1.0  0.14513  0.24095  0.36785  1.0000
  C   C220      1.0  0.18207  0.23157  0.33888  1.0000
  C   C221      1.0  0.12865  0.19958  0.35346  1.0000
  H   H373      1.0  0.13437  0.23982  0.38191  1.0000
  C   C222      1.0  0.18706  0.27651  0.47319  1.0000
  C   C223      1.0  0.22448  0.28476  0.37375  1.0000
  C   C224      1.0  0.30982  0.08895  0.30870  1.0000
  H   H374      1.0  0.24698  0.13292  0.31882  1.0000
  C   C225      1.0  0.47121  0.11660  0.32065  1.0000
  C   C226      1.0  0.47705  0.14080  0.34590  1.0000
  C   C227      1.0  0.00984  0.12167  0.32240  1.0000
  H   H375      1.0  0.42117  0.07339  0.32511  1.0000
  C   C228      1.0  0.02832  0.12771  0.31255  1.0000
  S   S59       1.0  0.25297  0.29633  0.38432  1.0000
  C   C229      1.0  0.22223  0.27407  0.43730  1.0000
  H   H376      1.0  0.27142  0.10033  0.31557  1.0000
  C   C230      1.0  0.30344  0.14780  0.29832  1.0000
  S   S60       1.0  0.31754  0.30793  0.41976  1.0000
  H   H377      1.0  0.08956  0.04656  0.27985  1.0000
  H   H378      1.0  0.21704  0.29100  0.43530  1.0000
  C   C231      1.0  0.46522  0.09978  0.35407  1.0000
  H   H379      1.0  0.06634  0.07922  0.28616  1.0000
  C   C232      1.0  0.34338  0.12646  0.44763  1.0000
  H   H380      1.0  0.35880  0.24069  0.45553  1.0000
  H   H381      1.0  0.40895  0.01904  0.34278  1.0000
  H   H382      1.0  0.28122  0.25050  0.47471  1.0000
  C   C233      1.0  0.99741  0.04074  0.30866  1.0000
  N   N16       1.0  0.22460  0.26404  0.45738  1.0000
  H   H383      1.0  0.21029  0.25073  0.43061  1.0000
  H   H384      1.0  0.32760  0.12102  0.29823  1.0000
  C   C234      1.0  0.36880  0.31688  0.42367  1.0000
  H   H385      1.0  0.31372  0.11613  0.43548  1.0000
  H   H386      1.0  0.31395  0.15101  0.42948  1.0000
  H   H387      1.0  0.36005  0.01986  0.24872  1.0000
  H   H388      1.0  0.03958  0.08239  0.28919  1.0000
  H   H389      1.0  0.47147  0.09431  0.36714  1.0000
  C   C235      1.0  0.30242  0.11674  0.44911  1.0000
  C   C236      1.0  0.08081  0.04878  0.25265  1.0000
  C   C237      1.0  0.43190  0.05996  0.32001  1.0000
  H   H390      1.0  0.20019  0.24733  0.46516  1.0000
  C   C238      1.0  0.33103  0.22813  0.47032  1.0000
  C   C239      1.0  0.23100  0.27920  0.46444  1.0000
  H   H391      1.0  0.38195  0.03158  0.32900  1.0000
  H   H392      1.0  0.40865  0.24952  0.40936  1.0000
  H   H393      1.0  0.38490  0.05017  0.35251  1.0000
  H   H394      1.0  0.00413  0.07644  0.31567  1.0000
  C   C240      1.0  0.32392  0.12916  0.46343  1.0000
  H   H395      1.0  0.32584  0.11533  0.47491  1.0000
  H   H396      1.0  0.29251  0.09783  0.36156  1.0000
  N   N17       1.0  0.29968  0.11006  0.31228  1.0000
  C   C241      1.0  0.01251  0.06360  0.34257  1.0000
  H   H397      1.0  0.29905  0.18155  0.47822  1.0000
  H   H398      1.0  0.37445  0.31569  0.43633  1.0000
  H   H399      1.0  0.35860  0.21693  0.45091  1.0000
  H   H400      1.0  0.30575  0.07873  0.34822  1.0000
  H   H401      1.0  0.45771  0.05704  0.29541  1.0000
  H   H402      1.0  0.42464  0.01651  0.31096  1.0000
  H   H403      1.0  0.46016  0.02497  0.32160  1.0000
  H   H404      1.0  0.99849  0.06861  0.35276  1.0000
  H   H405      1.0  0.27614  0.12070  0.29595  1.0000
  H   H406      1.0  0.20753  0.27521  0.41491  1.0000
  H   H407      1.0  0.05511  0.05776  0.28784  1.0000
  C   C242      1.0  0.46090  0.01933  0.26175  1.0000
  S   S61       1.0  0.39593  0.17894  0.46987  1.0000
  S   S62       1.0  0.27116  0.30927  0.46312  1.0000
  H   H408      1.0  0.26648  0.14447  0.31980  1.0000
  H   H409      1.0  0.02087  0.03476  0.23888  1.0000
  H   H410      1.0  0.31588  0.09097  0.47019  1.0000
  H   H411      1.0  0.02168  0.04926  0.34961  1.0000
  H   H412      1.0  0.32889  0.21239  0.47791  1.0000
  H   H413      1.0  0.47032  0.14992  0.33366  1.0000
  H   H414      1.0  0.34675  0.27120  0.46924  1.0000
  H   H415      1.0  0.23681  0.14859  0.47897  1.0000
  C   C243      1.0  0.21804  0.17660  0.48641  1.0000
  H   H416      1.0  0.17274  0.27211  0.47343  1.0000
  H   H417      1.0  0.01080  0.06571  0.28760  1.0000
  H   H418      1.0  0.00153  0.08661  0.24325  1.0000
  S   S63       1.0  0.42496  0.00566  0.27504  1.0000
  H   H419      1.0  0.28929  0.09248  0.47073  1.0000
  N   N18       1.0  0.07599  0.07190  0.24834  1.0000
  Fe  Fe29      1.0  0.30685  0.32519  0.39313  1.0000
  C   C244      1.0  0.28607  0.13633  0.47432  1.0000
  C   C245      1.0  0.01295  0.02178  0.24478  1.0000
  H   H420      1.0  0.09755  0.00465  0.31298  1.0000
  S   S64       1.0  0.11262  0.14155  0.23993  1.0000
  H   H421      1.0  0.01107  0.01998  0.33950  1.0000
  C   C246      1.0  0.49120  0.12042  0.34209  1.0000
  C   C247      1.0  0.45150  0.00272  0.27106  1.0000
  H   H422      1.0  0.48616  0.15019  0.34856  1.0000
  C   C248      1.0  0.99855  0.05724  0.29007  1.0000
  H   H423      1.0  0.38204  0.31292  0.41219  1.0000
  H   H424      1.0  0.12514  0.08048  0.24201  1.0000
  H   H425      1.0  0.04212  0.14360  0.23767  1.0000
  H   H426      1.0  0.00221  0.04961  0.27808  1.0000
  Fe  Fe30      1.0  0.41408  0.15270  0.48718  1.0000
  C   C249      1.0  0.38778  0.25541  0.53246  1.0000
  Fe  Fe31      1.0  0.42683  0.15801  0.62685  1.0000
  S   S65       1.0  0.41981  0.12673  0.63441  1.0000
  S   S66       1.0  0.41254  0.18401  0.60583  1.0000
  Fe  Fe32      1.0  0.42109  0.12681  0.66374  1.0000
  S   S67       1.0  0.39925  0.11142  0.68797  1.0000
  C   C250      1.0  0.09588  0.00330  0.67249  1.0000
  S   S68       1.0  0.42542  0.15922  0.65670  1.0000
  H   H427      1.0  0.29276  0.24788  0.50416  1.0000
  H   H428      1.0  0.16807  0.02129  0.71961  1.0000
  C   C251      1.0  0.22332  0.30731  0.55464  1.0000
  C   C252      1.0  0.40813  0.04075  0.69573  1.0000
  Fe  Fe33      1.0  0.38592  0.15972  0.52409  1.0000
  S   S69       1.0  0.41471  0.17051  0.50759  1.0000
  S   S70       1.0  0.37852  0.14776  0.55556  1.0000
  H   H429      1.0  0.12450  0.04815  0.72416  1.0000
  H   H430      1.0  0.39077  0.07752  0.71893  1.0000
  C   C253      1.0  0.04882  0.00432  0.71078  1.0000
  H   H431      1.0  0.06319  0.04279  0.69187  1.0000
  S   S71       1.0  0.36511  0.18667  0.51008  1.0000
  S   S72       1.0  0.38698  0.13964  0.50490  1.0000
  Fe  Fe34      1.0  0.20631  0.20572  0.52113  1.0000
  S   S73       1.0  0.19515  0.22725  0.54091  1.0000
  H   H432      1.0  0.33658  0.21602  0.54252  1.0000
  Fe  Fe35      1.0  0.23981  0.18007  0.54120  1.0000
  S   S74       1.0  0.23174  0.19934  0.56262  1.0000
  S   S75       1.0  0.26616  0.15315  0.54311  1.0000
  Fe  Fe36      1.0  0.19926  0.19859  0.56373  1.0000
  S   S76       1.0  0.17803  0.19428  0.59267  1.0000
  Fe  Fe37      1.0  0.22841  0.22595  0.53813  1.0000
  H   H433      1.0  0.46047  0.08670  0.58194  1.0000
  S   S77       1.0  0.20773  0.17713  0.54406  1.0000
  S   S78       1.0  0.23918  0.20674  0.51651  1.0000
  Fe  Fe38      1.0  0.11778  0.09450  0.69508  1.0000
  S   S79       1.0  0.13675  0.07626  0.67359  1.0000
  S   S80       1.0  0.12932  0.08790  0.72177  1.0000
  Fe  Fe39      1.0  0.08172  0.10867  0.67549  1.0000
  S   S81       1.0  0.09784  0.09115  0.65281  1.0000
  S   S82       1.0  0.04823  0.12412  0.68006  1.0000
  Fe  Fe40      1.0  0.10825  0.06580  0.67596  1.0000
  S   S83       1.0  0.10692  0.03244  0.68297  1.0000
  Fe  Fe41      1.0  0.12489  0.10347  0.65227  1.0000
  S   S84       1.0  0.14546  0.11208  0.62361  1.0000
  S   S85       1.0  0.09007  0.08227  0.69878  1.0000
  S   S86       1.0  0.10803  0.12285  0.67362  1.0000
  H   H434      1.0  0.48822  0.10001  0.54314  1.0000
  C   C254      1.0  0.03512  0.11830  0.66590  1.0000
  C   C255      1.0  0.04558  0.11296  0.64870  1.0000
  C   C256      1.0  0.03564  0.10608  0.63855  1.0000
  H   H435      1.0  0.00170  0.02996  0.58478  1.0000
  H   H436      1.0  0.31214  0.21705  0.56751  1.0000
  C   C257      1.0  0.01431  0.11762  0.67248  1.0000
  H   H437      1.0  0.06131  0.11431  0.64307  1.0000
  H   H438      1.0  0.04401  0.10168  0.62538  1.0000
  H   H439      1.0  0.43268  0.02869  0.66311  1.0000
  H   H440      1.0  0.03347  0.05878  0.61153  1.0000
  H   H441      1.0  0.38091  0.30868  0.63716  1.0000
  H   H442      1.0  0.37433  0.26115  0.61409  1.0000
  H   H443      1.0  0.41149  0.24548  0.61147  1.0000
  H   H444      1.0  0.27251  0.23123  0.49435  1.0000
  H   H445      1.0  0.01958  0.06833  0.67556  1.0000
  H   H446      1.0  0.32242  0.27175  0.50303  1.0000
  H   H447      1.0  0.30450  0.22171  0.50490  1.0000
  H   H448      1.0  0.45267  0.14329  0.51970  1.0000
  H   H449      1.0  0.46931  0.15912  0.57045  1.0000
  C   C258      1.0  0.41503  0.07015  0.73397  1.0000
  C   C259      1.0  0.46573  0.04222  0.68142  1.0000
  C   C260      1.0  0.38034  0.26760  0.51663  1.0000
  H   H450      1.0  0.21813  0.27280  0.49524  1.0000
  H   H451      1.0  0.47707  0.04635  0.66809  1.0000
  N   N19       1.0  0.45131  0.11800  0.56682  1.0000
  S   S87       1.0  0.48475  0.15416  0.65682  1.0000
  C   C261      1.0  0.16604  0.17312  0.60064  1.0000
  C   C262      1.0  0.15646  0.16776  0.61981  1.0000
  C   C263      1.0  0.14900  0.14955  0.62696  1.0000
  C   C264      1.0  0.15111  0.13665  0.61492  1.0000
  C   C265      1.0  0.15977  0.14254  0.59563  1.0000
  C   C266      1.0  0.16709  0.16075  0.58849  1.0000
  H   H452      1.0  0.15544  0.17735  0.62927  1.0000
  H   H453      1.0  0.14236  0.14512  0.64186  1.0000
  H   H454      1.0  0.16113  0.13278  0.58621  1.0000
  H   H455      1.0  0.17388  0.16499  0.57364  1.0000
  C   C267      1.0  0.39355  0.23928  0.50075  1.0000
  C   C268      1.0  0.38339  0.25960  0.50071  1.0000
  C   C269      1.0  0.39863  0.23536  0.53221  1.0000
  C   C270      1.0  0.40125  0.22718  0.51647  1.0000
  S   S88       1.0  0.08264  0.99640  0.62601  1.0000
  H   H456      1.0  0.40452  0.22600  0.54438  1.0000
  H   H457      1.0  0.40926  0.21154  0.51650  1.0000
  C   C271      1.0  0.22652  0.31432  0.52053  1.0000
  C   C272      1.0  0.35041  0.29622  0.62390  1.0000
  C   C273      1.0  0.28435  0.16927  0.50679  1.0000
  C   C274      1.0  0.28720  0.15820  0.52476  1.0000
  C   C275      1.0  0.30701  0.15098  0.52805  1.0000
  C   C276      1.0  0.32391  0.15510  0.51348  1.0000
  H   H458      1.0  0.05377  0.01710  0.68153  1.0000
  H   H459      1.0  0.26916  0.17421  0.50401  1.0000
  H   H460      1.0  0.30927  0.14237  0.54192  1.0000
  H   H461      1.0  0.33919  0.14951  0.51611  1.0000
  H   H462      1.0  0.35404  0.29216  0.63805  1.0000
  C   C277      1.0  0.10019  0.03395  0.64824  1.0000
  C   C278      1.0  0.10069  0.02271  0.66667  1.0000
  H   H463      1.0  0.10403  0.04890  0.64363  1.0000
  C   C279      1.0  0.01521  0.10422  0.64563  1.0000
  C   C280      1.0  0.40194  0.17496  0.59197  1.0000
  C   C281      1.0  0.39083  0.15949  0.60025  1.0000
  C   C282      1.0  0.38342  0.15149  0.58893  1.0000
  C   C283      1.0  0.38718  0.15886  0.56930  1.0000
  C   C284      1.0  0.39779  0.17475  0.56105  1.0000
  C   C285      1.0  0.40508  0.18285  0.57243  1.0000
  H   H464      1.0  0.38790  0.15371  0.61539  1.0000
  H   H465      1.0  0.37496  0.13940  0.59538  1.0000
  H   H466      1.0  0.40050  0.18072  0.54595  1.0000
  H   H467      1.0  0.41369  0.19482  0.56605  1.0000
  C   C286      1.0  0.41130  0.09840  0.70681  1.0000
  C   C287      1.0  0.42859  0.10395  0.70823  1.0000
  H   H468      1.0  0.47179  0.02604  0.68780  1.0000
  H   H469      1.0  0.03649  0.03639  0.58311  1.0000
  N   N20       1.0  0.03208  0.04084  0.69466  1.0000
  C   C288      1.0  0.43906  0.09268  0.72251  1.0000
  H   H470      1.0  0.43375  0.11710  0.69846  1.0000
  C   C289      1.0  0.27109  0.26886  0.53629  1.0000
  H   H471      1.0  0.49092  0.09322  0.67399  1.0000
  Fe  Fe42      1.0  0.45368  0.11531  0.63007  1.0000
  H   H472      1.0  0.40042  0.05681  0.69080  1.0000
  H   H473      1.0  0.47311  0.13488  0.53118  1.0000
  H   H474      1.0  0.04787  0.04250  0.71504  1.0000
  H   H475      1.0  0.46449  0.12528  0.72482  1.0000
  H   H476      1.0  0.44475  0.15428  0.58256  1.0000
  H   H477      1.0  0.41658  0.25719  0.58655  1.0000
  H   H478      1.0  0.34538  0.28346  0.62157  1.0000
  H   H479      1.0  0.00605  0.12190  0.68571  1.0000
  C   C290      1.0  0.04056  0.01865  0.69362  1.0000
  C   C291      1.0  0.04597  0.05286  0.65872  1.0000
  H   H480      1.0  0.01531  0.03260  0.72355  1.0000
  H   H481      1.0  0.21205  0.30922  0.52266  1.0000
  C   C292      1.0  0.47278  0.13854  0.69501  1.0000
  C   C293      1.0  0.09717  0.00134  0.73301  1.0000
  C   C294      1.0  0.00481  0.02028  0.59849  1.0000
  H   H482      1.0  0.41195  0.31014  0.56050  1.0000
  H   H483      1.0  0.30179  0.20868  0.60563  1.0000
  H   H484      1.0  0.45870  0.13769  0.69208  1.0000
  H   H485      1.0  0.00825  0.06959  0.71970  1.0000
  H   H486      1.0  0.11051  0.13128  0.71750  1.0000
  S   S89       1.0  0.33034  0.28976  0.53927  1.0000
  C   C295      1.0  0.25842  0.25866  0.57550  1.0000
  S   S90       1.0  0.45448  0.11284  0.65998  1.0000
  C   C296      1.0  0.11118  0.12483  0.73217  1.0000
  H   H487      1.0  0.23765  0.24347  0.57047  1.0000
  C   C297      1.0  0.46562  0.12937  0.56952  1.0000
  Fe  Fe43      1.0  0.45904  0.14506  0.65038  1.0000
  H   H488      1.0  0.49189  0.08510  0.70752  1.0000
  Fe  Fe44      1.0  0.36872  0.16774  0.48935  1.0000
  C   C298      1.0  0.32104  0.16604  0.49550  1.0000
  H   H489      1.0  0.16886  0.01525  0.69791  1.0000
  S   S91       1.0  0.00420  0.09293  0.63369  1.0000
  C   C299      1.0  0.36821  0.30286  0.60786  1.0000
  C   C300      1.0  0.11430  0.03701  0.72974  1.0000
  H   H490      1.0  0.45970  0.07161  0.69016  1.0000
  H   H491      1.0  0.01666  0.04281  0.64068  1.0000
  H   H492      1.0  0.36091  0.22229  0.53205  1.0000
  H   H493      1.0  0.29451  0.23619  0.60180  1.0000
  C   C301      1.0  0.01240  0.04158  0.70956  1.0000
  C   C302      1.0  0.00444  0.11036  0.66248  1.0000
  Fe  Fe45      1.0  0.30875  0.29697  0.56581  1.0000
  C   C303      1.0  0.27343  0.27049  0.56722  1.0000
  H   H494      1.0  0.15211  0.03797  0.70370  1.0000
  C   C304      1.0  0.04436  0.04788  0.60338  1.0000
  C   C305      1.0  0.03316  0.12081  0.73133  1.0000
  C   C306      1.0  0.30139  0.23691  0.49505  1.0000
  H   H495      1.0  0.00078  0.05975  0.61870  1.0000
  H   H496      1.0  0.41971  0.28807  0.59120  1.0000
  S   S92       1.0  0.33360  0.29435  0.58045  1.0000
  H   H497      1.0  0.28349  0.22265  0.59152  1.0000
  H   H498      1.0  0.06992  0.14703  0.72728  1.0000
  H   H499      1.0  0.40403  0.31251  0.59260  1.0000
  H   H500      1.0  0.40565  0.10703  0.59802  1.0000
  H   H501      1.0  0.04502  0.01722  0.60186  1.0000
  H   H502      1.0  0.23428  0.07696  0.61988  1.0000
  H   H503      1.0  0.27437  0.30298  0.50120  1.0000
  H   H504      1.0  0.09462  0.03439  0.62135  1.0000
  H   H505      1.0  0.05657  0.03955  0.61128  1.0000
  H   H506      1.0  0.03225  0.00317  0.58209  1.0000
  H   H507      1.0  0.25928  0.31502  0.53077  1.0000
  C   C307      1.0  0.09489  0.02572  0.63564  1.0000
  H   H508      1.0  0.48937  0.07466  0.55734  1.0000
  H   H509      1.0  0.33704  0.30931  0.62397  1.0000
  C   C308      1.0  0.03482  0.03258  0.59874  1.0000
  C   C309      1.0  0.25575  0.25757  0.54440  1.0000
  H   H510      1.0  0.34747  0.24151  0.55595  1.0000
  N   N21       1.0  0.44501  0.04440  0.67744  1.0000
  H   H511      1.0  0.22189  0.31352  0.56716  1.0000
  H   H512      1.0  0.02411  0.13188  0.72135  1.0000
  C   C310      1.0  0.43045  0.03934  0.69619  1.0000
  C   C311      1.0  0.43829  0.06612  0.66711  1.0000
  H   H513      1.0  0.22175  0.17307  0.50012  1.0000
  H   H514      1.0  0.05175  0.05729  0.59005  1.0000
  S   S93       1.0  0.46899  0.08805  0.61706  1.0000
  C   C312      1.0  0.42196  0.07016  0.65536  1.0000
  C   C313      1.0  0.40474  0.25182  0.59882  1.0000
  C   C314      1.0  0.28869  0.12299  0.49395  1.0000
  C   C315      1.0  0.02099  0.02619  0.64132  1.0000
  H   H515      1.0  0.10799  0.03811  0.71744  1.0000
  C   C316      1.0  0.32632  0.25551  0.51041  1.0000
  H   H516      1.0  0.42947  0.04976  0.70526  1.0000
  H   H517      1.0  0.43238  0.07643  0.67723  1.0000
  C   C317      1.0  0.43249  0.07561  0.73518  1.0000
  C   C318      1.0  0.35095  0.22459  0.56136  1.0000
  H   H518      1.0  0.37015  0.31752  0.60962  1.0000
  H   H519      1.0  0.37234  0.28326  0.51659  1.0000
  S   S94       1.0  0.46085  0.14651  0.61985  1.0000
  C   C319      1.0  0.44731  0.02876  0.66616  1.0000
  Fe  Fe46      1.0  0.35487  0.29016  0.55293  1.0000
  H   H520      1.0  0.45126  0.16097  0.55690  1.0000
  H   H521      1.0  0.42446  0.13446  0.58316  1.0000
  H   H522      1.0  0.40669  0.03062  0.68736  1.0000
  H   H523      1.0  0.41075  0.08451  0.65764  1.0000
  H   H524      1.0  0.41296  0.05825  0.65884  1.0000
  H   H525      1.0  0.42909  0.07301  0.64001  1.0000
  N   N22       1.0  0.33637  0.21857  0.57989  1.0000
  C   C320      1.0  0.33818  0.23030  0.59327  1.0000
  H   H526      1.0  0.05251  0.03783  0.65488  1.0000
  H   H527      1.0  0.21925  0.08870  0.60225  1.0000
  C   C321      1.0  0.34189  0.19592  0.58820  1.0000
  C   C322      1.0  0.35952  0.22612  0.59774  1.0000
  H   H528      1.0  0.24583  0.07858  0.59555  1.0000
  C   C323      1.0  0.33238  0.18158  0.58229  1.0000
  H   H529      1.0  0.06198  0.16496  0.69629  1.0000
  H   H530      1.0  0.32758  0.22677  0.60723  1.0000
  H   H531      1.0  0.36697  0.22062  0.56320  1.0000
  H   H532      1.0  0.35874  0.19050  0.58479  1.0000
  H   H533      1.0  0.33758  0.19266  0.60394  1.0000
  H   H534      1.0  0.36585  0.20958  0.60240  1.0000
  H   H535      1.0  0.37063  0.23292  0.58557  1.0000
  H   H536      1.0  0.35824  0.23345  0.60945  1.0000
  H   H537      1.0  0.01564  0.01853  0.65624  1.0000
  H   H538      1.0  0.43337  0.11879  0.54720  1.0000
  H   H539      1.0  0.46869  0.31257  0.61260  1.0000
  H   H540      1.0  0.31572  0.18340  0.58834  1.0000
  H   H541      1.0  0.33943  0.16546  0.58793  1.0000
  H   H542      1.0  0.33507  0.18346  0.56684  1.0000
  N   N23       1.0  0.38826  0.28753  0.60632  1.0000
  H   H543      1.0  0.19038  0.30916  0.55716  1.0000
  C   C324      1.0  0.46304  0.03081  0.64714  1.0000
  C   C325      1.0  0.39558  0.28163  0.62451  1.0000
  H   H544      1.0  0.33677  0.22498  0.50543  1.0000
  H   H545      1.0  0.02899  0.01191  0.69103  1.0000
  C   C326      1.0  0.46671  0.05524  0.69461  1.0000
  C   C327      1.0  0.40124  0.30061  0.57035  1.0000
  H   H546      1.0  0.25499  0.32058  0.56138  1.0000
  H   H547      1.0  0.05726  0.07718  0.68368  1.0000
  H   H548      1.0  0.47074  0.12184  0.58303  1.0000
  C   C328      1.0  0.40397  0.29722  0.59071  1.0000
  H   H549      1.0  0.38604  0.27181  0.63580  1.0000
  H   H550      1.0  0.13387  0.01007  0.70806  1.0000
  H   H551      1.0  0.41135  0.27206  0.62269  1.0000
  H   H552      1.0  0.45190  0.01301  0.67456  1.0000
  H   H553      1.0  0.37827  0.27279  0.58969  1.0000
  C   C329      1.0  0.45694  0.15219  0.56979  1.0000
  H   H554      1.0  0.06891  0.13032  0.71384  1.0000
  H   H555      1.0  0.14939  0.99293  0.72305  1.0000
  H   H556      1.0  0.47895  0.02553  0.64931  1.0000
  C   C330      1.0  0.02740  0.05225  0.67566  1.0000
  H   H557      1.0  0.45959  0.04925  0.70955  1.0000
  H   H558      1.0  0.31298  0.25121  0.52144  1.0000
  C   C331      1.0  0.99878  0.05213  0.60848  1.0000
  H   H559      1.0  0.03788  0.02119  0.63790  1.0000
  H   H560      1.0  0.46098  0.04665  0.63854  1.0000
  C   C332      1.0  0.48767  0.14675  0.68036  1.0000
  H   H561      1.0  0.03891  0.15602  0.70188  1.0000
  H   H562      1.0  0.38566  0.30872  0.56852  1.0000
  H   H563      1.0  0.43618  0.02367  0.70410  1.0000
  H   H564      1.0  0.04708  0.07643  0.70819  1.0000
  C   C333      1.0  0.41763  0.10576  0.58490  1.0000
  H   H565      1.0  0.39965  0.03564  0.71042  1.0000
  C   C334      1.0  0.01883  0.00015  0.59367  1.0000
  C   C335      1.0  0.05909  0.14163  0.72230  1.0000
  H   H566      1.0  0.45170  0.07174  0.65705  1.0000
  H   H567      1.0  0.27402  0.12607  0.50437  1.0000
  H   H568      1.0  0.31190  0.24177  0.56944  1.0000
  S   S95       1.0  0.24264  0.25359  0.52938  1.0000
  C   C336      1.0  0.29783  0.22295  0.59512  1.0000
  H   H569      1.0  0.46393  0.11637  0.52456  1.0000
  C   C337      1.0  0.24969  0.25201  0.56409  1.0000
  N   N24       1.0  0.01294  0.03142  0.60852  1.0000
  H   H570      1.0  0.23887  0.30029  0.51996  1.0000
  H   H571      1.0  0.00226  0.00193  0.73167  1.0000
  H   H572      1.0  0.05814  0.05880  0.66103  1.0000
  C   C338      1.0  0.27995  0.27523  0.54761  1.0000
  S   S96       1.0  0.28343  0.27982  0.58140  1.0000
  C   C339      1.0  0.31479  0.22536  0.57691  1.0000
  C   C340      1.0  0.04953  0.15998  0.70819  1.0000
  H   H573      1.0  0.40066  0.23892  0.59565  1.0000
  H   H574      1.0  0.40503  0.28603  0.56566  1.0000
  N   N25       1.0  0.22367  0.12646  0.60348  1.0000
  C   C341      1.0  0.23003  0.14241  0.60950  1.0000
  C   C342      1.0  0.20346  0.12318  0.61651  1.0000
  C   C343      1.0  0.22061  0.13536  0.58357  1.0000
  C   C344      1.0  0.24029  0.10734  0.60435  1.0000
  C   C345      1.0  0.25010  0.14902  0.59761  1.0000
  C   C346      1.0  0.20375  0.11452  0.63762  1.0000
  C   C347      1.0  0.21370  0.12198  0.57430  1.0000
  C   C348      1.0  0.23415  0.08707  0.60562  1.0000
  H   H575      1.0  0.21774  0.15660  0.60948  1.0000
  H   H576      1.0  0.23226  0.13690  0.62425  1.0000
  H   H577      1.0  0.19639  0.11315  0.61230  1.0000
  H   H578      1.0  0.19217  0.13792  0.61566  1.0000
  H   H579      1.0  0.20939  0.15024  0.58293  1.0000
  H   H580      1.0  0.23501  0.13884  0.57380  1.0000
  H   H581      1.0  0.25319  0.10932  0.59182  1.0000
  H   H582      1.0  0.24696  0.10477  0.61687  1.0000
  H   H583      1.0  0.24845  0.15813  0.58333  1.0000
  H   H584      1.0  0.25398  0.15918  0.60456  1.0000
  H   H585      1.0  0.26325  0.13590  0.59640  1.0000
  H   H586      1.0  0.21608  0.10084  0.64000  1.0000
  H   H587      1.0  0.20497  0.12632  0.64435  1.0000
  H   H588      1.0  0.18893  0.10993  0.64508  1.0000
  H   H589      1.0  0.21090  0.13104  0.56027  1.0000
  H   H590      1.0  0.19917  0.11733  0.58236  1.0000
  H   H591      1.0  0.22590  0.10847  0.57155  1.0000
  H   H592      1.0  0.29131  0.28445  0.54110  1.0000
  C   C349      1.0  0.40425  0.08174  0.71992  1.0000
  C   C350      1.0  0.14168  0.00929  0.71933  1.0000
  C   C351      1.0  0.45938  0.13046  0.53024  1.0000
  H   H593      1.0  0.06260  0.00837  0.71227  1.0000
  H   H594      1.0  0.43280  0.14295  0.54990  1.0000
  C   C352      1.0  0.44336  0.12788  0.54901  1.0000
  H   H595      1.0  0.35989  0.19834  0.54800  1.0000
  C   C353      1.0  0.30127  0.17315  0.49214  1.0000
  H   H596      1.0  0.43848  0.11342  0.59696  1.0000
  S   S97       1.0  0.38242  0.26464  0.55305  1.0000
  H   H597      1.0  0.27580  0.27305  0.52114  1.0000
  C   C354      1.0  0.38529  0.26866  0.60218  1.0000
  C   C355      1.0  0.20458  0.29756  0.55895  1.0000
  H   H598      1.0  0.45360  0.08876  0.56043  1.0000
  C   C356      1.0  0.15851  0.02184  0.70986  1.0000
  H   H599      1.0  0.42459  0.08927  0.58601  1.0000
  C   C357      1.0  0.33444  0.24084  0.49671  1.0000
  H   H600      1.0  0.40964  0.11158  0.57302  1.0000
  C   C358      1.0  0.35175  0.21458  0.54532  1.0000
  C   C359      1.0  0.46158  0.09581  0.56712  1.0000
  H   H601      1.0  0.04163  0.17331  0.71465  1.0000
  H   H602      1.0  0.01623  0.04566  0.67235  1.0000
  H   H603      1.0  0.07997  0.10066  0.73265  1.0000
  C   C360      1.0  0.47610  0.13146  0.71349  1.0000
  H   H604      1.0  0.46116  0.02079  0.63883  1.0000
  H   H605      1.0  0.47993  0.12880  0.55847  1.0000
  H   H606      1.0  0.25323  0.25501  0.59072  1.0000
  C   C361      1.0  0.39638  0.29957  0.63245  1.0000
  C   C362      1.0  0.43325  0.11859  0.58341  1.0000
  H   H607      1.0  0.48298  0.05430  0.69431  1.0000
  H   H608      1.0  0.36258  0.30698  0.59462  1.0000
  H   H609      1.0  0.33355  0.24712  0.58775  1.0000
  H   H610      1.0  0.29662  0.31380  0.51587  1.0000
  C   C363      1.0  0.04758  0.04864  0.69980  1.0000
  C   C364      1.0  0.04510  0.07207  0.69582  1.0000
  Fe  Fe47      1.0  0.39398  0.19577  0.49173  1.0000
  H   H611      1.0  0.04090  0.06323  0.64603  1.0000
  H   H612      1.0  0.33846  0.25439  0.51783  1.0000
  H   H613      1.0  0.03024  0.08106  0.69298  1.0000
  C   C365      1.0  0.48457  0.09113  0.55781  1.0000
  H   H614      1.0  0.04396  0.11036  0.72243  1.0000
  H   H615      1.0  0.45246  0.09699  0.72354  1.0000
  H   H616      1.0  0.01867  0.00306  0.62929  1.0000
  H   H617      1.0  0.40320  0.29331  0.64510  1.0000
  S   S98       1.0  0.19303  0.21215  0.49559  1.0000
  H   H618      1.0  0.23698  0.29467  0.55465  1.0000
  H   H619      1.0  0.30033  0.12708  0.49898  1.0000
  C   C366      1.0  0.01131  0.01939  0.62867  1.0000
  H   H620      1.0  0.08594  0.01608  0.73165  1.0000
  C   C367      1.0  0.00024  0.06769  0.58930  1.0000
  C   C368      1.0  0.00016  0.06272  0.71306  1.0000
  H   H621      1.0  0.37750  0.26902  0.48854  1.0000
  C   C369      1.0  0.28498  0.31241  0.49257  1.0000
  H   H622      1.0  0.20731  0.28630  0.55010  1.0000
  C   C370      1.0  0.08967  0.00647  0.64162  1.0000
  H   H623      1.0  0.01586  0.07063  0.58313  1.0000
  H   H624      1.0  0.49390  0.09373  0.56641  1.0000
  H   H625      1.0  0.20212  0.28880  0.57386  1.0000
  H   H626      1.0  0.00171  0.03453  0.70604  1.0000
  C   C371      1.0  0.09008  0.99533  0.66009  1.0000
  C   C372      1.0  0.29749  0.31855  0.50083  1.0000
  H   H627      1.0  0.10491  0.99826  0.71882  1.0000
  H   H628      1.0  0.29254  0.10643  0.49437  1.0000
  H   H629      1.0  0.35012  0.24294  0.48929  1.0000
  H   H630      1.0  0.49419  0.07883  0.65663  1.0000
  H   H631      1.0  0.03734  0.00368  0.72425  1.0000
  H   H632      1.0  0.44150  0.31951  0.62018  1.0000
  H   H633      1.0  0.09634  0.99451  0.68672  1.0000
  H   H634      1.0  0.23112  0.31921  0.49012  1.0000
  H   H635      1.0  0.40604  0.30987  0.62217  1.0000
  H   H636      1.0  0.45703  0.32075  0.63481  1.0000
  N   N26       1.0  0.12632  0.01587  0.73617  1.0000
  N   N27       1.0  0.22624  0.32348  0.53658  1.0000
  Fe  Fe48      1.0  0.32842  0.32362  0.52980  1.0000
  S   S99       1.0  0.35515  0.32346  0.54136  1.0000
  C   C373      1.0  0.49457  0.13196  0.71730  1.0000
  C   C374      1.0  0.49544  0.08244  0.61549  1.0000
  C   C375      1.0  0.45616  0.32331  0.61984  1.0000
  H   H637      1.0  0.24008  0.28400  0.48801  1.0000
  Fe  Fe49      1.0  0.46458  0.99396  0.73382  1.0000
  H   H638      1.0  0.24336  0.25775  0.48847  1.0000
  H   H639      1.0  0.99578  0.07347  0.70023  1.0000
  S   S100      1.0  0.43477  0.01003  0.74897  1.0000
  H   H640      1.0  0.10401  0.00185  0.75910  1.0000
  H   H641      1.0  0.05042  0.04435  0.79937  1.0000
  Fe  Fe50      1.0  0.45385  0.02763  0.75503  1.0000
  H   H642      1.0  0.12515  0.02070  0.76359  1.0000
  C   C376      1.0  0.99946  0.11848  0.81150  1.0000
  S   S101      1.0  0.09092  0.01663  0.79406  1.0000
  H   H643      1.0  0.13005  0.32130  0.98419  1.0000
  C   C377      1.0  0.19004  0.20225  0.96820  1.0000
  C   C378      1.0  0.04702  0.05264  0.81079  1.0000
  H   H644      1.0  0.36373  0.01498  0.82992  1.0000
  H   H645      1.0  0.20798  0.26110  0.95028  1.0000
  H   H646      1.0  0.07860  0.30483  0.95367  1.0000
  C   C379      1.0  0.11350  0.10830  0.77009  1.0000
  H   H647      1.0  0.45462  0.06065  0.80997  1.0000
  C   C380      1.0  0.05628  0.11700  0.75270  1.0000
  H   H648      1.0  0.23949  0.23611  0.94267  1.0000
  C   C381      1.0  0.16090  0.99569  0.88276  1.0000
  C   C382      1.0  0.47696  0.08898  0.78826  1.0000
  H   H649      1.0  0.20009  0.30906  0.94019  1.0000
  Fe  Fe51      1.0  0.17745  0.20259  0.89134  1.0000
  S   S102      1.0  0.14859  0.21776  0.90889  1.0000
  S   S103      1.0  0.18061  0.18116  0.87218  1.0000
  Fe  Fe52      1.0  0.20454  0.22231  0.90385  1.0000
  S   S104      1.0  0.17802  0.23850  0.92252  1.0000
  S   S105      1.0  0.23615  0.22641  0.90226  1.0000
  Fe  Fe53      1.0  0.16684  0.20937  0.93132  1.0000
  S   S106      1.0  0.15329  0.20074  0.96236  1.0000
  Fe  Fe54      1.0  0.16237  0.24570  0.89853  1.0000
  S   S107      1.0  0.14371  0.27712  0.88948  1.0000
  S   S108      1.0  0.19481  0.19209  0.91474  1.0000
  S   S109      1.0  0.18973  0.23151  0.87900  1.0000
  Fe  Fe55      1.0  0.10639  0.08931  0.84011  1.0000
  S   S110      1.0  0.08704  0.10292  0.86464  1.0000
  Fe  Fe56      1.0  0.09544  0.12791  0.81113  1.0000
  S   S111      1.0  0.07500  0.14451  0.83326  1.0000
  S   S112      1.0  0.09682  0.14501  0.78074  1.0000
  Fe  Fe57      1.0  0.10010  0.13090  0.84941  1.0000
  S   S113      1.0  0.10370  0.15224  0.86588  1.0000
  Fe  Fe58      1.0  0.06381  0.11550  0.84667  1.0000
  S   S114      1.0  0.03062  0.11430  0.85855  1.0000
  S   S115      1.0  0.12167  0.11627  0.82608  1.0000
  S   S116      1.0  0.08205  0.09990  0.82325  1.0000
  C   C383      1.0  0.01805  0.11740  0.84046  1.0000
  C   C384      1.0  0.02795  0.12297  0.82155  1.0000
  C   C385      1.0  0.01864  0.12355  0.80711  1.0000
  C   C386      1.0  0.22568  0.29197  0.95401  1.0000
  H   H650      1.0  0.08916  0.03428  0.75544  1.0000
  H   H651      1.0  0.14573  0.16741  0.79763  1.0000
  H   H652      1.0  0.04286  0.12671  0.81804  1.0000
  H   H653      1.0  0.02652  0.12755  0.79258  1.0000
  C   C387      1.0  0.10546  0.12914  0.76436  1.0000
  H   H654      1.0  0.15039  0.24706  0.96364  1.0000
  H   H655      1.0  0.03966  0.05459  0.84633  1.0000
  H   H656      1.0  0.19128  0.32437  0.85617  1.0000
  H   H657      1.0  0.19683  0.19857  0.95449  1.0000
  C   C388      1.0  0.15929  0.17244  0.87118  1.0000
  C   C389      1.0  0.13939  0.18078  0.87978  1.0000
  C   C390      1.0  0.12268  0.17404  0.87829  1.0000
  C   C391      1.0  0.12561  0.15886  0.86824  1.0000
  C   C392      1.0  0.14553  0.15028  0.85979  1.0000
  C   C393      1.0  0.16229  0.15718  0.86115  1.0000
  H   H658      1.0  0.13684  0.19253  0.88751  1.0000
  H   H659      1.0  0.10733  0.18072  0.88490  1.0000
  H   H660      1.0  0.14797  0.13856  0.85203  1.0000
  H   H661      1.0  0.17763  0.15060  0.85447  1.0000
  C   C394      1.0  0.23881  0.29411  0.88921  1.0000
  C   C395      1.0  0.22222  0.28824  0.88657  1.0000
  C   C396      1.0  0.22145  0.26750  0.89049  1.0000
  C   C397      1.0  0.23738  0.25243  0.89689  1.0000
  C   C398      1.0  0.25426  0.25821  0.89913  1.0000
  C   C399      1.0  0.25486  0.27905  0.89556  1.0000
  H   H662      1.0  0.20978  0.29978  0.88167  1.0000
  H   H663      1.0  0.20859  0.26316  0.88837  1.0000
  H   H664      1.0  0.26672  0.24659  0.90395  1.0000
  H   H665      1.0  0.26781  0.28345  0.89746  1.0000
  H   H666      1.0  0.09884  0.17747  0.81112  1.0000
  C   C400      1.0  0.07625  0.26271  0.97802  1.0000
  H   H667      1.0  0.15440  0.20990  0.82909  1.0000
  C   C401      1.0  0.45524  0.09638  0.78412  1.0000
  C   C402      1.0  0.36610  0.00000  0.82623  1.0000
  H   H668      1.0  0.13284  0.24448  0.94140  1.0000
  C   C403      1.0  0.15818  0.99992  0.85026  1.0000
  C   C404      1.0  0.99844  0.11323  0.84488  1.0000
  H   H669      1.0  0.47667  0.09637  0.79966  1.0000
  C   C405      1.0  0.12978  0.17035  0.79599  1.0000
  H   H670      1.0  0.24578  0.26070  0.93625  1.0000
  H   H671      1.0  0.04616  0.11243  0.76669  1.0000
  C   C406      1.0  0.10713  0.02512  0.83851  1.0000
  H   H672      1.0  0.04424  0.01361  0.80844  1.0000
  N   N28       1.0  0.04428  0.13169  0.73875  1.0000
  C   C407      1.0  0.15004  0.32124  0.92111  1.0000
  H   H673      1.0  0.31853  0.30321  0.97816  1.0000
  H   H674      1.0  0.48791  0.09601  0.77598  1.0000
  C   C408      1.0  0.14753  0.29534  0.89955  1.0000
  C   C409      1.0  0.16452  0.29139  0.90747  1.0000
  C   C410      1.0  0.16558  0.30404  0.91859  1.0000
  H   H675      1.0  0.24623  0.26325  0.97719  1.0000
  C   C411      1.0  0.06943  0.09733  0.74657  1.0000
  H   H676      1.0  0.17671  0.27841  0.90530  1.0000
  H   H677      1.0  0.17838  0.30040  0.92524  1.0000
  H   H678      1.0  0.18601  0.28714  0.96539  1.0000
  H   H679      1.0  0.14535  0.02923  0.74585  1.0000
  C   C412      1.0  0.09698  0.04589  0.74498  1.0000
  H   H680      1.0  0.17143  0.00753  0.84627  1.0000
  N   N29       1.0  0.11490  0.19809  0.81575  1.0000
  C   C413      1.0  0.13555  0.19573  0.81998  1.0000
  H   H681      1.0  0.99638  0.05183  0.79570  1.0000
  C   C414      1.0  0.09861  0.20361  0.83259  1.0000
  H   H682      1.0  0.08811  0.23937  0.95281  1.0000
  H   H683      1.0  0.02484  0.17173  0.76286  1.0000
  C   C415      1.0  0.09722  0.26838  0.97408  1.0000
  C   C416      1.0  0.07734  0.19911  0.83521  1.0000
  H   H684      1.0  0.12840  0.21454  0.84126  1.0000
  H   H685      1.0  0.13891  0.18153  0.83083  1.0000
  H   H686      1.0  0.08949  0.20428  0.79079  1.0000
  S   S117      1.0  0.45853  0.00602  0.78250  1.0000
  H   H687      1.0  0.11024  0.22108  0.94521  1.0000
  H   H688      1.0  0.10358  0.19516  0.84599  1.0000
  H   H689      1.0  0.09626  0.22013  0.83246  1.0000
  H   H690      1.0  0.16441  0.32489  0.86252  1.0000
  H   H691      1.0  0.11624  0.16555  0.82583  1.0000
  H   H692      1.0  0.44994  0.08487  0.78012  1.0000
  S   S118      1.0  0.23897  0.32038  0.88407  1.0000
  H   H693      1.0  0.22342  0.30525  0.96039  1.0000
  C   C417      1.0  0.01777  0.10895  0.74628  1.0000
  H   H694      1.0  0.02462  0.07687  0.83475  1.0000
  H   H695      1.0  0.14808  0.19397  0.80729  1.0000
  H   H696      1.0  0.06645  0.20632  0.84657  1.0000
  H   H697      1.0  0.07779  0.18246  0.84012  1.0000
  H   H698      1.0  0.07094  0.20504  0.82243  1.0000
  C   C418      1.0  0.24032  0.24887  0.94845  1.0000
  C   C419      1.0  0.21893  0.25705  0.95973  1.0000
  H   H699      1.0  0.11134  0.28170  0.92517  1.0000
  C   C420      1.0  0.00703  0.05829  0.85713  1.0000
  H   H700      1.0  0.00655  0.06851  0.86633  1.0000
  H   H701      1.0  0.00385  0.07539  0.81600  1.0000
  H   H702      1.0  0.46509  0.03072  0.83349  1.0000
  C   C421      1.0  0.02874  0.14730  0.74857  1.0000
  S   S119      1.0  0.28718  0.31547  0.90656  1.0000
  C   C422      1.0  0.16894  0.20433  0.97534  1.0000
  C   C423      1.0  0.09445  0.21844  0.78977  1.0000
  S   S120      1.0  0.26989  0.31637  0.96196  1.0000
  H   H703      1.0  0.11278  0.22985  0.80122  1.0000
  C   C424      1.0  0.12942  0.27574  0.95337  1.0000
  C   C425      1.0  0.10400  0.23771  0.94445  1.0000
  C   C426      1.0  0.10436  0.13742  0.74536  1.0000
  C   C427      1.0  0.13670  0.01667  0.75095  1.0000
  H   H704      1.0  0.15750  0.99910  0.76925  1.0000
  N   N30       1.0  0.21731  0.27465  0.96846  1.0000
  H   H705      1.0  0.14487  0.01298  0.85102  1.0000
  H   H706      1.0  0.16602  0.00094  0.82010  1.0000
  C   C428      1.0  0.02563  0.06018  0.84037  1.0000
  C   C429      1.0  0.03764  0.16061  0.75629  1.0000
  S   S121      1.0  0.44626  0.06154  0.75254  1.0000
  H   H707      1.0  0.36572  0.32404  0.80813  1.0000
  H   H708      1.0  0.10290  0.05393  0.75251  1.0000
  C   C430      1.0  0.04857  0.07499  0.80117  1.0000
  C   C431      1.0  0.11267  0.00053  0.74457  1.0000
  H   H709      1.0  0.13610  0.22822  0.81703  1.0000
  H   H710      1.0  0.25176  0.24276  0.95741  1.0000
  H   H711      1.0  0.01861  0.15763  0.73915  1.0000
  H   H712      1.0  0.00832  0.04261  0.86612  1.0000
  C   C432      1.0  0.01033  0.05646  0.79611  1.0000
  H   H713      1.0  0.04595  0.15136  0.76750  1.0000
  C   C433      1.0  0.47048  0.05810  0.81199  1.0000
  H   H714      1.0  0.01815  0.13969  0.76086  1.0000
  H   H715      1.0  0.14330  0.02721  0.87452  1.0000
  H   H716      1.0  0.49160  0.03126  0.82491  1.0000
  H   H717      1.0  0.11667  0.06877  0.80684  1.0000
  H   H718      1.0  0.12083  0.23530  0.96522  1.0000
  H   H719      1.0  0.49311  0.03982  0.78098  1.0000
  H   H720      1.0  0.21890  0.20219  0.97364  1.0000
  H   H721      1.0  0.33516  0.28923  0.96149  1.0000
  C   C434      1.0  0.48385  0.05570  0.77885  1.0000
  H   H722      1.0  0.21673  0.28861  0.92908  1.0000
  H   H723      1.0  0.34743  0.26644  0.98613  1.0000
  C   C435      1.0  0.11792  0.24616  0.95183  1.0000
  H   H724      1.0  0.12522  0.29130  0.95636  1.0000
  N   N31       1.0  0.24909  0.19183  0.85217  1.0000
  C   C436      1.0  0.24747  0.19028  0.87289  1.0000
  C   C437      1.0  0.25699  0.21092  0.84124  1.0000
  C   C438      1.0  0.26458  0.17340  0.84672  1.0000
  C   C439      1.0  0.22829  0.19209  0.84941  1.0000
  C   C440      1.0  0.24221  0.17038  0.88652  1.0000
  C   C441      1.0  0.24491  0.23082  0.84772  1.0000
  C   C442      1.0  0.26954  0.17218  0.82582  1.0000
  C   C443      1.0  0.22320  0.20334  0.82999  1.0000
  H   H725      1.0  0.26189  0.19223  0.87532  1.0000
  H   H726      1.0  0.23525  0.20283  0.87796  1.0000
  H   H727      1.0  0.25747  0.21376  0.82594  1.0000
  H   H728      1.0  0.27315  0.20911  0.84213  1.0000
  H   H729      1.0  0.27930  0.17235  0.85051  1.0000
  H   H730      1.0  0.25936  0.15901  0.85471  1.0000
  H   H731      1.0  0.22584  0.17622  0.85232  1.0000
  H   H732      1.0  0.21587  0.19939  0.85987  1.0000
  H   H733      1.0  0.25532  0.15720  0.88538  1.0000
  H   H734      1.0  0.23882  0.17231  0.90128  1.0000
  H   H735      1.0  0.22845  0.16683  0.88442  1.0000
  H   H736      1.0  0.24914  0.24425  0.83668  1.0000
  H   H737      1.0  0.22816  0.23237  0.85029  1.0000
  H   H738      1.0  0.24882  0.23164  0.86077  1.0000
  H   H739      1.0  0.25657  0.16876  0.82224  1.0000
  H   H740      1.0  0.28260  0.15912  0.82354  1.0000
  H   H741      1.0  0.27432  0.18597  0.81591  1.0000
  H   H742      1.0  0.22092  0.22015  0.82788  1.0000
  H   H743      1.0  0.20845  0.20028  0.82960  1.0000
  H   H744      1.0  0.23477  0.19826  0.81795  1.0000
  H   H745      1.0  0.00227  0.11895  0.74869  1.0000
  H   H746      1.0  0.10412  0.24494  0.92931  1.0000
  C   C444      1.0  0.47680  0.03506  0.82057  1.0000
  C   C445      1.0  0.14393  0.26258  0.96649  1.0000
  H   H747      1.0  0.36366  0.00264  0.81172  1.0000
  H   H748      1.0  0.09852  0.22494  0.77434  1.0000
  C   C446      1.0  0.10573  0.04537  0.80121  1.0000
  H   H749      1.0  0.12787  0.18112  0.78238  1.0000
  H   H750      1.0  0.03190  0.99718  0.82829  1.0000
  C   C447      1.0  0.14433  0.01462  0.88723  1.0000
  H   H751      1.0  0.04791  0.16954  0.74503  1.0000
  C   C448      1.0  0.10040  0.28149  0.93913  1.0000
  H   H752      1.0  0.15713  0.26994  0.96364  1.0000
  H   H753      1.0  0.13885  0.27720  0.93876  1.0000
  H   H754      1.0  0.08770  0.27564  0.93774  1.0000
  H   H755      1.0  0.10276  0.31203  0.94108  1.0000
  H   H756      1.0  0.44387  0.10101  0.79658  1.0000
  H   H757      1.0  0.05980  0.08709  0.74631  1.0000
  H   H758      1.0  0.11955  0.31658  0.89478  1.0000
  C   C449      1.0  0.21607  0.30051  0.93652  1.0000
  C   C450      1.0  0.11214  0.05419  0.81257  1.0000
  H   H759      1.0  0.17553  0.00113  0.87722  1.0000
  C   C451      1.0  0.00859  0.05869  0.81640  1.0000
  H   H760      1.0  0.02216  0.10255  0.76008  1.0000
  C   C452      1.0  0.13844  0.21330  0.82717  1.0000
  H   H761      1.0  0.01045  0.07150  0.78602  1.0000
  H   H762      1.0  0.02346  0.04499  0.79076  1.0000
  C   C453      1.0  0.49164  0.06635  0.75820  1.0000
  H   H763      1.0  0.08138  0.22937  0.79628  1.0000
  H   H764      1.0  0.10498  0.05343  0.78684  1.0000
  N   N32       1.0  0.48431  0.06615  0.79373  1.0000
  C   C454      1.0  0.11404  0.17770  0.81293  1.0000
  C   C455      1.0  0.12073  0.09584  0.75686  1.0000
  C   C456      1.0  0.13257  0.31321  0.90116  1.0000
  H   H765      1.0  0.12903  0.01094  0.89391  1.0000
  H   H766      1.0  0.06688  0.12450  0.75578  1.0000
  C   C457      1.0  0.10098  0.01608  0.82705  1.0000
  H   H767      1.0  0.45514  0.10976  0.77193  1.0000
  H   H768      1.0  0.13652  0.26149  0.98166  1.0000
  H   H769      1.0  0.12717  0.21291  0.78682  1.0000
  N   N33       1.0  0.11072  0.26784  0.95472  1.0000
  H   H770      1.0  0.05092  0.08298  0.81101  1.0000
  C   C458      1.0  0.10022  0.02631  0.80839  1.0000
  C   C459      1.0  0.11321  0.21491  0.79830  1.0000
  H   H771      1.0  0.22477  0.31162  0.92618  1.0000
  H   H772      1.0  0.01330  0.00080  0.75704  1.0000
  H   H773      1.0  0.06014  0.04588  0.81790  1.0000
  S   S122      1.0  0.12045  0.05551  0.84556  1.0000
  C   C460      1.0  0.11279  0.04416  0.83125  1.0000
  H   H774      1.0  0.10696  0.01767  0.85312  1.0000
  H   H775      1.0  0.11455  0.10188  0.78467  1.0000
  H   H776      1.0  0.04182  0.02092  0.84051  1.0000
  H   H777      1.0  0.01691  0.09564  0.74133  1.0000
  H   H778      1.0  0.03502  0.08375  0.79531  1.0000
  H   H779      1.0  0.47754  0.02546  0.81076  1.0000
  C   C461      1.0  0.32280  0.28812  0.97449  1.0000
  H   H780      1.0  0.09475  0.28349  0.97766  1.0000
  H   H781      1.0  0.46824  0.05351  0.78015  1.0000
  N   N34       1.0  0.02728  0.04966  0.82479  1.0000
  H   H782      1.0  0.12730  0.07979  0.76135  1.0000
  H   H783      1.0  0.01469  0.02454  0.84462  1.0000
  C   C462      1.0  0.02859  0.02715  0.83346  1.0000
  H   H784      1.0  0.06227  0.07505  0.78937  1.0000
  H   H785      1.0  0.19288  0.29656  0.98172  1.0000
  H   H786      1.0  0.46894  0.06671  0.82290  1.0000
  C   C463      1.0  0.03045  0.01325  0.82008  1.0000
  H   H787      1.0  0.24256  0.28754  0.94900  1.0000
  H   H788      1.0  0.40975  0.05711  0.74393  1.0000
  H   H789      1.0  0.09635  0.00154  0.83275  1.0000
  H   H790      1.0  0.30983  0.28547  0.97022  1.0000
  H   H791      1.0  0.07910  0.08887  0.75695  1.0000
  H   H792      1.0  0.14854  0.02071  0.89747  1.0000
  H   H793      1.0  0.12726  0.15554  0.79519  1.0000
  H   H794      1.0  0.48057  0.08046  0.75354  1.0000
  H   H795      1.0  0.21452  0.24369  0.97082  1.0000
  C   C464      1.0  0.15124  0.99672  0.75817  1.0000
  C   C465      1.0  0.09119  0.30385  0.94097  1.0000
  C   C466      1.0  0.19504  0.28244  0.97654  1.0000
  C   C467      1.0  0.00126  0.99583  0.76930  1.0000
  H   H796      1.0  0.09829  0.15358  0.74086  1.0000
  H   H797      1.0  0.06895  0.26814  0.96575  1.0000
  H   H798      1.0  0.01641  0.01670  0.81452  1.0000
  C   C468      1.0  0.20252  0.20428  0.97906  1.0000
  H   H799      1.0  0.07754  0.24591  0.98311  1.0000
  C   C469      1.0  0.11958  0.10404  0.73790  1.0000
  H   H800      1.0  0.49334  0.05591  0.74883  1.0000
  H   H801      1.0  0.08489  0.05677  0.73814  1.0000
  C   C470      1.0  0.22961  0.26709  0.98360  1.0000
  H   H802      1.0  0.08457  0.31232  0.92846  1.0000
  H   H803      1.0  0.10500  0.25753  0.98513  1.0000
  H   H804      1.0  0.38242  0.99287  0.82595  1.0000
  S   S123      1.0  0.48337  0.01370  0.73741  1.0000
  H   H805      1.0  0.14230  0.99303  0.83198  1.0000
  H   H806      1.0  0.12426  0.99327  0.87423  1.0000
  S   S124      1.0  0.45957  0.39056  0.12910  1.0000
  C   C471      1.0  0.39267  0.42902  0.23565  1.0000
  H   H807      1.0  0.13520  0.36551  0.01959  1.0000
  Fe  Fe59      1.0  0.40984  0.59192  0.18284  1.0000
  S   S125      1.0  0.43601  0.60011  0.15929  1.0000
  S   S126      1.0  0.39067  0.61659  0.19791  1.0000
  Fe  Fe60      1.0  0.41694  0.54924  0.17640  1.0000
  S   S127      1.0  0.44343  0.55401  0.15194  1.0000
  S   S128      1.0  0.40928  0.51811  0.18934  1.0000
  C   C472      1.0  0.28072  0.38517  0.10691  1.0000
  Fe  Fe61      1.0  0.42403  0.58502  0.14311  1.0000
  S   S129      1.0  0.42494  0.60101  0.11259  1.0000
  S   S130      1.0  0.42789  0.56178  0.19535  1.0000
  S   S131      1.0  0.39638  0.57903  0.16597  1.0000
  Fe  Fe62      1.0  0.14369  0.41938  0.03531  1.0000
  S   S132      1.0  0.11622  0.40825  0.05502  1.0000
  C   C473      1.0  0.30464  0.38610  0.13897  1.0000
  Fe  Fe63      1.0  0.16006  0.42364  0.06694  1.0000
  C   C474      1.0  0.36318  0.45433  0.08802  1.0000
  S   S133      1.0  0.18596  0.43261  0.07265  1.0000
  Fe  Fe64      1.0  0.11448  0.43259  0.07004  1.0000
  S   S134      1.0  0.08559  0.45376  0.08113  1.0000
  S   S135      1.0  0.13988  0.44569  0.04853  1.0000
  Fe  Fe65      1.0  0.38168  0.40709  0.13177  1.0000
  S   S136      1.0  0.40201  0.38245  0.14896  1.0000
  H   H808      1.0  0.34531  0.64487  0.01503  1.0000
  Fe  Fe66      1.0  0.39445  0.44149  0.14103  1.0000
  S   S137      1.0  0.41531  0.42009  0.15903  1.0000
  S   S138      1.0  0.39170  0.47567  0.13293  1.0000
  Fe  Fe67      1.0  0.42545  0.40225  0.13640  1.0000
  Fe  Fe68      1.0  0.39061  0.40209  0.17044  1.0000
  S   S139      1.0  0.38507  0.38781  0.20155  1.0000
  S   S140      1.0  0.40644  0.42511  0.11718  1.0000
  S   S141      1.0  0.36839  0.42528  0.15453  1.0000
  C   C475      1.0  0.03573  0.61938  0.13673  1.0000
  C   C476      1.0  0.01542  0.65388  0.22977  1.0000
  C   C477      1.0  0.39701  0.39515  0.23027  1.0000
  H   H809      1.0  0.19971  0.36587  0.11536  1.0000
  C   C478      1.0  0.22701  0.37276  0.09511  1.0000
  C   C479      1.0  0.20616  0.37693  0.10358  1.0000
  Fe  Fe69      1.0  0.07590  0.48565  0.17233  1.0000
  S   S142      1.0  0.05244  0.51040  0.15954  1.0000
  S   S143      1.0  0.08941  0.45593  0.16297  1.0000
  Fe  Fe70      1.0  0.07320  0.50770  0.20315  1.0000
  S   S144      1.0  0.04896  0.53398  0.19319  1.0000
  C   C480      1.0  0.46412  0.62573  0.20367  1.0000
  Fe  Fe71      1.0  0.03529  0.50984  0.18945  1.0000
  C   C481      1.0  0.20237  0.34275  0.06919  1.0000
  Fe  Fe72      1.0  0.06854  0.53179  0.16426  1.0000
  S   S145      1.0  0.07950  0.55707  0.14103  1.0000
  S   S146      1.0  0.05786  0.48377  0.20204  1.0000
  S   S147      1.0  0.09369  0.50696  0.17454  1.0000
  H   H810      1.0  0.43390  0.42103  0.21403  1.0000
  H   H811      1.0  0.32936  0.65869  0.05999  1.0000
  C   C482      1.0  0.01747  0.44354  0.15471  1.0000
  H   H812      1.0  0.00472  0.45489  0.19846  1.0000
  H   H813      1.0  0.04860  0.57661  0.18896  1.0000
  H   H814      1.0  0.38523  0.49086  0.22493  1.0000
  C   C483      1.0  0.49140  0.50271  0.21204  1.0000
  H   H815      1.0  0.42151  0.63738  0.12636  1.0000
  H   H816      1.0  0.29394  0.39234  0.09890  1.0000
  C   C484      1.0  0.11987  0.36598  0.01744  1.0000
  H   H817      1.0  0.00981  0.41637  0.20310  1.0000
  C   C485      1.0  0.43958  0.45788  0.21519  1.0000
  H   H818      1.0  0.24959  0.34492  0.15076  1.0000
  H   H819      1.0  0.43040  0.65166  0.13815  1.0000
  S   S148      1.0  0.29319  0.36208  0.06474  1.0000
  C   C486      1.0  0.24973  0.36146  0.14680  1.0000
  C   C487      1.0  0.26703  0.32825  0.99450  1.0000
  C   C488      1.0  0.06856  0.59784  0.12636  1.0000
  S   S149      1.0  0.13574  0.35685  0.08723  1.0000
  H   H820      1.0  0.49331  0.53237  0.09988  1.0000
  H   H821      1.0  0.21847  0.34221  0.06126  1.0000
  H   H822      1.0  0.15051  0.33692  0.00751  1.0000
  H   H823      1.0  0.08371  0.59619  0.11730  1.0000
  H   H824      1.0  0.37217  0.50505  0.10433  1.0000
  H   H825      1.0  0.47985  0.46707  0.22861  1.0000
  H   H826      1.0  0.03123  0.60089  0.18893  1.0000
  C   C489      1.0  0.33115  0.50863  0.09095  1.0000
  C   C490      1.0  0.46056  0.44660  0.20546  1.0000
  S   S150      1.0  0.13457  0.41249  0.08958  1.0000
  C   C491      1.0  0.36679  0.36663  0.11091  1.0000
  H   H827      1.0  0.03816  0.41744  0.17902  1.0000
  H   H828      1.0  0.37795  0.36301  0.11953  1.0000
  H   H829      1.0  0.37127  0.43837  0.06518  1.0000
  C   C492      1.0  0.08422  0.45405  0.10458  1.0000
  C   C493      1.0  0.07801  0.47266  0.11034  1.0000
  C   C494      1.0  0.07932  0.47338  0.12837  1.0000
  C   C495      1.0  0.08638  0.45541  0.14080  1.0000
  C   C496      1.0  0.09165  0.43669  0.13534  1.0000
  C   C497      1.0  0.09054  0.43600  0.11727  1.0000
  H   H830      1.0  0.07308  0.48664  0.10055  1.0000
  H   H831      1.0  0.07554  0.48792  0.13231  1.0000
  H   H832      1.0  0.09703  0.42272  0.14494  1.0000
  H   H833      1.0  0.09473  0.42151  0.11308  1.0000
  C   C498      1.0  0.20183  0.40987  0.08163  1.0000
  C   C499      1.0  0.23528  0.38720  0.07996  1.0000
  C   C500      1.0  0.22276  0.40592  0.07346  1.0000
  H   H834      1.0  0.25131  0.38405  0.07328  1.0000
  H   H835      1.0  0.22917  0.41709  0.06175  1.0000
  H   H836      1.0  0.47922  0.59926  0.14946  1.0000
  H   H837      1.0  0.31960  0.38855  0.13952  1.0000
  H   H838      1.0  0.32088  0.35949  0.12810  1.0000
  H   H839      1.0  0.37410  0.44284  0.09602  1.0000
  H   H840      1.0  0.02840  0.58008  0.20886  1.0000
  S   S151      1.0  0.00173  0.50939  0.19638  1.0000
  H   H841      1.0  0.06593  0.60094  0.16790  1.0000
  C   C501      1.0  0.38311  0.42500  0.20845  1.0000
  C   C502      1.0  0.13629  0.33550  0.00448  1.0000
  H   H842      1.0  0.37678  0.43169  0.19598  1.0000
  C   C503      1.0  0.40433  0.50644  0.17362  1.0000
  C   C504      1.0  0.40429  0.51666  0.15485  1.0000
  C   C505      1.0  0.40035  0.50706  0.14249  1.0000
  C   C506      1.0  0.39677  0.48712  0.14876  1.0000
  C   C507      1.0  0.39694  0.47684  0.16751  1.0000
  C   C508      1.0  0.40055  0.48657  0.17995  1.0000
  H   H843      1.0  0.40712  0.53201  0.14987  1.0000
  H   H844      1.0  0.40018  0.51509  0.12802  1.0000
  H   H845      1.0  0.39400  0.46153  0.17250  1.0000
  H   H846      1.0  0.40045  0.47869  0.19447  1.0000
  H   H847      1.0  0.43458  0.65725  0.11296  1.0000
  H   H848      1.0  0.35029  0.49508  0.06773  1.0000
  H   H849      1.0  0.15145  0.38171  0.99172  1.0000
  H   H850      1.0  0.37806  0.64584  0.13025  1.0000
  H   H851      1.0  0.48861  0.43653  0.17498  1.0000
  H   H852      1.0  0.09582  0.34118  0.01318  1.0000
  H   H853      1.0  0.09189  0.62146  0.19267  1.0000
  H   H854      1.0  0.17728  0.39826  0.10283  1.0000
  C   C509      1.0  0.19348  0.39529  0.09656  1.0000
  C   C510      1.0  0.00702  0.47497  0.22473  1.0000
  C   C511      1.0  0.36509  0.64219  0.09880  1.0000
  C   C512      1.0  0.36490  0.62323  0.11159  1.0000
  C   C513      1.0  0.38317  0.61065  0.11615  1.0000
  C   C514      1.0  0.40180  0.61667  0.10741  1.0000
  C   C515      1.0  0.40205  0.63542  0.09427  1.0000
  C   C516      1.0  0.04266  0.58296  0.15101  1.0000
  H   H855      1.0  0.35054  0.61839  0.11821  1.0000
  H   H856      1.0  0.38288  0.59613  0.12617  1.0000
  H   H857      1.0  0.41646  0.64009  0.08745  1.0000
  H   H858      1.0  0.31965  0.47276  0.11615  1.0000
  S   S152      1.0  0.34483  0.33538  0.08512  1.0000
  H   H859      1.0  0.39553  0.53195  0.22681  1.0000
  H   H860      1.0  0.35088  0.48509  0.11955  1.0000
  H   H861      1.0  0.46963  0.45819  0.19648  1.0000
  H   H862      1.0  0.08413  0.62034  0.22764  1.0000
  H   H863      1.0  0.22660  0.36817  0.99018  1.0000
  H   H864      1.0  0.14329  0.51385  0.11367  1.0000
  H   H865      1.0  0.48138  0.41409  0.17505  1.0000
  C   C517      1.0  0.48598  0.54216  0.11030  1.0000
  H   H866      1.0  0.11298  0.38258  0.01411  1.0000
  H   H867      1.0  0.46578  0.38862  0.19451  1.0000
  H   H868      1.0  0.05016  0.45004  0.19223  1.0000
  H   H869      1.0  0.10331  0.34591  0.98849  1.0000
  H   H870      1.0  0.37676  0.64188  0.04634  1.0000
  C   C518      1.0  0.47765  0.65103  0.22414  1.0000
  C   C519      1.0  0.05329  0.59462  0.20702  1.0000
  C   C520      1.0  0.38878  0.40374  0.21415  1.0000
  C   C521      1.0  0.27286  0.33804  0.00557  1.0000
  H   H871      1.0  0.33020  0.62086  0.06577  1.0000
  H   H872      1.0  0.43072  0.44419  0.18548  1.0000
  H   H873      1.0  0.37054  0.63695  0.01868  1.0000
  C   C522      1.0  0.45015  0.41499  0.20780  1.0000
  H   H874      1.0  0.42633  0.45582  0.21106  1.0000
  H   H875      1.0  0.23104  0.40149  0.00753  1.0000
  H   H876      1.0  0.07153  0.59962  0.23259  1.0000
  C   C523      1.0  0.33789  0.37560  0.08854  1.0000
  H   H877      1.0  0.46124  0.65546  0.22361  1.0000
  H   H878      1.0  0.06376  0.54270  0.23067  1.0000
  C   C524      1.0  0.26948  0.36588  0.14892  1.0000
  C   C525      1.0  0.45011  0.39731  0.19919  1.0000
  H   H879      1.0  0.44944  0.43452  0.12334  1.0000
  H   H880      1.0  0.49302  0.55361  0.13120  1.0000
  H   H881      1.0  0.06025  0.63024  0.11498  1.0000
  C   C526      1.0  0.37176  0.45356  0.06699  1.0000
  H   H882      1.0  0.27127  0.38626  0.09683  1.0000
  H   H883      1.0  0.48223  0.49369  0.17489  1.0000
  H   H884      1.0  0.35228  0.61850  0.04676  1.0000
  H   H885      1.0  0.35825  0.49703  0.23274  1.0000
  H   H886      1.0  0.35937  0.62509  0.15826  1.0000
  H   H887      1.0  0.00294  0.45317  0.15093  1.0000
  H   H888      1.0  0.27081  0.39457  0.11691  1.0000
  N   N35       1.0  0.14051  0.47902  0.10410  1.0000
  C   C527      1.0  0.12597  0.49313  0.09209  1.0000
  C   C528      1.0  0.13355  0.48411  0.12338  1.0000
  C   C529      1.0  0.13866  0.45740  0.10592  1.0000
  C   C530      1.0  0.16202  0.48187  0.09436  1.0000
  C   C531      1.0  0.12810  0.48817  0.07285  1.0000
  C   C532      1.0  0.13062  0.50689  0.12347  1.0000
  C   C533      1.0  0.15026  0.44030  0.11942  1.0000
  C   C534      1.0  0.17743  0.47746  0.10703  1.0000
  H   H889      1.0  0.10979  0.49334  0.09984  1.0000
  H   H890      1.0  0.12779  0.50923  0.08893  1.0000
  H   H891      1.0  0.14421  0.47524  0.13273  1.0000
  H   H892      1.0  0.11868  0.47954  0.13084  1.0000
  H   H893      1.0  0.12235  0.45628  0.11060  1.0000
  H   H894      1.0  0.14411  0.45298  0.09199  1.0000
  H   H895      1.0  0.16891  0.47222  0.08369  1.0000
  H   H896      1.0  0.16205  0.49783  0.08601  1.0000
  H   H897      1.0  0.11929  0.50125  0.06404  1.0000
  H   H898      1.0  0.14423  0.48539  0.06491  1.0000
  H   H899      1.0  0.12137  0.47477  0.07474  1.0000
  H   H900      1.0  0.11587  0.51582  0.11975  1.0000
  H   H901      1.0  0.12991  0.50836  0.13794  1.0000
  H   H902      1.0  0.37215  0.33569  0.10740  1.0000
  H   H903      1.0  0.16696  0.43748  0.11347  1.0000
  H   H904      1.0  0.14555  0.42582  0.12080  1.0000
  H   H905      1.0  0.14659  0.44292  0.13392  1.0000
  H   H906      1.0  0.17391  0.48933  0.11535  1.0000
  H   H907      1.0  0.19295  0.47781  0.09788  1.0000
  H   H908      1.0  0.17833  0.46226  0.11674  1.0000
  C   C535      1.0  0.00318  0.44847  0.18708  1.0000
  H   H909      1.0  0.05401  0.43456  0.16515  1.0000
  H   H910      1.0  0.44310  0.46873  0.15612  1.0000
  H   H911      1.0  0.43720  0.45247  0.23080  1.0000
  H   H912      1.0  0.02797  0.44753  0.12404  1.0000
  C   C536      1.0  0.02649  0.46990  0.16580  1.0000
  H   H913      1.0  0.33452  0.44722  0.12276  1.0000
  C   C537      1.0  0.01163  0.48699  0.15525  1.0000
  C   C538      1.0  0.36345  0.35116  0.10403  1.0000
  H   H914      1.0  0.04226  0.47005  0.15714  1.0000
  H   H915      1.0  0.02645  0.47488  0.17862  1.0000
  H   H916      1.0  0.08329  0.42305  0.00136  1.0000
  H   H917      1.0  0.45746  0.40831  0.22017  1.0000
  S   S153      1.0  0.08775  0.50111  0.22789  1.0000
  H   H918      1.0  0.23642  0.36895  0.15642  1.0000
  H   H919      1.0  0.32280  0.65056  0.04253  1.0000
  H   H920      1.0  0.33765  0.51204  0.10125  1.0000
  C   C539      1.0  0.17474  0.32997  0.11411  1.0000
  H   H921      1.0  0.46529  0.62867  0.17339  1.0000
  C   C540      1.0  0.03987  0.58771  0.19772  1.0000
  H   H922      1.0  0.15692  0.36333  0.04807  1.0000
  S   S154      1.0  0.24251  0.34940  0.10354  1.0000
  C   C541      1.0  0.09042  0.58213  0.19436  1.0000
  H   H923      1.0  0.49415  0.63670  0.17274  1.0000
  H   H924      1.0  0.45045  0.43281  0.16893  1.0000
  S   S155      1.0  0.16621  0.39826  0.05204  1.0000
  H   H925      1.0  0.04581  0.42915  0.13717  1.0000
  C   C542      1.0  0.16263  0.33454  0.04029  1.0000
  C   C543      1.0  0.10159  0.35274  0.00068  1.0000
  H   H926      1.0  0.38555  0.48288  0.07148  1.0000
  H   H927      1.0  0.33042  0.52238  0.07917  1.0000
  H   H928      1.0  0.09868  0.59678  0.22179  1.0000
  C   C544      1.0  0.35562  0.38666  0.10668  1.0000
  H   H929      1.0  0.08606  0.61301  0.16531  1.0000
  C   C545      1.0  0.07089  0.61068  0.17445  1.0000
  C   C546      1.0  0.49448  0.59538  0.15198  1.0000
  H   H930      1.0  0.46893  0.43839  0.21693  1.0000
  S   S156      1.0  0.35845  0.40666  0.11552  1.0000
  H   H931      1.0  0.34891  0.44828  0.09222  1.0000
  H   H932      1.0  0.06945  0.36839  0.00654  1.0000
  H   H933      1.0  0.48127  0.55796  0.10215  1.0000
  Fe  Fe73      1.0  0.45305  0.56865  0.17011  1.0000
  H   H934      1.0  0.31503  0.50731  0.09752  1.0000
  Fe  Fe74      1.0  0.13844  0.38916  0.07284  1.0000
  C   C547      1.0  0.08442  0.37210  0.99834  1.0000
  H   H935      1.0  0.46773  0.46343  0.16144  1.0000
  C   C548      1.0  0.41265  0.60534  0.22578  1.0000
  H   H936      1.0  0.20638  0.38390  0.00277  1.0000
  C   C549      1.0  0.44746  0.44243  0.17938  1.0000
  H   H937      1.0  0.44163  0.38637  0.21016  1.0000
  C   C550      1.0  0.08879  0.56498  0.18604  1.0000
  C   C551      1.0  0.09854  0.42452  0.99332  1.0000
  H   H938      1.0  0.10504  0.58703  0.18646  1.0000
  H   H939      1.0  0.09248  0.57443  0.20895  1.0000
  C   C552      1.0  0.29223  0.33395  0.14306  1.0000
  H   H940      1.0  0.39310  0.63185  0.14710  1.0000
  C   C553      1.0  0.34318  0.48954  0.08285  1.0000
  C   C554      1.0  0.40872  0.64588  0.22770  1.0000
  H   H941      1.0  0.10363  0.55378  0.18477  1.0000
  S   S157      1.0  0.48539  0.55886  0.17433  1.0000
  H   H942      1.0  0.07733  0.55633  0.19573  1.0000
  H   H943      1.0  0.23843  0.37445  0.01451  1.0000
  H   H944      1.0  0.39073  0.47085  0.09424  1.0000
  H   H945      1.0  0.44528  0.47539  0.17654  1.0000
  H   H946      1.0  0.20613  0.33097  0.10983  1.0000
  H   H947      1.0  0.03350  0.43317  0.20733  1.0000
  C   C555      1.0  0.05596  0.63166  0.17193  1.0000
  H   H948      1.0  0.02903  0.65790  0.20003  1.0000
  H   H949      1.0  0.25201  0.38719  0.99266  1.0000
  H   H950      1.0  0.47961  0.61879  0.23362  1.0000
  C   C556      1.0  0.30701  0.36337  0.13914  1.0000
  H   H951      1.0  0.30327  0.35727  0.10702  1.0000
  C   C557      1.0  0.08347  0.60726  0.22223  1.0000
  H   H952      1.0  0.44217  0.40274  0.18730  1.0000
  N   N36       1.0  0.35912  0.47489  0.09297  1.0000
  H   H953      1.0  0.37174  0.51742  0.22272  1.0000
  C   C558      1.0  0.28797  0.34967  0.99743  1.0000
  H   H954      1.0  0.36998  0.51568  0.07989  1.0000
  H   H955      1.0  0.46683  0.60271  0.18739  1.0000
  H   H956      1.0  0.44324  0.62082  0.18941  1.0000
  C   C559      1.0  0.49126  0.51542  0.14891  1.0000
  C   C560      1.0  0.11346  0.42467  0.00256  1.0000
  H   H957      1.0  0.03765  0.56982  0.16099  1.0000
  H   H958      1.0  0.39128  0.65397  0.20621  1.0000
  C   C561      1.0  0.14378  0.34106  0.07099  1.0000
  H   H959      1.0  0.39436  0.50579  0.08589  1.0000
  H   H960      1.0  0.43908  0.47458  0.21164  1.0000
  C   C562      1.0  0.34118  0.39105  0.09545  1.0000
  C   C563      1.0  0.37844  0.50337  0.08954  1.0000
  C   C564      1.0  0.34890  0.35552  0.09293  1.0000
  C   C565      1.0  0.05531  0.61709  0.12504  1.0000
  C   C566      1.0  0.23659  0.38728  0.00206  1.0000
  H   H961      1.0  0.10852  0.36423  0.04759  1.0000
  H   H962      1.0  0.05666  0.58211  0.21934  1.0000
  H   H963      1.0  0.04320  0.45621  0.13403  1.0000
  H   H964      1.0  0.19257  0.35147  0.05900  1.0000
  C   C567      1.0  0.07848  0.61546  0.20241  1.0000
  C   C568      1.0  0.46401  0.42902  0.12751  1.0000
  H   H965      1.0  0.05312  0.63616  0.15742  1.0000
  H   H966      1.0  0.06256  0.64385  0.17341  1.0000
  H   H967      1.0  0.33148  0.48140  0.08263  1.0000
  C   C569      1.0  0.33234  0.46354  0.12303  1.0000
  H   H968      1.0  0.26693  0.38272  0.14654  1.0000
  N   N37       1.0  0.02185  0.44880  0.17108  1.0000
  H   H969      1.0  0.48335  0.65593  0.18593  1.0000
  Fe  Fe75      1.0  0.29492  0.34649  0.04158  1.0000
  H   H970      1.0  0.41281  0.49811  0.22880  1.0000
  C   C570      1.0  0.35244  0.47133  0.11422  1.0000
  H   H971      1.0  0.46850  0.45926  0.12472  1.0000
  C   C571      1.0  0.46001  0.61905  0.18741  1.0000
  H   H972      1.0  0.99887  0.55102  0.16453  1.0000
  H   H973      1.0  0.01586  0.52115  0.22730  1.0000
  H   H974      1.0  0.01466  0.42774  0.15871  1.0000
  Fe  Fe76      1.0  0.31760  0.33531  0.07381  1.0000
  H   H975      1.0  0.45725  0.61614  0.21712  1.0000
  H   H976      1.0  0.41423  0.58968  0.22501  1.0000
  H   H977      1.0  0.30058  0.39651  0.12595  1.0000
  C   C572      1.0  0.45133  0.46367  0.16786  1.0000
  C   C573      1.0  0.37909  0.48205  0.08680  1.0000
  C   C574      1.0  0.02945  0.60230  0.14980  1.0000
  H   H978      1.0  0.04098  0.63139  0.18198  1.0000
  C   C575      1.0  0.48139  0.42383  0.18450  1.0000
  C   C576      1.0  0.04016  0.43335  0.17677  1.0000
  C   C577      1.0  0.38369  0.64834  0.09023  1.0000
  H   H979      1.0  0.17156  0.33972  0.02635  1.0000
  H   H980      1.0  0.36261  0.46530  0.05754  1.0000
  C   C578      1.0  0.47229  0.40804  0.13156  1.0000
  C   C579      1.0  0.47485  0.44302  0.12823  1.0000
  C   C580      1.0  0.39976  0.64158  0.21513  1.0000
  H   H981      1.0  0.32701  0.37923  0.07965  1.0000
  H   H982      1.0  0.33253  0.40651  0.09201  1.0000
  C   C581      1.0  0.15450  0.34789  0.05265  1.0000
  H   H983      1.0  0.04312  0.60750  0.21341  1.0000
  S   S158      1.0  0.29575  0.36206  0.01089  1.0000
  H   H984      1.0  0.19569  0.41879  0.99184  1.0000
  H   H985      1.0  0.36183  0.63936  0.17349  1.0000
  H   H986      1.0  0.02206  0.47059  0.21639  1.0000
  C   C582      1.0  0.04585  0.43522  0.19448  1.0000
  C   C583      1.0  0.06226  0.58077  0.13932  1.0000
  H   H987      1.0  0.32760  0.46435  0.13817  1.0000
  H   H988      1.0  0.06581  0.62909  0.20357  1.0000
  Fe  Fe77      1.0  0.27134  0.34170  0.08207  1.0000
  N   N38       1.0  0.48618  0.62494  0.20300  1.0000
  S   S159      1.0  0.15324  0.42231  0.00382  1.0000
  H   H989      1.0  0.01295  0.48498  0.14085  1.0000
  H   H990      1.0  0.38808  0.45471  0.06239  1.0000
  H   H991      1.0  0.05954  0.42315  0.19719  1.0000
  H   H992      1.0  0.01447  0.60393  0.15906  1.0000
  N   N39       1.0  0.45985  0.43199  0.19431  1.0000
  H   H993      1.0  0.08562  0.57050  0.17170  1.0000
  C   C584      1.0  0.10765  0.35651  0.03683  1.0000
  N   N40       1.0  0.12188  0.35602  0.00141  1.0000
  C   C585      1.0  0.35808  0.65072  0.01650  1.0000
  H   H994      1.0  0.19911  0.35152  0.08028  1.0000
  H   H995      1.0  0.36449  0.45988  0.12086  1.0000
  C   C586      1.0  0.40187  0.62135  0.21400  1.0000
  H   H996      1.0  0.01557  0.50195  0.15348  1.0000
  H   H997      1.0  0.10957  0.42363  0.01761  1.0000
  C   C587      1.0  0.38480  0.43761  0.21934  1.0000
  H   H998      1.0  0.09121  0.35894  0.03685  1.0000
  N   N41       1.0  0.07287  0.60049  0.19451  1.0000
  H   H999      1.0  0.48316  0.52766  0.15684  1.0000
  C   C588      1.0  0.36107  0.64035  0.15880  1.0000
  C   C589      1.0  0.34360  0.62766  0.05744  1.0000
  H   H1000     1.0  0.49321  0.51673  0.20078  1.0000
  C   C590      1.0  0.03469  0.44404  0.13662  1.0000
  H   H1001     1.0  0.31104  0.35467  0.15290  1.0000
  S   S160      1.0  0.34190  0.65766  0.09359  1.0000
  H   H1002     1.0  0.34706  0.65142  0.15544  1.0000
  H   H1003     1.0  0.27038  0.36029  0.16408  1.0000
  H   H1004     1.0  0.17312  0.34668  0.10808  1.0000
  H   H1005     1.0  0.47483  0.50342  0.21822  1.0000
  H   H1006     1.0  0.45480  0.64147  0.20362  1.0000
  H   H1007     1.0  0.48501  0.42216  0.08484  1.0000
  N   N42       1.0  0.28905  0.35698  0.13648  1.0000
  H   H1008     1.0  0.35303  0.62627  0.06764  1.0000
  C   C591      1.0  0.33598  0.65029  0.04832  1.0000
  S   S161      1.0  0.27079  0.32871  0.05818  1.0000
  H   H1009     1.0  0.08622  0.38473  0.00354  1.0000
  C   C592      1.0  0.37257  0.50180  0.23182  1.0000
  H   H1010     1.0  0.27825  0.35362  0.11330  1.0000
  H   H1011     1.0  0.11406  0.34000  0.04151  1.0000
  H   H1012     1.0  0.26545  0.33683  0.02031  1.0000
  C   C593      1.0  0.36960  0.65828  0.04187  1.0000
  H   H1013     1.0  0.47172  0.53745  0.11916  1.0000
  C   C594      1.0  0.38059  0.64539  0.14426  1.0000
  S   S162      1.0  0.01963  0.64377  0.13523  1.0000
  C   C595      1.0  0.13347  0.42544  0.99237  1.0000
  C   C596      1.0  0.22128  0.38405  0.99229  1.0000
  H   H1014     1.0  0.47680  0.58430  0.21571  1.0000
  C   C597      1.0  0.48740  0.62911  0.22120  1.0000
  H   H1015     1.0  0.37972  0.45402  0.21524  1.0000
  H   H1016     1.0  0.29359  0.39053  0.15165  1.0000
  H   H1017     1.0  0.24712  0.36793  0.13228  1.0000
  C   C598      1.0  0.49118  0.40108  0.13692  1.0000
  H   H1018     1.0  0.16818  0.32857  0.12950  1.0000
  H   H1019     1.0  0.28043  0.32808  0.13989  1.0000
  C   C599      1.0  0.28804  0.36240  0.11591  1.0000
  H   H1020     1.0  0.37167  0.55989  0.23508  1.0000
  C   C600      1.0  0.99760  0.42739  0.19649  1.0000
  H   H1021     1.0  0.49191  0.51115  0.23681  1.0000
  H   H1022     1.0  0.47975  0.51284  0.14258  1.0000
  C   C601      1.0  0.42344  0.65269  0.12627  1.0000
  H   H1023     1.0  0.40175  0.37872  0.23449  1.0000
  H   H1024     1.0  0.40440  0.64726  0.16473  1.0000
  H   H1025     1.0  0.00273  0.60415  0.22362  1.0000
  H   H1026     1.0  0.49088  0.39780  0.20729  1.0000
  C   C602      1.0  0.49388  0.64069  0.18612  1.0000
  C   C603      1.0  0.49220  0.58575  0.21599  1.0000
  H   H1027     1.0  0.49249  0.58630  0.23046  1.0000
  C   C604      1.0  0.49386  0.43611  0.13331  1.0000
  H   H1028     1.0  0.29057  0.32928  0.15870  1.0000
  S   S163      1.0  0.03851  0.64028  0.23611  1.0000
  Fe  Fe78      1.0  0.45587  0.59063  0.31205  1.0000
  S   S164      1.0  0.43707  0.56660  0.32417  1.0000
  C   C605      1.0  0.33941  0.61148  0.31033  1.0000
  Fe  Fe79      1.0  0.43270  0.61066  0.28096  1.0000
  S   S165      1.0  0.41214  0.58811  0.29047  1.0000
  C   C606      1.0  0.33744  0.63039  0.31825  1.0000
  Fe  Fe80      1.0  0.41024  0.59225  0.31950  1.0000
  S   S166      1.0  0.38182  0.59174  0.34288  1.0000
  Fe  Fe81      1.0  0.44102  0.56491  0.29423  1.0000
  S   S167      1.0  0.45359  0.53532  0.28459  1.0000
  S   S168      1.0  0.42873  0.61665  0.30975  1.0000
  S   S169      1.0  0.46174  0.58720  0.28234  1.0000
  C   C607      1.0  0.01592  0.48004  0.27684  1.0000
  C   C608      1.0  0.07286  0.53704  0.24129  1.0000
  H   H1029     1.0  0.40484  0.53605  0.24437  1.0000
  S   S170      1.0  0.14766  0.63409  0.43906  1.0000
  H   H1030     1.0  0.05697  0.61507  0.47518  1.0000
  S   S171      1.0  0.31456  0.35566  0.37636  1.0000
  H   H1031     1.0  0.01472  0.56032  0.31977  1.0000
  H   H1032     1.0  0.41113  0.47908  0.25010  1.0000
  S   S172      1.0  0.02819  0.59218  0.27712  1.0000
  H   H1033     1.0  0.34980  0.34776  0.32433  1.0000
  H   H1034     1.0  0.05880  0.58250  0.47253  1.0000
  C   C609      1.0  0.01114  0.46932  0.29796  1.0000
  N   N43       1.0  0.42686  0.61478  0.37306  1.0000
  Fe  Fe82      1.0  0.41010  0.39751  0.31152  1.0000
  S   S173      1.0  0.38797  0.42733  0.30475  1.0000
  S   S174      1.0  0.40289  0.36677  0.32834  1.0000
  Fe  Fe83      1.0  0.44718  0.41526  0.28836  1.0000
  S   S175      1.0  0.42828  0.44627  0.27948  1.0000
  H   H1035     1.0  0.42914  0.59722  0.24810  1.0000
  Fe  Fe84      1.0  0.41099  0.44155  0.30958  1.0000
  S   S176      1.0  0.40034  0.46824  0.32382  1.0000
  Fe  Fe85      1.0  0.40706  0.42979  0.27519  1.0000
  H   H1036     1.0  0.99899  0.50989  0.24755  1.0000
  S   S177      1.0  0.43160  0.41155  0.31907  1.0000
  S   S178      1.0  0.42748  0.39890  0.28133  1.0000
  H   H1037     1.0  0.43553  0.57223  0.38683  1.0000
  H   H1038     1.0  0.14208  0.63752  0.47695  1.0000
  C   C610      1.0  0.07093  0.54861  0.25465  1.0000
  H   H1039     1.0  0.40239  0.51599  0.27491  1.0000
  H   H1040     1.0  0.07644  0.46718  0.27382  1.0000
  N   N44       1.0  0.31644  0.63951  0.32853  1.0000
  C   C611      1.0  0.09313  0.63555  0.33104  1.0000
  H   H1041     1.0  0.32157  0.34780  0.46150  1.0000
  S   S179      1.0  0.04237  0.59126  0.31613  1.0000
  H   H1042     1.0  0.37362  0.55286  0.25949  1.0000
  H   H1043     1.0  0.08132  0.58577  0.45549  1.0000
  S   S180      1.0  0.15048  0.61215  0.39739  1.0000
  H   H1044     1.0  0.41416  0.63870  0.35158  1.0000
  H   H1045     1.0  0.40555  0.60261  0.39817  1.0000
  C   C612      1.0  0.39484  0.34866  0.38747  1.0000
  C   C613      1.0  0.04781  0.48956  0.27722  1.0000
  H   H1046     1.0  0.14453  0.54266  0.28826  1.0000
  H   H1047     1.0  0.31284  0.61543  0.36832  1.0000
  C   C614      1.0  0.30651  0.63349  0.47692  1.0000
  C   C615      1.0  0.33527  0.36550  0.26572  1.0000
  H   H1048     1.0  0.38723  0.33777  0.38515  1.0000
  S   S181      1.0  0.06446  0.64155  0.31088  1.0000
  C   C616      1.0  0.49183  0.44537  0.30572  1.0000
  H   H1049     1.0  0.28902  0.63380  0.30826  1.0000
  C   C617      1.0  0.35578  0.36236  0.27135  1.0000
  C   C618      1.0  0.21819  0.63036  0.35759  1.0000
  C   C619      1.0  0.47412  0.48778  0.33688  1.0000
  C   C620      1.0  0.07165  0.61414  0.36428  1.0000
  H   H1050     1.0  0.36006  0.34586  0.27775  1.0000
  H   H1051     1.0  0.46677  0.48976  0.35147  1.0000
  C   C621      1.0  0.21852  0.63466  0.37458  1.0000
  Fe  Fe86      1.0  0.14370  0.63982  0.40948  1.0000
  H   H1052     1.0  0.46574  0.43599  0.30324  1.0000
  H   H1053     1.0  0.28862  0.65813  0.29259  1.0000
  C   C622      1.0  0.46917  0.53032  0.35518  1.0000
  H   H1054     1.0  0.39411  0.64933  0.38598  1.0000
  C   C623      1.0  0.35698  0.60930  0.37162  1.0000
  H   H1055     1.0  0.40597  0.40123  0.25301  1.0000
  H   H1056     1.0  0.46838  0.54676  0.34845  1.0000
  H   H1057     1.0  0.25527  0.65462  0.32808  1.0000
  Fe  Fe87      1.0  0.03645  0.62305  0.26613  1.0000
  C   C624      1.0  0.13308  0.65112  0.46967  1.0000
  H   H1058     1.0  0.10385  0.61537  0.28606  1.0000
  Fe  Fe88      1.0  0.04932  0.62224  0.30166  1.0000
  H   H1059     1.0  0.11949  0.53903  0.30082  1.0000
  H   H1060     1.0  0.33668  0.35402  0.25746  1.0000
  H   H1061     1.0  0.10786  0.49552  0.25699  1.0000
  H   H1062     1.0  0.03787  0.52877  0.28427  1.0000
  H   H1063     1.0  0.46444  0.51919  0.32329  1.0000
  C   C625      1.0  0.33902  0.35824  0.36252  1.0000
  C   C626      1.0  0.34223  0.37783  0.35259  1.0000
  C   C627      1.0  0.36173  0.38068  0.34200  1.0000
  C   C628      1.0  0.37812  0.36389  0.34117  1.0000
  H   H1064     1.0  0.37526  0.48487  0.25997  1.0000
  C   C629      1.0  0.36614  0.35002  0.44938  1.0000
  H   H1065     1.0  0.32960  0.39090  0.35330  1.0000
  H   H1066     1.0  0.36411  0.39586  0.33462  1.0000
  N   N45       1.0  0.39219  0.50881  0.25315  1.0000
  S   S182      1.0  0.48122  0.40967  0.27684  1.0000
  H   H1067     1.0  0.09490  0.58184  0.29919  1.0000
  C   C630      1.0  0.42710  0.63488  0.35881  1.0000
  C   C631      1.0  0.29962  0.33094  0.46179  1.0000
  C   C632      1.0  0.11384  0.60341  0.29465  1.0000
  H   H1068     1.0  0.34829  0.62542  0.32785  1.0000
  C   C633      1.0  0.42636  0.57707  0.37586  1.0000
  C   C634      1.0  0.37278  0.54691  0.24755  1.0000
  C   C635      1.0  0.38834  0.34883  0.29232  1.0000
  C   C636      1.0  0.48213  0.43453  0.29894  1.0000
  H   H1069     1.0  0.44385  0.59559  0.35294  1.0000
  H   H1070     1.0  0.32275  0.63315  0.47211  1.0000
  H   H1071     1.0  0.41746  0.60268  0.35400  1.0000
  H   H1072     1.0  0.38851  0.63333  0.33399  1.0000
  C   C637      1.0  0.43918  0.51660  0.29667  1.0000
  C   C638      1.0  0.44672  0.49669  0.29380  1.0000
  C   C639      1.0  0.43508  0.48167  0.30259  1.0000
  C   C640      1.0  0.41586  0.48646  0.31431  1.0000
  C   C641      1.0  0.40864  0.50621  0.31781  1.0000
  C   C642      1.0  0.42026  0.52133  0.30893  1.0000
  H   H1073     1.0  0.46155  0.49285  0.28476  1.0000
  H   H1074     1.0  0.44106  0.46634  0.30040  1.0000
  H   H1075     1.0  0.39386  0.50993  0.32706  1.0000
  H   H1076     1.0  0.41443  0.53667  0.31135  1.0000
  H   H1077     1.0  0.04942  0.61711  0.34794  1.0000
  C   C643      1.0  0.99875  0.53575  0.32626  1.0000
  H   H1078     1.0  0.01272  0.54426  0.28526  1.0000
  H   H1079     1.0  0.06906  0.64981  0.44001  1.0000
  C   C644      1.0  0.43182  0.49869  0.24648  1.0000
  C   C645      1.0  0.39258  0.50635  0.27362  1.0000
  C   C646      1.0  0.10118  0.58786  0.30811  1.0000
  H   H1080     1.0  0.23283  0.64910  0.38799  1.0000
  C   C647      1.0  0.09578  0.52184  0.26932  1.0000
  C   C648      1.0  0.37182  0.51098  0.28746  1.0000
  H   H1081     1.0  0.09903  0.60832  0.44008  1.0000
  H   H1082     1.0  0.07843  0.63530  0.42214  1.0000
  C   C649      1.0  0.41908  0.62993  0.23980  1.0000
  H   H1083     1.0  0.35952  0.50942  0.25877  1.0000
  H   H1084     1.0  0.00089  0.48577  0.27280  1.0000
  H   H1085     1.0  0.39962  0.49026  0.27969  1.0000
  H   H1086     1.0  0.23166  0.63377  0.32786  1.0000
  H   H1087     1.0  0.48007  0.48273  0.25624  1.0000
  C   C650      1.0  0.35517  0.33795  0.41725  1.0000
  Fe  Fe89      1.0  0.05689  0.58294  0.28798  1.0000
  N   N46       1.0  0.02732  0.49710  0.27180  1.0000
  C   C651      1.0  0.02407  0.53249  0.27828  1.0000
  H   H1088     1.0  0.06319  0.60605  0.37722  1.0000
  H   H1089     1.0  0.35043  0.61268  0.29643  1.0000
  S   S183      1.0  0.39373  0.44504  0.24951  1.0000
  H   H1090     1.0  0.37461  0.51067  0.30135  1.0000
  H   H1091     1.0  0.36301  0.49892  0.29012  1.0000
  H   H1092     1.0  0.36242  0.52617  0.28276  1.0000
  H   H1093     1.0  0.36211  0.35833  0.46098  1.0000
  C   C652      1.0  0.23197  0.63699  0.34100  1.0000
  H   H1094     1.0  0.02276  0.46879  0.30563  1.0000
  N   N47       1.0  0.35600  0.37574  0.28394  1.0000
  C   C653      1.0  0.35136  0.39768  0.27312  1.0000
  H   H1095     1.0  0.35858  0.33676  0.45520  1.0000
  C   C654      1.0  0.37705  0.37139  0.28799  1.0000
  C   C655      1.0  0.33988  0.37355  0.30207  1.0000
  C   C656      1.0  0.35516  0.41391  0.28144  1.0000
  C   C657      1.0  0.07227  0.60530  0.47669  1.0000
  S   S184      1.0  0.25928  0.63575  0.45418  1.0000
  C   C658      1.0  0.36854  0.64703  0.35679  1.0000
  H   H1096     1.0  0.36051  0.39945  0.25832  1.0000
  H   H1097     1.0  0.33510  0.40249  0.27185  1.0000
  H   H1098     1.0  0.48776  0.47510  0.33704  1.0000
  H   H1099     1.0  0.41151  0.34197  0.38536  1.0000
  H   H1100     1.0  0.38758  0.37891  0.27565  1.0000
  H   H1101     1.0  0.37655  0.37808  0.29997  1.0000
  H   H1102     1.0  0.34156  0.38253  0.31147  1.0000
  H   H1103     1.0  0.32420  0.38063  0.29957  1.0000
  H   H1104     1.0  0.37168  0.41223  0.28055  1.0000
  H   H1105     1.0  0.35008  0.42936  0.27286  1.0000
  H   H1106     1.0  0.34655  0.41363  0.29622  1.0000
  H   H1107     1.0  0.30239  0.63409  0.44943  1.0000
  H   H1108     1.0  0.99605  0.47696  0.30530  1.0000
  H   H1109     1.0  0.43149  0.56538  0.36712  1.0000
  H   H1110     1.0  0.12682  0.59627  0.28457  1.0000
  H   H1111     1.0  0.34319  0.33982  0.30629  1.0000
  S   S185      1.0  0.29085  0.64366  0.39863  1.0000
  H   H1112     1.0  0.48276  0.45523  0.31517  1.0000
  H   H1113     1.0  0.28890  0.63116  0.34761  1.0000
  H   H1114     1.0  0.11480  0.57771  0.46221  1.0000
  N   N48       1.0  0.11214  0.57068  0.32135  1.0000
  H   H1115     1.0  0.12797  0.59022  0.32741  1.0000
  C   C659      1.0  0.09811  0.55593  0.33151  1.0000
  C   C660      1.0  0.13166  0.55949  0.31071  1.0000
  C   C661      1.0  0.11744  0.57959  0.33500  1.0000
  H   H1116     1.0  0.47621  0.60514  0.37994  1.0000
  C   C662      1.0  0.08018  0.56305  0.34723  1.0000
  C   C663      1.0  0.12925  0.55057  0.29505  1.0000
  C   C664      1.0  0.12811  0.56411  0.35025  1.0000
  H   H1117     1.0  0.34109  0.36821  0.43742  1.0000
  H   H1118     1.0  0.12301  0.56258  0.28373  1.0000
  H   H1119     1.0  0.10667  0.54073  0.33782  1.0000
  H   H1120     1.0  0.09113  0.55256  0.32137  1.0000
  S   S186      1.0  0.06652  0.61269  0.27463  1.0000
  H   H1121     1.0  0.46690  0.52887  0.37061  1.0000
  C   C665      1.0  0.08258  0.63708  0.47376  1.0000
  H   H1122     1.0  0.10378  0.58946  0.34207  1.0000
  H   H1123     1.0  0.08753  0.59681  0.31617  1.0000
  Fe  Fe90      1.0  0.16901  0.63042  0.37259  1.0000
  H   H1124     1.0  0.35146  0.33721  0.40401  1.0000
  H   H1125     1.0  0.06966  0.55221  0.35206  1.0000
  H   H1126     1.0  0.08557  0.56317  0.35973  1.0000
  H   H1127     1.0  0.07112  0.57839  0.34222  1.0000
  C   C666      1.0  0.35796  0.36450  0.43232  1.0000
  S   S187      1.0  0.01968  0.63499  0.29209  1.0000
  C   C667      1.0  0.40610  0.61648  0.38647  1.0000
  H   H1128     1.0  0.14502  0.56204  0.34549  1.0000
  H   H1129     1.0  0.12410  0.54892  0.35416  1.0000
  H   H1130     1.0  0.12322  0.56995  0.36347  1.0000
  C   C668      1.0  0.47917  0.50780  0.32338  1.0000
  C   C669      1.0  0.29497  0.63418  0.46405  1.0000
  H   H1131     1.0  0.48414  0.50466  0.30893  1.0000
  C   C670      1.0  0.09288  0.62211  0.44615  1.0000
  C   C671      1.0  0.10094  0.62917  0.34740  1.0000
  H   H1132     1.0  0.45963  0.63670  0.34919  1.0000
  C   C672      1.0  0.09766  0.51041  0.25615  1.0000
  C   C673      1.0  0.31170  0.33758  0.47011  1.0000
  S   S188      1.0  0.09911  0.61241  0.38510  1.0000
  H   H1133     1.0  0.35247  0.59469  0.37745  1.0000
  H   H1134     1.0  0.46291  0.48297  0.33186  1.0000
  C   C674      1.0  0.01480  0.51348  0.28231  1.0000
  H   H1135     1.0  0.10460  0.51576  0.28016  1.0000
  C   C675      1.0  0.41150  0.49557  0.24426  1.0000
  C   C676      1.0  0.37441  0.50106  0.25192  1.0000
  C   C677      1.0  0.07411  0.63399  0.43770  1.0000
  H   H1136     1.0  0.13010  0.59633  0.44841  1.0000
  H   H1137     1.0  0.34635  0.59730  0.31953  1.0000
  Fe  Fe91      1.0  0.01414  0.60302  0.30419  1.0000
  H   H1138     1.0  0.04252  0.51485  0.24564  1.0000
  H   H1139     1.0  0.05718  0.50144  0.27110  1.0000
  C   C678      1.0  0.06098  0.46990  0.27096  1.0000
  H   H1140     1.0  0.38516  0.63268  0.40748  1.0000
  H   H1141     1.0  0.39295  0.36299  0.37641  1.0000
  C   C679      1.0  0.01180  0.51799  0.24298  1.0000
  H   H1142     1.0  0.13920  0.54639  0.32056  1.0000
  H   H1143     1.0  0.36769  0.36483  0.25801  1.0000
  H   H1144     1.0  0.32369  0.35135  0.32290  1.0000
  Fe  Fe92      1.0  0.27157  0.65353  0.42527  1.0000
  C   C680      1.0  0.00071  0.46247  0.24240  1.0000
  C   C681      1.0  0.37486  0.34425  0.35088  1.0000
  C   C682      1.0  0.08229  0.54080  0.26881  1.0000
  H   H1145     1.0  0.14302  0.56948  0.30429  1.0000
  C   C683      1.0  0.42090  0.60961  0.23897  1.0000
  H   H1146     1.0  0.02369  0.46821  0.26836  1.0000
  C   C684      1.0  0.46491  0.59970  0.37562  1.0000
  S   S189      1.0  0.43051  0.63579  0.25512  1.0000
  C   C685      1.0  0.49483  0.53752  0.31531  1.0000
  H   H1147     1.0  0.32516  0.60945  0.30803  1.0000
  H   H1148     1.0  0.32257  0.36319  0.27824  1.0000
  Fe  Fe93      1.0  0.12383  0.62851  0.38389  1.0000
  N   N49       1.0  0.36368  0.35673  0.41436  1.0000
  C   C686      1.0  0.33948  0.35184  0.31439  1.0000
  H   H1149     1.0  0.39450  0.34028  0.41719  1.0000
  C   C687      1.0  0.35442  0.37357  0.39967  1.0000
  C   C688      1.0  0.12275  0.58914  0.46293  1.0000
  C   C689      1.0  0.38663  0.35311  0.40747  1.0000
  H   H1150     1.0  0.11935  0.61156  0.30232  1.0000
  C   C690      1.0  0.33093  0.38091  0.40468  1.0000
  H   H1151     1.0  0.44419  0.62459  0.38756  1.0000
  H   H1152     1.0  0.39325  0.34232  0.27951  1.0000
  C   C691      1.0  0.49209  0.62215  0.30725  1.0000
  H   H1153     1.0  0.36133  0.38725  0.39625  1.0000
  C   C692      1.0  0.07450  0.63138  0.33121  1.0000
  H   H1154     1.0  0.32569  0.39052  0.39175  1.0000
  H   H1155     1.0  0.01263  0.52409  0.32487  1.0000
  H   H1156     1.0  0.36310  0.37913  0.42962  1.0000
  H   H1157     1.0  0.01070  0.45314  0.29920  1.0000
  H   H1158     1.0  0.99917  0.51873  0.27946  1.0000
  C   C693      1.0  0.23261  0.64572  0.37489  1.0000
  H   H1159     1.0  0.32280  0.36804  0.40981  1.0000
  H   H1160     1.0  0.39237  0.36669  0.40729  1.0000
  H   H1161     1.0  0.08302  0.57209  0.47940  1.0000
  H   H1162     1.0  0.47848  0.62577  0.30166  1.0000
  H   H1163     1.0  0.47898  0.54675  0.31651  1.0000
  S   S190      1.0  0.27361  0.32656  0.40713  1.0000
  H   H1164     1.0  0.42485  0.64765  0.36585  1.0000
  H   H1165     1.0  0.11539  0.63225  0.34693  1.0000
  H   H1166     1.0  0.06121  0.62592  0.44315  1.0000
  H   H1167     1.0  0.41077  0.63652  0.40251  1.0000
  H   H1168     1.0  0.30031  0.33600  0.44677  1.0000
  H   H1169     1.0  0.02794  0.53956  0.26302  1.0000
  C   C694      1.0  0.34784  0.62542  0.38101  1.0000
  S   S191      1.0  0.19991  0.61791  0.35642  1.0000
  C   C695      1.0  0.42896  0.59812  0.36298  1.0000
  C   C696      1.0  0.44673  0.63651  0.34331  1.0000
  H   H1170     1.0  0.45634  0.52527  0.35300  1.0000
  C   C697      1.0  0.37169  0.61204  0.35467  1.0000
  C   C698      1.0  0.03082  0.50524  0.25067  1.0000
  H   H1171     1.0  0.30573  0.59555  0.36256  1.0000
  H   H1172     1.0  0.33138  0.38075  0.25639  1.0000
  H   H1173     1.0  0.13541  0.58074  0.47025  1.0000
  C   C699      1.0  0.06389  0.62030  0.34774  1.0000
  C   C700      1.0  0.37744  0.63097  0.34722  1.0000
  H   H1174     1.0  0.01236  0.50727  0.29784  1.0000
  H   H1175     1.0  0.47027  0.45413  0.25218  1.0000
  H   H1176     1.0  0.33039  0.60137  0.35128  1.0000
  C   C701      1.0  0.09004  0.61893  0.36420  1.0000
  H   H1177     1.0  0.06049  0.56330  0.25421  1.0000
  H   H1178     1.0  0.38751  0.33121  0.35020  1.0000
  H   H1179     1.0  0.01114  0.44882  0.24778  1.0000
  H   H1180     1.0  0.49155  0.50174  0.35729  1.0000
  H   H1181     1.0  0.35834  0.54160  0.25080  1.0000
  H   H1182     1.0  0.40256  0.34809  0.29673  1.0000
  C   C702      1.0  0.30437  0.62361  0.34070  1.0000
  H   H1183     1.0  0.30399  0.65665  0.35076  1.0000
  H   H1184     1.0  0.43857  0.59996  0.39832  1.0000
  H   H1185     1.0  0.30126  0.61444  0.33237  1.0000
  H   H1186     1.0  0.33644  0.62317  0.39404  1.0000
  C   C703      1.0  0.49360  0.42186  0.28657  1.0000
  H   H1187     1.0  0.35781  0.36861  0.38615  1.0000
  S   S192      1.0  0.07998  0.55363  0.28659  1.0000
  C   C704      1.0  0.27398  0.63455  0.47019  1.0000
  C   C705      1.0  0.07432  0.58530  0.47061  1.0000
  H   H1188     1.0  0.05439  0.45633  0.27902  1.0000
  H   H1189     1.0  0.04622  0.48706  0.29272  1.0000
  C   C706      1.0  0.31414  0.60822  0.35651  1.0000
  H   H1190     1.0  0.37939  0.33905  0.30397  1.0000
  C   C707      1.0  0.39895  0.63489  0.39604  1.0000
  H   H1191     1.0  0.32617  0.39068  0.41518  1.0000
  H   H1192     1.0  0.46901  0.60274  0.36006  1.0000
  C   C708      1.0  0.99995  0.55622  0.32347  1.0000
  S   S193      1.0  0.14316  0.64427  0.35775  1.0000
  C   C709      1.0  0.49304  0.47097  0.25074  1.0000
  H   H1193     1.0  0.40999  0.57704  0.38262  1.0000
  N   N50       1.0  0.08914  0.61702  0.46746  1.0000
  H   H1194     1.0  0.46758  0.58293  0.38144  1.0000
  H   H1195     1.0  0.38300  0.34488  0.44629  1.0000
  H   H1196     1.0  0.06312  0.47119  0.25559  1.0000
  H   H1197     1.0  0.03727  0.49249  0.24311  1.0000
  H   H1198     1.0  0.32861  0.64128  0.35139  1.0000
  H   H1199     1.0  0.20798  0.62937  0.38747  1.0000
  H   H1200     1.0  0.00643  0.53304  0.24696  1.0000
  H   H1201     1.0  0.06723  0.64541  0.47104  1.0000
  C   C710      1.0  0.35351  0.64437  0.37357  1.0000
  H   H1202     1.0  0.43287  0.49512  0.26148  1.0000
  C   C711      1.0  0.35539  0.34142  0.36165  1.0000
  S   S194      1.0  0.48155  0.58525  0.32661  1.0000
  H   H1203     1.0  0.34378  0.64219  0.30636  1.0000
  H   H1204     1.0  0.45117  0.62443  0.33516  1.0000
  H   H1205     1.0  0.39402  0.61712  0.37917  1.0000
  C   C712      1.0  0.10874  0.60545  0.47377  1.0000
  C   C713      1.0  0.24537  0.64872  0.34115  1.0000
  C   C714      1.0  0.44305  0.61028  0.38436  1.0000
  C   C715      1.0  0.24569  0.65314  0.35804  1.0000
  H   H1206     1.0  0.10148  0.64393  0.31821  1.0000
  H   H1207     1.0  0.34028  0.33878  0.42774  1.0000
  C   C716      1.0  0.08613  0.51777  0.24224  1.0000
  C   C717      1.0  0.31894  0.65130  0.34155  1.0000
  H   H1208     1.0  0.10503  0.63127  0.44003  1.0000
  H   H1209     1.0  0.09314  0.64748  0.46544  1.0000
  C   C718      1.0  0.29832  0.64556  0.30102  1.0000
  H   H1210     1.0  0.11859  0.61620  0.47251  1.0000
  C   C719      1.0  0.49024  0.51734  0.34796  1.0000
  H   H1211     1.0  0.44459  0.48793  0.23950  1.0000
  H   H1212     1.0  0.44404  0.65132  0.33298  1.0000
  H   H1213     1.0  0.31195  0.63967  0.29073  1.0000
  H   H1214     1.0  0.99665  0.58165  0.25598  1.0000
  C   C720      1.0  0.39208  0.53063  0.24238  1.0000
  H   H1215     1.0  0.00336  0.61501  0.24221  1.0000
  C   C721      1.0  0.39929  0.40783  0.24081  1.0000
  C   C722      1.0  0.48423  0.45848  0.24208  1.0000
  C   C723      1.0  0.99731  0.65732  0.24340  1.0000
  C   C724      1.0  0.30427  0.65441  0.31484  1.0000
  H   H1216     1.0  0.07831  0.65791  0.38116  1.0000
  C   C725      1.0  0.13350  0.65362  0.45055  1.0000
  H   H1217     1.0  0.99766  0.65287  0.25824  1.0000
  S   S195      1.0  0.11519  0.65486  0.39827  1.0000
  S   S196      1.0  0.16418  0.65701  0.38564  1.0000
  H   H1218     1.0  0.35304  0.32627  0.36924  1.0000
  H   H1219     1.0  0.43443  0.51432  0.23950  1.0000
  N   N51       1.0  0.49493  0.51628  0.32749  1.0000
  H   H1220     1.0  0.49514  0.44388  0.24009  1.0000
  H   H1221     1.0  0.47844  0.65176  0.23845  1.0000
  Fe  Fe94      1.0  0.03890  0.54265  0.64133  1.0000
  S   S197      1.0  0.04803  0.57287  0.63513  1.0000
  S   S198      1.0  0.05542  0.51155  0.65435  1.0000
  Fe  Fe95      1.0  0.03834  0.57879  0.60767  1.0000
  S   S199      1.0  0.05262  0.59346  0.57810  1.0000
  S   S200      1.0  0.03212  0.54757  0.61279  1.0000
  H   H1222     1.0  0.16691  0.63905  0.54840  1.0000
  H   H1223     1.0  0.47158  0.37355  0.56730  1.0000
  H   H1224     1.0  0.05795  0.43550  0.67983  1.0000
  C   C726      1.0  0.34767  0.62850  0.65715  1.0000
  S   S201      1.0  0.43030  0.51738  0.64587  1.0000
  S   S202      1.0  0.00625  0.55355  0.65521  1.0000
  C   C727      1.0  0.40875  0.60948  0.72508  1.0000
  H   H1225     1.0  0.36913  0.55245  0.57997  1.0000
  C   C728      1.0  0.20018  0.58115  0.53916  1.0000
  H   H1226     1.0  0.07082  0.60086  0.49228  1.0000
  H   H1227     1.0  0.48723  0.46860  0.64543  1.0000
  H   H1228     1.0  0.20295  0.34328  0.55332  1.0000
  H   H1229     1.0  0.08157  0.42360  0.72753  1.0000
  C   C729      1.0  0.47095  0.37571  0.59628  1.0000
  H   H1230     1.0  0.42912  0.56643  0.70811  1.0000
  H   H1231     1.0  0.02151  0.51277  0.58706  1.0000
  C   C730      1.0  0.42326  0.60973  0.68644  1.0000
  Fe  Fe96      1.0  0.39739  0.43431  0.62870  1.0000
  S   S203      1.0  0.42255  0.41551  0.61094  1.0000
  S   S204      1.0  0.38485  0.46794  0.61844  1.0000
  Fe  Fe97      1.0  0.39534  0.39939  0.66292  1.0000
  S   S205      1.0  0.42059  0.37750  0.64822  1.0000
  S   S206      1.0  0.37935  0.39369  0.69364  1.0000
  Fe  Fe98      1.0  0.43633  0.40408  0.63653  1.0000
  S   S207      1.0  0.47056  0.40047  0.63171  1.0000
  Fe  Fe99      1.0  0.40478  0.39041  0.62373  1.0000
  S   S208      1.0  0.40622  0.36960  0.60444  1.0000
  S   S209      1.0  0.41251  0.42468  0.65335  1.0000
  S   S210      1.0  0.37815  0.41038  0.63947  1.0000
  H   H1232     1.0  0.35116  0.55735  0.55830  1.0000
  C   C731      1.0  0.11041  0.40247  0.72866  1.0000
  H   H1233     1.0  0.23923  0.60536  0.53270  1.0000
  C   C732      1.0  0.41626  0.47717  0.68727  1.0000
  H   H1234     1.0  0.42553  0.45452  0.71216  1.0000
  C   C733      1.0  0.47905  0.42511  0.67136  1.0000
  C   C734      1.0  0.46967  0.41776  0.66098  1.0000
  C   C735      1.0  0.37054  0.45540  0.68771  1.0000
  H   H1235     1.0  0.37430  0.52832  0.67501  1.0000
  H   H1236     1.0  0.47012  0.43046  0.68389  1.0000
  H   H1237     1.0  0.45357  0.41742  0.66558  1.0000
  C   C736      1.0  0.39246  0.40054  0.70698  1.0000
  C   C737      1.0  0.41375  0.39813  0.70179  1.0000
  H   H1238     1.0  0.47442  0.50726  0.64973  1.0000
  H   H1239     1.0  0.42224  0.39196  0.68952  1.0000
  H   H1240     1.0  0.37402  0.64028  0.56372  1.0000
  N   N52       1.0  0.44386  0.53594  0.72062  1.0000
  H   H1241     1.0  0.33551  0.65557  0.63826  1.0000
  S   S211      1.0  0.31129  0.63443  0.51147  1.0000
  N   N53       1.0  0.33967  0.58732  0.56490  1.0000
  H   H1242     1.0  0.37005  0.58954  0.56546  1.0000
  H   H1243     1.0  0.47358  0.64606  0.70523  1.0000
  C   C738      1.0  0.49339  0.59371  0.63145  1.0000
  S   S212      1.0  0.00140  0.44948  0.69144  1.0000
  H   H1244     1.0  0.36285  0.65276  0.61322  1.0000
  C   C739      1.0  0.07021  0.42578  0.68719  1.0000
  C   C740      1.0  0.35134  0.35536  0.59127  1.0000
  C   C741      1.0  0.37094  0.35139  0.57983  1.0000
  C   C742      1.0  0.38753  0.35609  0.58391  1.0000
  C   C743      1.0  0.38464  0.36516  0.59921  1.0000
  C   C744      1.0  0.36497  0.36959  0.61036  1.0000
  C   C745      1.0  0.34843  0.36464  0.60643  1.0000
  H   H1245     1.0  0.35885  0.65126  0.67970  1.0000
  H   H1246     1.0  0.40265  0.35281  0.57508  1.0000
  H   H1247     1.0  0.36252  0.37657  0.62217  1.0000
  H   H1248     1.0  0.33331  0.36785  0.61530  1.0000
  H   H1249     1.0  0.35338  0.62408  0.67037  1.0000
  C   C746      1.0  0.35611  0.61687  0.60908  1.0000
  C   C747      1.0  0.47591  0.44902  0.72515  1.0000
  C   C748      1.0  0.41911  0.50530  0.63498  1.0000
  C   C749      1.0  0.40082  0.51495  0.62900  1.0000
  C   C750      1.0  0.39056  0.50366  0.62321  1.0000
  C   C751      1.0  0.39880  0.48291  0.62309  1.0000
  C   C752      1.0  0.41776  0.47385  0.62778  1.0000
  C   C753      1.0  0.42772  0.48488  0.63400  1.0000
  H   H1250     1.0  0.39409  0.53073  0.62976  1.0000
  H   H1251     1.0  0.37595  0.51077  0.61942  1.0000
  H   H1252     1.0  0.42472  0.45822  0.62679  1.0000
  H   H1253     1.0  0.44185  0.47726  0.63854  1.0000
  H   H1254     1.0  0.32442  0.62205  0.62378  1.0000
  H   H1255     1.0  0.32816  0.61941  0.56538  1.0000
  Fe  Fe100     1.0  0.01462  0.58428  0.64672  1.0000
  H   H1256     1.0  0.43250  0.44485  0.69079  1.0000
  Fe  Fe101     1.0  0.44888  0.58361  0.62852  1.0000
  C   C754      1.0  0.07131  0.60732  0.57520  1.0000
  C   C755      1.0  0.07397  0.62332  0.55929  1.0000
  H   H1257     1.0  0.08515  0.45101  0.67781  1.0000
  C   C756      1.0  0.09795  0.61450  0.58591  1.0000
  C   C757      1.0  0.08340  0.60280  0.58847  1.0000
  H   H1258     1.0  0.49169  0.52254  0.66403  1.0000
  H   H1259     1.0  0.08159  0.59025  0.60061  1.0000
  C   C758      1.0  0.06106  0.50953  0.67614  1.0000
  C   C759      1.0  0.05803  0.49227  0.69056  1.0000
  C   C760      1.0  0.06364  0.48951  0.70774  1.0000
  H   H1260     1.0  0.34369  0.63461  0.53336  1.0000
  C   C761      1.0  0.07557  0.52126  0.69601  1.0000
  C   C762      1.0  0.06955  0.52423  0.67896  1.0000
  H   H1261     1.0  0.05124  0.48111  0.68834  1.0000
  H   H1262     1.0  0.07625  0.65151  0.49750  1.0000
  H   H1263     1.0  0.08240  0.53250  0.69809  1.0000
  H   H1264     1.0  0.07202  0.53758  0.66782  1.0000
  H   H1265     1.0  0.48798  0.54254  0.61299  1.0000
  H   H1266     1.0  0.37166  0.44056  0.68424  1.0000
  H   H1267     1.0  0.32011  0.61158  0.54884  1.0000
  H   H1268     1.0  0.39396  0.56154  0.71557  1.0000
  H   H1269     1.0  0.36121  0.45483  0.70229  1.0000
  N   N54       1.0  0.19577  0.61976  0.53743  1.0000
  C   C763      1.0  0.19887  0.63920  0.52291  1.0000
  C   C764      1.0  0.20939  0.61615  0.55103  1.0000
  H   H1270     1.0  0.35058  0.59709  0.58440  1.0000
  C   C765      1.0  0.20133  0.60274  0.52699  1.0000
  C   C766      1.0  0.18453  0.64708  0.50888  1.0000
  C   C767      1.0  0.23224  0.61612  0.54227  1.0000
  N   N55       1.0  0.47568  0.35300  0.60446  1.0000
  H   H1271     1.0  0.00464  0.46410  0.62676  1.0000
  H   H1272     1.0  0.19730  0.65176  0.52995  1.0000
  H   H1273     1.0  0.21466  0.63738  0.51401  1.0000
  C   C768      1.0  0.02429  0.44989  0.71511  1.0000
  C   C769      1.0  0.11584  0.41829  0.68532  1.0000
  H   H1274     1.0  0.10099  0.47332  0.68069  1.0000
  H   H1275     1.0  0.02490  0.58150  0.69939  1.0000
  H   H1276     1.0  0.19109  0.60577  0.51708  1.0000
  H   H1277     1.0  0.21705  0.60199  0.51796  1.0000
  H   H1278     1.0  0.16817  0.64814  0.51590  1.0000
  H   H1279     1.0  0.24838  0.63451  0.49399  1.0000
  H   H1280     1.0  0.18867  0.63751  0.49827  1.0000
  H   H1281     1.0  0.47534  0.54819  0.58598  1.0000
  H   H1282     1.0  0.23455  0.63178  0.53482  1.0000
  H   H1283     1.0  0.12131  0.39099  0.72106  1.0000
  H   H1284     1.0  0.24995  0.34083  0.52103  1.0000
  H   H1285     1.0  0.34962  0.55996  0.59976  1.0000
  H   H1286     1.0  0.09637  0.62946  0.49876  1.0000
  C   C770      1.0  0.48095  0.60588  0.64398  1.0000
  H   H1287     1.0  0.45244  0.57684  0.71672  1.0000
  C   C771      1.0  0.02601  0.53087  0.73054  1.0000
  C   C772      1.0  0.29699  0.63372  0.49584  1.0000
  H   H1288     1.0  0.49442  0.52526  0.58365  1.0000
  N   N56       1.0  0.10029  0.42955  0.69936  1.0000
  H   H1289     1.0  0.99820  0.64772  0.63730  1.0000
  C   C773      1.0  0.48196  0.40127  0.72190  1.0000
  H   H1290     1.0  0.00365  0.40991  0.71746  1.0000
  C   C774      1.0  0.43067  0.45841  0.69659  1.0000
  H   H1291     1.0  0.46556  0.49504  0.72663  1.0000
  H   H1292     1.0  0.23702  0.34468  0.55725  1.0000
  H   H1293     1.0  0.00019  0.51865  0.71877  1.0000
  H   H1294     1.0  0.03724  0.56893  0.68048  1.0000
  C   C775      1.0  0.07272  0.50383  0.71038  1.0000
  C   C776      1.0  0.13848  0.41311  0.68702  1.0000
  H   H1295     1.0  0.48488  0.33282  0.62972  1.0000
  H   H1296     1.0  0.39478  0.65660  0.64505  1.0000
  H   H1297     1.0  0.33707  0.65606  0.56640  1.0000
  H   H1298     1.0  0.00370  0.64071  0.60633  1.0000
  H   H1299     1.0  0.47077  0.35756  0.63275  1.0000
  H   H1300     1.0  0.03792  0.53904  0.72995  1.0000
  H   H1301     1.0  0.37770  0.49195  0.73423  1.0000
  H   H1302     1.0  0.46016  0.45748  0.72389  1.0000
  H   H1303     1.0  0.41925  0.55842  0.73272  1.0000
  N   N57       1.0  0.39392  0.47623  0.69248  1.0000
  C   C777      1.0  0.42760  0.61473  0.71567  1.0000
  C   C778      1.0  0.01296  0.43870  0.71076  1.0000
  H   H1304     1.0  0.22334  0.36804  0.53303  1.0000
  H   H1305     1.0  0.37328  0.34469  0.56788  1.0000
  H   H1306     1.0  0.02470  0.46540  0.70731  1.0000
  H   H1307     1.0  0.42902  0.60969  0.67159  1.0000
  H   H1308     1.0  0.40029  0.44361  0.69358  1.0000
  H   H1309     1.0  0.38231  0.60087  0.72232  1.0000
  H   H1310     1.0  0.40130  0.53498  0.72440  1.0000
  Fe  Fe102     1.0  0.42292  0.55171  0.63932  1.0000
  H   H1311     1.0  0.06469  0.62677  0.54897  1.0000
  H   H1312     1.0  0.07001  0.44882  0.70119  1.0000
  C   C779      1.0  0.40429  0.60476  0.69577  1.0000
  S   S213      1.0  0.38983  0.59797  0.68364  1.0000
  H   H1313     1.0  0.35785  0.61904  0.64726  1.0000
  H   H1314     1.0  0.36367  0.57646  0.54236  1.0000
  S   S214      1.0  0.00572  0.59286  0.61884  1.0000
  C   C780      1.0  0.00022  0.47416  0.63703  1.0000
  H   H1315     1.0  0.00476  0.52195  0.60671  1.0000
  C   C781      1.0  0.25056  0.33444  0.55052  1.0000
  C   C782      1.0  0.34838  0.57374  0.55087  1.0000
  C   C783      1.0  0.01229  0.41866  0.72093  1.0000
  C   C784      1.0  0.35028  0.61847  0.53943  1.0000
  S   S215      1.0  0.42177  0.60986  0.63024  1.0000
  H   H1316     1.0  0.44940  0.61892  0.68905  1.0000
  C   C785      1.0  0.35579  0.58570  0.57541  1.0000
  H   H1317     1.0  0.42957  0.51445  0.70296  1.0000
  C   C786      1.0  0.48130  0.41051  0.64489  1.0000
  H   H1318     1.0  0.47793  0.38739  0.72059  1.0000
  Fe  Fe103     1.0  0.40875  0.59386  0.61555  1.0000
  H   H1319     1.0  0.36335  0.61878  0.54498  1.0000
  C   C787      1.0  0.36237  0.56460  0.58812  1.0000
  C   C788      1.0  0.37459  0.65092  0.62134  1.0000
  C   C789      1.0  0.34231  0.64514  0.57830  1.0000
  Fe  Fe104     1.0  0.29211  0.65165  0.53370  1.0000
  H   H1320     1.0  0.33255  0.59100  0.52758  1.0000
  H   H1321     1.0  0.46449  0.60807  0.64670  1.0000
  C   C790      1.0  0.43476  0.61498  0.69633  1.0000
  H   H1322     1.0  0.46767  0.52415  0.59253  1.0000
  H   H1323     1.0  0.44069  0.40106  0.70879  1.0000
  H   H1324     1.0  0.36132  0.60557  0.62078  1.0000
  H   H1325     1.0  0.36538  0.49475  0.68545  1.0000
  H   H1326     1.0  0.29785  0.58477  0.60386  1.0000
  H   H1327     1.0  0.48473  0.46083  0.72326  1.0000
  C   C791      1.0  0.33526  0.62608  0.61069  1.0000
  C   C792      1.0  0.49106  0.34106  0.59083  1.0000
  H   H1328     1.0  0.48605  0.60228  0.71872  1.0000
  S   S216      1.0  0.43710  0.56949  0.61151  1.0000
  C   C793      1.0  0.45409  0.53070  0.70161  1.0000
  S   S217      1.0  0.39314  0.57461  0.64201  1.0000
  S   S218      1.0  0.32669  0.33928  0.49951  1.0000
  C   C794      1.0  0.38250  0.51600  0.68491  1.0000
  H   H1329     1.0  0.12181  0.47251  0.69032  1.0000
  S   S219      1.0  0.43639  0.56435  0.65621  1.0000
  N   N58       1.0  0.01692  0.48542  0.63440  1.0000
  C   C795      1.0  0.03386  0.47102  0.64346  1.0000
  C   C796      1.0  0.00962  0.50354  0.64360  1.0000
  C   C797      1.0  0.02627  0.49242  0.61374  1.0000
  H   H1330     1.0  0.30607  0.60773  0.59070  1.0000
  C   C798      1.0  0.04474  0.45185  0.63531  1.0000
  H   H1331     1.0  0.46586  0.53226  0.62175  1.0000
  H   H1332     1.0  0.10725  0.61108  0.59621  1.0000
  H   H1333     1.0  0.24278  0.33521  0.49664  1.0000
  H   H1334     1.0  0.04586  0.47924  0.64278  1.0000
  H   H1335     1.0  0.02801  0.46506  0.65871  1.0000
  H   H1336     1.0  0.09560  0.45407  0.71359  1.0000
  H   H1337     1.0  0.02221  0.51167  0.64078  1.0000
  H   H1338     1.0  0.03952  0.49938  0.61221  1.0000
  H   H1339     1.0  0.03243  0.47926  0.60672  1.0000
  C   C799      1.0  0.01543  0.55306  0.70190  1.0000
  Fe  Fe105     1.0  0.33181  0.32795  0.56805  1.0000
  H   H1340     1.0  0.05479  0.44144  0.64472  1.0000
  H   H1341     1.0  0.03381  0.44313  0.63474  1.0000
  H   H1342     1.0  0.05485  0.45572  0.62119  1.0000
  H   H1343     1.0  0.38701  0.49587  0.66634  1.0000
  H   H1344     1.0  0.20872  0.60152  0.56160  1.0000
  C   C800      1.0  0.03520  0.44100  0.72943  1.0000
  Fe  Fe106     1.0  0.00014  0.56113  0.62616  1.0000
  C   C801      1.0  0.08827  0.63520  0.55689  1.0000
  H   H1345     1.0  0.16398  0.61870  0.54020  1.0000
  C   C802      1.0  0.45866  0.54351  0.72710  1.0000
  C   C803      1.0  0.33349  0.60935  0.55509  1.0000
  H   H1346     1.0  0.08018  0.62680  0.63155  1.0000
  H   H1347     1.0  0.38974  0.45676  0.72045  1.0000
  H   H1348     1.0  0.14099  0.41399  0.70056  1.0000
  C   C804      1.0  0.08129  0.63577  0.49485  1.0000
  H   H1349     1.0  0.99755  0.51523  0.63746  1.0000
  C   C805      1.0  0.37012  0.62209  0.59218  1.0000
  H   H1350     1.0  0.31999  0.57151  0.54437  1.0000
  H   H1351     1.0  0.21991  0.36354  0.51187  1.0000
  H   H1352     1.0  0.03372  0.51948  0.72169  1.0000
  S   S220      1.0  0.39626  0.61091  0.58962  1.0000
  C   C806      1.0  0.04665  0.63730  0.63934  1.0000
  C   C807      1.0  0.40702  0.54827  0.71444  1.0000
  S   S221      1.0  0.33031  0.34805  0.58782  1.0000
  C   C808      1.0  0.27601  0.63413  0.50198  1.0000
  C   C809      1.0  0.45575  0.34587  0.60947  1.0000
  H   H1353     1.0  0.02167  0.54015  0.69445  1.0000
  H   H1354     1.0  0.04441  0.44947  0.73229  1.0000
  C   C810      1.0  0.39234  0.45826  0.68578  1.0000
  H   H1355     1.0  0.47045  0.56320  0.69958  1.0000
  C   C811      1.0  0.17350  0.62266  0.54784  1.0000
  S   S222      1.0  0.27892  0.63699  0.56347  1.0000
  C   C812      1.0  0.06621  0.62030  0.63762  1.0000
  H   H1356     1.0  0.41060  0.54664  0.69960  1.0000
  C   C813      1.0  0.02343  0.40969  0.73518  1.0000
  C   C814      1.0  0.38157  0.40861  0.72284  1.0000
  H   H1357     1.0  0.40012  0.45938  0.67059  1.0000
  H   H1358     1.0  0.06585  0.60973  0.62918  1.0000
  H   H1359     1.0  0.04529  0.55878  0.70222  1.0000
  C   C815      1.0  0.01216  0.50784  0.60139  1.0000
  H   H1360     1.0  0.48807  0.49204  0.60433  1.0000
  H   H1361     1.0  0.44613  0.46184  0.69334  1.0000
  H   H1362     1.0  0.46261  0.39872  0.57194  1.0000
  H   H1363     1.0  0.39816  0.51881  0.68165  1.0000
  C   C816      1.0  0.44541  0.51571  0.69567  1.0000
  N   N59       1.0  0.00821  0.54502  0.72280  1.0000
  H   H1364     1.0  0.32209  0.58801  0.60473  1.0000
  H   H1365     1.0  0.36256  0.46730  0.67741  1.0000
  Fe  Fe107     1.0  0.40806  0.58894  0.65651  1.0000
  H   H1366     1.0  0.08679  0.40343  0.71563  1.0000
  C   C817      1.0  0.24688  0.32843  0.53369  1.0000
  H   H1367     1.0  0.36816  0.47644  0.71644  1.0000
  H   H1368     1.0  0.38075  0.63415  0.62469  1.0000
  C   C818      1.0  0.99811  0.56229  0.73298  1.0000
  H   H1369     1.0  0.03453  0.62974  0.64957  1.0000
  H   H1370     1.0  0.48330  0.33837  0.58090  1.0000
  H   H1371     1.0  0.42659  0.51154  0.73269  1.0000
  S   S223      1.0  0.00367  0.60547  0.66672  1.0000
  H   H1372     1.0  0.33238  0.62454  0.66091  1.0000
  C   C819      1.0  0.10015  0.63090  0.57027  1.0000
  C   C820      1.0  0.39696  0.60479  0.71505  1.0000
  H   H1373     1.0  0.11557  0.42742  0.67066  1.0000
  H   H1374     1.0  0.36507  0.41081  0.72668  1.0000
  C   C821      1.0  0.42418  0.40323  0.71274  1.0000
  H   H1375     1.0  0.37438  0.56550  0.59483  1.0000
  H   H1376     1.0  0.42207  0.47905  0.67178  1.0000
  H   H1377     1.0  0.14547  0.39719  0.68527  1.0000
  H   H1378     1.0  0.37422  0.51796  0.69934  1.0000
  H   H1379     1.0  0.06093  0.47640  0.71899  1.0000
  H   H1380     1.0  0.39829  0.49869  0.71551  1.0000
  H   H1381     1.0  0.09012  0.64762  0.54465  1.0000
  C   C822      1.0  0.32093  0.58054  0.57827  1.0000
  H   H1382     1.0  0.30845  0.58352  0.57066  1.0000
  S   S224      1.0  0.07939  0.50090  0.73194  1.0000
  C   C823      1.0  0.33498  0.57557  0.53697  1.0000
  H   H1383     1.0  0.44364  0.35537  0.61848  1.0000
  C   C824      1.0  0.03379  0.63376  0.61347  1.0000
  H   H1384     1.0  0.20502  0.57018  0.52970  1.0000
  C   C825      1.0  0.38518  0.47313  0.71348  1.0000
  H   H1385     1.0  0.45389  0.54487  0.69023  1.0000
  C   C826      1.0  0.39147  0.48562  0.72426  1.0000
  C   C827      1.0  0.36319  0.63622  0.57681  1.0000
  C   C828      1.0  0.32831  0.64007  0.59524  1.0000
  C   C829      1.0  0.08145  0.43985  0.69138  1.0000
  C   C830      1.0  0.47984  0.53172  0.59257  1.0000
  H   H1386     1.0  0.41896  0.49068  0.69039  1.0000
  C   C831      1.0  0.38190  0.49520  0.68180  1.0000
  H   H1387     1.0  0.14746  0.42301  0.67530  1.0000
  H   H1388     1.0  0.47784  0.56592  0.71953  1.0000
  S   S225      1.0  0.44305  0.62023  0.72772  1.0000
  S   S226      1.0  0.11740  0.64623  0.56785  1.0000
  H   H1389     1.0  0.17628  0.59461  0.57104  1.0000
  H   H1390     1.0  0.32415  0.56370  0.58399  1.0000
  H   H1391     1.0  0.01387  0.49064  0.67287  1.0000
  S   S227      1.0  0.30210  0.65098  0.59751  1.0000
  H   H1392     1.0  0.08046  0.41570  0.67781  1.0000
  H   H1393     1.0  0.35583  0.61044  0.52759  1.0000
  H   H1394     1.0  0.34292  0.56465  0.52763  1.0000
  C   C832      1.0  0.31149  0.59100  0.59522  1.0000
  C   C833      1.0  0.48987  0.61583  0.65248  1.0000
  H   H1395     1.0  0.49483  0.61878  0.69704  1.0000
  H   H1396     1.0  0.46812  0.49592  0.62433  1.0000
  C   C834      1.0  0.41333  0.41108  0.72871  1.0000
  H   H1397     1.0  0.11164  0.40368  0.68603  1.0000
  C   C835      1.0  0.10772  0.44613  0.70333  1.0000
  C   C836      1.0  0.03169  0.56620  0.69607  1.0000
  H   H1398     1.0  0.99823  0.46379  0.65134  1.0000
  H   H1399     1.0  0.21068  0.57592  0.54903  1.0000
  H   H1400     1.0  0.48429  0.38281  0.59326  1.0000
  C   C837      1.0  0.42518  0.55295  0.71925  1.0000
  C   C838      1.0  0.39200  0.41408  0.73358  1.0000
  C   C839      1.0  0.46509  0.56348  0.71479  1.0000
  H   H1401     1.0  0.24072  0.61131  0.55381  1.0000
  H   H1402     1.0  0.38508  0.64788  0.67987  1.0000
  C   C840      1.0  0.48271  0.34927  0.62257  1.0000
  H   H1403     1.0  0.20380  0.62814  0.55948  1.0000
  H   H1404     1.0  0.15193  0.61168  0.57344  1.0000
  H   H1405     1.0  0.06228  0.41656  0.70030  1.0000
  H   H1406     1.0  0.19854  0.37449  0.52800  1.0000
  S   S228      1.0  0.48273  0.58232  0.61948  1.0000
  C   C841      1.0  0.16867  0.61095  0.56869  1.0000
  H   H1407     1.0  0.18431  0.58013  0.54689  1.0000
  H   H1408     1.0  0.26350  0.34250  0.54549  1.0000
  C   C842      1.0  0.22910  0.32839  0.50066  1.0000
  N   N60       1.0  0.49382  0.50932  0.62165  1.0000
  C   C843      1.0  0.46245  0.38228  0.57816  1.0000
  H   H1409     1.0  0.04926  0.64814  0.64647  1.0000
  C   C844      1.0  0.05766  0.65704  0.60762  1.0000
  H   H1410     1.0  0.44623  0.38095  0.58137  1.0000
  C   C845      1.0  0.01951  0.64287  0.59932  1.0000
  H   H1411     1.0  0.21512  0.34042  0.49916  1.0000
  H   H1412     1.0  0.26869  0.63418  0.51659  1.0000
  C   C846      1.0  0.48507  0.49265  0.61946  1.0000
  C   C847      1.0  0.38047  0.65081  0.65185  1.0000
  H   H1413     1.0  0.19541  0.33968  0.53418  1.0000
  C   C848      1.0  0.21316  0.36296  0.52704  1.0000
  C   C849      1.0  0.09372  0.41504  0.71777  1.0000
  H   H1414     1.0  0.00251  0.56292  0.69552  1.0000
  H   H1415     1.0  0.12070  0.43995  0.71048  1.0000
  S   S229      1.0  0.21855  0.65610  0.57032  1.0000
  H   H1416     1.0  0.44997  0.34789  0.59657  1.0000
  H   H1417     1.0  0.06759  0.61100  0.65197  1.0000
  H   H1418     1.0  0.47059  0.52364  0.70114  1.0000
  S   S230      1.0  0.30482  0.33105  0.55552  1.0000
  H   H1419     1.0  0.12537  0.45642  0.67433  1.0000
  H   H1420     1.0  0.02579  0.62306  0.62532  1.0000
  H   H1421     1.0  0.45942  0.38362  0.60688  1.0000
  H   H1422     1.0  0.48205  0.44120  0.71329  1.0000
  H   H1423     1.0  0.17285  0.61831  0.57802  1.0000
  C   C850      1.0  0.26457  0.63426  0.48923  1.0000
  H   H1424     1.0  0.48023  0.62569  0.66177  1.0000
  H   H1425     1.0  0.38537  0.63388  0.65408  1.0000
  H   H1426     1.0  0.11863  0.41204  0.73216  1.0000
  H   H1427     1.0  0.46927  0.41411  0.71824  1.0000
  C   C851      1.0  0.20877  0.34178  0.53833  1.0000
  C   C852      1.0  0.43804  0.51782  0.73575  1.0000
  H   H1428     1.0  0.06992  0.62689  0.50442  1.0000
  C   C853      1.0  0.49016  0.63357  0.72856  1.0000
  C   C854      1.0  0.00144  0.49869  0.66522  1.0000
  H   H1429     1.0  0.00058  0.50077  0.59946  1.0000
  H   H1430     1.0  0.04759  0.62391  0.60655  1.0000
  N   N61       1.0  0.36531  0.65884  0.63922  1.0000
  H   H1431     1.0  0.02463  0.63408  0.58797  1.0000
  C   C855      1.0  0.48167  0.52952  0.61301  1.0000
  C   C856      1.0  0.49067  0.50783  0.64258  1.0000
  C   C857      1.0  0.11431  0.46284  0.68600  1.0000
  H   H1432     1.0  0.45551  0.50024  0.69732  1.0000
  H   H1433     1.0  0.00652  0.65447  0.65503  1.0000
  N   N62       1.0  0.03985  0.64861  0.62113  1.0000
  H   H1434     1.0  0.44549  0.52086  0.68033  1.0000
  H   H1435     1.0  0.39842  0.65251  0.59567  1.0000
  C   C858      1.0  0.48030  0.65140  0.71425  1.0000
  C   C859      1.0  0.49315  0.47075  0.62991  1.0000
  H   H1436     1.0  0.48712  0.54040  0.64293  1.0000
  C   C860      1.0  0.34554  0.65165  0.64856  1.0000
  H   H1437     1.0  0.02532  0.57514  0.72976  1.0000
  H   H1438     1.0  0.48760  0.45969  0.62538  1.0000
  H   H1439     1.0  0.07092  0.64449  0.60437  1.0000
  H   H1440     1.0  0.40219  0.47549  0.73316  1.0000
  H   H1441     1.0  0.47318  0.53193  0.72769  1.0000
  C   C861      1.0  0.37326  0.65615  0.67151  1.0000
  H   H1442     1.0  0.01900  0.65908  0.59217  1.0000
  C   C862      1.0  0.31094  0.33115  0.48958  1.0000
  H   H1443     1.0  0.40499  0.65895  0.61420  1.0000
  H   H1444     1.0  0.10548  0.59778  0.48902  1.0000
  C   C863      1.0  0.17125  0.35493  0.85772  1.0000
  S   S231      1.0  0.08992  0.44193  0.75579  1.0000
  S   S232      1.0  0.08674  0.41994  0.96327  1.0000
  Fe  Fe108     1.0  0.04274  0.46128  0.79283  1.0000
  S   S233      1.0  0.07144  0.47331  0.78530  1.0000
  C   C864      1.0  0.46579  0.52846  0.84205  1.0000
  S   S234      1.0  0.01360  0.46938  0.81362  1.0000
  Fe  Fe109     1.0  0.08740  0.44044  0.78645  1.0000
  S   S235      1.0  0.11386  0.42750  0.80088  1.0000
  C   C865      1.0  0.22126  0.41185  0.90061  1.0000
  S   S236      1.0  0.05857  0.42844  0.79645  1.0000
  S   S237      1.0  0.43136  0.59961  0.81390  1.0000
  S   S238      1.0  0.44744  0.58206  0.77471  1.0000
  Fe  Fe110     1.0  0.41861  0.58624  0.79677  1.0000
  S   S239      1.0  0.40635  0.55782  0.81197  1.0000
  Fe  Fe111     1.0  0.13751  0.40897  0.90300  1.0000
  S   S240      1.0  0.16009  0.42722  0.88343  1.0000
  Fe  Fe112     1.0  0.10077  0.39269  0.90479  1.0000
  S   S241      1.0  0.04124  0.46515  0.76284  1.0000
  S   S242      1.0  0.08100  0.39015  0.88699  1.0000
  Fe  Fe113     1.0  0.10421  0.40586  0.93846  1.0000
  C   C866      1.0  0.48373  0.39847  0.74239  1.0000
  S   S243      1.0  0.10387  0.42252  0.90846  1.0000
  H   H1445     1.0  0.45218  0.54605  0.74176  1.0000
  H   H1446     1.0  0.33557  0.40819  0.76841  1.0000
  Fe  Fe114     1.0  0.39055  0.47263  0.77730  1.0000
  S   S244      1.0  0.42190  0.45307  0.77291  1.0000
  S   S245      1.0  0.38856  0.50610  0.76340  1.0000
  Fe  Fe115     1.0  0.37121  0.43603  0.79907  1.0000
  S   S246      1.0  0.40133  0.41360  0.79673  1.0000
  S   S247      1.0  0.34053  0.42712  0.81167  1.0000
  Fe  Fe116     1.0  0.41267  0.43768  0.80326  1.0000
  S   S248      1.0  0.43495  0.42955  0.82219  1.0000
  Fe  Fe117     1.0  0.40788  0.43111  0.76668  1.0000
  H   H1447     1.0  0.34601  0.33103  0.82771  1.0000
  S   S249      1.0  0.38191  0.45874  0.80833  1.0000
  S   S250      1.0  0.37700  0.45193  0.76829  1.0000
  S   S251      1.0  0.40469  0.61668  0.78017  1.0000
  C   C867      1.0  0.45643  0.44044  0.81083  1.0000
  C   C868      1.0  0.45491  0.45798  0.79633  1.0000
  C   C869      1.0  0.47255  0.46477  0.78520  1.0000
  H   H1448     1.0  0.15248  0.33260  0.97538  1.0000
  H   H1449     1.0  0.49187  0.57898  0.88633  1.0000
  C   C870      1.0  0.47550  0.43084  0.81531  1.0000
  H   H1450     1.0  0.44010  0.46639  0.79376  1.0000
  H   H1451     1.0  0.47136  0.47802  0.77376  1.0000
  C   C871      1.0  0.20599  0.35943  0.84109  1.0000
  C   C872      1.0  0.29701  0.35162  0.97814  1.0000
  C   C873      1.0  0.33399  0.36777  0.85602  1.0000
  C   C874      1.0  0.35290  0.37383  0.85000  1.0000
  C   C875      1.0  0.35523  0.39201  0.83632  1.0000
  C   C876      1.0  0.33869  0.40401  0.82843  1.0000
  C   C877      1.0  0.32000  0.39767  0.83411  1.0000
  C   C878      1.0  0.31763  0.37968  0.84788  1.0000
  H   H1452     1.0  0.36563  0.36467  0.85624  1.0000
  H   H1453     1.0  0.36969  0.39683  0.83208  1.0000
  H   H1454     1.0  0.30721  0.40682  0.82795  1.0000
  H   H1455     1.0  0.30316  0.37501  0.85208  1.0000
  C   C879      1.0  0.18310  0.42161  0.89092  1.0000
  C   C880      1.0  0.19655  0.43505  0.88312  1.0000
  C   C881      1.0  0.17852  0.38877  0.85141  1.0000
  H   H1456     1.0  0.19234  0.44908  0.87308  1.0000
  H   H1457     1.0  0.12189  0.33962  0.91358  1.0000
  H   H1458     1.0  0.47200  0.53505  0.85057  1.0000
  S   S252      1.0  0.15037  0.33594  0.93644  1.0000
  C   C882      1.0  0.12324  0.42754  0.96353  1.0000
  H   H1459     1.0  0.24725  0.40934  0.96414  1.0000
  H   H1460     1.0  0.12695  0.42921  0.94839  1.0000
  C   C883      1.0  0.38821  0.36206  0.79355  1.0000
  C   C884      1.0  0.35308  0.35729  0.80539  1.0000
  C   C885      1.0  0.36045  0.38680  0.78031  1.0000
  H   H1461     1.0  0.30868  0.36061  0.97175  1.0000
  H   H1462     1.0  0.48297  0.48318  0.84594  1.0000
  C   C886      1.0  0.40205  0.54365  0.79795  1.0000
  C   C887      1.0  0.40278  0.52264  0.80494  1.0000
  C   C888      1.0  0.39898  0.51099  0.79427  1.0000
  C   C889      1.0  0.39375  0.52043  0.77682  1.0000
  C   C890      1.0  0.39307  0.54145  0.76977  1.0000
  C   C891      1.0  0.39759  0.55299  0.78016  1.0000
  H   H1463     1.0  0.40629  0.51534  0.81866  1.0000
  H   H1464     1.0  0.39981  0.49477  0.79972  1.0000
  H   H1465     1.0  0.38876  0.54889  0.75641  1.0000
  H   H1466     1.0  0.39686  0.56925  0.77475  1.0000
  H   H1467     1.0  0.29914  0.34248  0.95250  1.0000
  H   H1468     1.0  0.44954  0.48632  0.74900  1.0000
  N   N63       1.0  0.21812  0.39948  0.97425  1.0000
  C   C892      1.0  0.09162  0.39872  0.86298  1.0000
  C   C893      1.0  0.08342  0.39585  0.84917  1.0000
  C   C894      1.0  0.09070  0.40408  0.83000  1.0000
  C   C895      1.0  0.10606  0.41537  0.82460  1.0000
  C   C896      1.0  0.11466  0.41776  0.83838  1.0000
  C   C897      1.0  0.10742  0.40949  0.85756  1.0000
  H   H1469     1.0  0.07132  0.38740  0.85330  1.0000
  H   H1470     1.0  0.08453  0.40153  0.81942  1.0000
  H   H1471     1.0  0.12644  0.42660  0.83429  1.0000
  H   H1472     1.0  0.11365  0.41205  0.86813  1.0000
  H   H1473     1.0  0.03047  0.48504  0.87298  1.0000
  N   N64       1.0  0.18774  0.36616  0.85604  1.0000
  H   H1474     1.0  0.20370  0.40298  0.95109  1.0000
  H   H1475     1.0  0.08362  0.37796  0.98322  1.0000
  S   S253      1.0  0.13438  0.38065  0.89664  1.0000
  C   C898      1.0  0.29149  0.34150  0.96717  1.0000
  C   C899      1.0  0.19331  0.36080  0.87504  1.0000
  C   C900      1.0  0.20539  0.37161  0.96608  1.0000
  Fe  Fe118     1.0  0.25923  0.37204  0.90574  1.0000
  H   H1476     1.0  0.21206  0.38431  0.91838  1.0000
  H   H1477     1.0  0.15558  0.38397  0.96699  1.0000
  H   H1478     1.0  0.41239  0.35875  0.76799  1.0000
  H   H1479     1.0  0.33842  0.35761  0.80192  1.0000
  H   H1480     1.0  0.34907  0.36786  0.81509  1.0000
  H   H1481     1.0  0.45921  0.43173  0.75031  1.0000
  H   H1482     1.0  0.32715  0.39291  0.79114  1.0000
  Fe  Fe119     1.0  0.25839  0.33231  0.89646  1.0000
  S   S254      1.0  0.33103  0.34557  0.87387  1.0000
  H   H1483     1.0  0.17842  0.39286  0.90972  1.0000
  H   H1484     1.0  0.28372  0.65253  0.89676  1.0000
  C   C901      1.0  0.13818  0.42747  0.97276  1.0000
  H   H1485     1.0  0.03248  0.50431  0.79908  1.0000
  H   H1486     1.0  0.20077  0.35675  0.82945  1.0000
  H   H1487     1.0  0.18916  0.39839  0.85072  1.0000
  S   S255      1.0  0.13828  0.39464  0.93330  1.0000
  Fe  Fe120     1.0  0.43506  0.61349  0.75955  1.0000
  H   H1488     1.0  0.19862  0.34403  0.87967  1.0000
  S   S256      1.0  0.24384  0.34609  0.92189  1.0000
  Fe  Fe121     1.0  0.29883  0.34438  0.89110  1.0000
  H   H1489     1.0  0.46878  0.54440  0.79578  1.0000
  C   C902      1.0  0.47491  0.43486  0.74507  1.0000
  H   H1490     1.0  0.02726  0.51312  0.84583  1.0000
  C   C903      1.0  0.21055  0.37003  0.87626  1.0000
  C   C904      1.0  0.00795  0.53038  0.79437  1.0000
  C   C905      1.0  0.17648  0.33143  0.86437  1.0000
  Fe  Fe122     1.0  0.42005  0.62982  0.79547  1.0000
  C   C906      1.0  0.49300  0.40800  0.76715  1.0000
  H   H1491     1.0  0.47799  0.62542  0.73781  1.0000
  H   H1492     1.0  0.49413  0.64072  0.73810  1.0000
  C   C907      1.0  0.20771  0.39853  0.90867  1.0000
  H   H1493     1.0  0.23684  0.36512  0.82946  1.0000
  H   H1494     1.0  0.02249  0.45946  0.85015  1.0000
  Fe  Fe123     1.0  0.05931  0.43298  0.76577  1.0000
  C   C908      1.0  0.47378  0.40288  0.78213  1.0000
  H   H1495     1.0  0.02322  0.39406  0.74285  1.0000
  C   C909      1.0  0.33833  0.39252  0.77743  1.0000
  C   C910      1.0  0.40596  0.36926  0.77784  1.0000
  H   H1496     1.0  0.13028  0.36357  0.97075  1.0000
  N   N65       1.0  0.49065  0.41505  0.74687  1.0000
  H   H1497     1.0  0.17645  0.32682  0.87966  1.0000
  S   S257      1.0  0.49106  0.58167  0.79476  1.0000
  H   H1498     1.0  0.23471  0.41163  0.94628  1.0000
  H   H1499     1.0  0.41859  0.36883  0.78441  1.0000
  H   H1500     1.0  0.01838  0.40891  0.79982  1.0000
  N   N66       1.0  0.30546  0.43040  0.87933  1.0000
  C   C911      1.0  0.29750  0.43764  0.86140  1.0000
  C   C912      1.0  0.32275  0.44087  0.87683  1.0000
  C   C913      1.0  0.28904  0.43561  0.89609  1.0000
  C   C914      1.0  0.31258  0.40750  0.88291  1.0000
  C   C915      1.0  0.27816  0.43047  0.86184  1.0000
  C   C916      1.0  0.34289  0.43350  0.86326  1.0000
  C   C917      1.0  0.27831  0.45836  0.89414  1.0000
  C   C918      1.0  0.32198  0.39728  0.90043  1.0000
  H   H1501     1.0  0.29423  0.45463  0.85702  1.0000
  H   H1502     1.0  0.30938  0.43252  0.84942  1.0000
  H   H1503     1.0  0.32646  0.43958  0.89060  1.0000
  H   H1504     1.0  0.31816  0.45764  0.87128  1.0000
  H   H1505     1.0  0.27705  0.42651  0.89956  1.0000
  H   H1506     1.0  0.29542  0.43118  0.90900  1.0000
  H   H1507     1.0  0.29964  0.39995  0.88503  1.0000
  H   H1508     1.0  0.32349  0.40261  0.87039  1.0000
  H   H1509     1.0  0.26483  0.43594  0.87259  1.0000
  H   H1510     1.0  0.27389  0.43697  0.84791  1.0000
  H   H1511     1.0  0.28072  0.41362  0.86408  1.0000
  H   H1512     1.0  0.35013  0.41740  0.86865  1.0000
  H   H1513     1.0  0.34068  0.43531  0.84885  1.0000
  H   H1514     1.0  0.35402  0.44297  0.86189  1.0000
  H   H1515     1.0  0.28918  0.46826  0.89216  1.0000
  H   H1516     1.0  0.26672  0.46023  0.90738  1.0000
  H   H1517     1.0  0.26996  0.46384  0.88251  1.0000
  H   H1518     1.0  0.30989  0.39377  0.91328  1.0000
  H   H1519     1.0  0.33105  0.40657  0.90314  1.0000
  H   H1520     1.0  0.33287  0.38279  0.89802  1.0000
  N   N67       1.0  0.04911  0.46081  0.85897  1.0000
  C   C919      1.0  0.06093  0.45001  0.87422  1.0000
  C   C920      1.0  0.06286  0.45814  0.84011  1.0000
  C   C921      1.0  0.03061  0.45201  0.86185  1.0000
  C   C922      1.0  0.04206  0.48311  0.85974  1.0000
  C   C923      1.0  0.04837  0.44799  0.89476  1.0000
  C   C924      1.0  0.08184  0.46785  0.83401  1.0000
  C   C925      1.0  0.03485  0.42884  0.86277  1.0000
  C   C926      1.0  0.27655  0.32971  0.97534  1.0000
  H   H1521     1.0  0.06910  0.43442  0.87236  1.0000
  H   H1522     1.0  0.07323  0.45795  0.87324  1.0000
  H   H1523     1.0  0.05415  0.46402  0.82866  1.0000
  H   H1524     1.0  0.06888  0.44165  0.84011  1.0000
  C   C927      1.0  0.25186  0.38164  0.95455  1.0000
  H   H1525     1.0  0.01792  0.54124  0.78894  1.0000
  H   H1526     1.0  0.38292  0.33703  0.77678  1.0000
  H   H1527     1.0  0.05495  0.48948  0.86021  1.0000
  H   H1528     1.0  0.47773  0.61945  0.80849  1.0000
  H   H1529     1.0  0.04055  0.46306  0.89819  1.0000
  H   H1530     1.0  0.03714  0.43814  0.89795  1.0000
  H   H1531     1.0  0.35697  0.34606  0.77542  1.0000
  H   H1532     1.0  0.46854  0.46707  0.84286  1.0000
  H   H1533     1.0  0.46828  0.39671  0.75111  1.0000
  H   H1534     1.0  0.47000  0.38872  0.78124  1.0000
  H   H1535     1.0  0.16718  0.41359  0.82953  1.0000
  H   H1536     1.0  0.17964  0.36524  0.88610  1.0000
  H   H1537     1.0  0.01746  0.55948  0.75274  1.0000
  H   H1538     1.0  0.39099  0.36801  0.74892  1.0000
  H   H1539     1.0  0.45035  0.65358  0.87667  1.0000
  N   N68       1.0  0.47718  0.51361  0.81204  1.0000
  H   H1540     1.0  0.01915  0.45526  0.87482  1.0000
  C   C928      1.0  0.46267  0.53015  0.80163  1.0000
  H   H1541     1.0  0.43279  0.63902  0.87664  1.0000
  H   H1542     1.0  0.18711  0.39920  0.97386  1.0000
  H   H1543     1.0  0.45327  0.65564  0.81344  1.0000
  C   C929      1.0  0.45700  0.52472  0.78545  1.0000
  C   C930      1.0  0.49171  0.45454  0.78897  1.0000
  Fe  Fe124     1.0  0.27354  0.33136  0.93086  1.0000
  H   H1544     1.0  0.45128  0.50161  0.83117  1.0000
  H   H1545     1.0  0.22111  0.36415  0.96015  1.0000
  H   H1546     1.0  0.09063  0.46481  0.81998  1.0000
  H   H1547     1.0  0.44793  0.53459  0.81150  1.0000
  H   H1548     1.0  0.49293  0.49734  0.78974  1.0000
  H   H1549     1.0  0.00824  0.52788  0.75985  1.0000
  H   H1550     1.0  0.07780  0.48467  0.83243  1.0000
  H   H1551     1.0  0.01852  0.49280  0.84250  1.0000
  H   H1552     1.0  0.43041  0.52257  0.74938  1.0000
  H   H1553     1.0  0.20719  0.38694  0.87244  1.0000
  C   C931      1.0  0.47846  0.47827  0.83518  1.0000
  C   C932      1.0  0.03494  0.42088  0.73939  1.0000
  Fe  Fe125     1.0  0.07163  0.47397  0.75529  1.0000
  C   C933      1.0  0.01619  0.50951  0.80007  1.0000
  H   H1554     1.0  0.37088  0.33506  0.82515  1.0000
  C   C934      1.0  0.03228  0.49731  0.84339  1.0000
  H   H1555     1.0  0.25160  0.36812  0.96633  1.0000
  C   C935      1.0  0.37126  0.35134  0.77383  1.0000
  Fe  Fe126     1.0  0.13210  0.36737  0.92747  1.0000
  H   H1556     1.0  0.37020  0.39275  0.76667  1.0000
  S   S258      1.0  0.42679  0.41686  0.74241  1.0000
  H   H1557     1.0  0.38547  0.37043  0.80498  1.0000
  H   H1558     1.0  0.40178  0.38522  0.77000  1.0000
  C   C936      1.0  0.20881  0.42002  0.97945  1.0000
  C   C937      1.0  0.20097  0.43760  0.96375  1.0000
  H   H1559     1.0  0.19551  0.37057  0.95720  1.0000
  C   C938      1.0  0.00738  0.42385  0.79973  1.0000
  S   S259      1.0  0.44959  0.62863  0.77359  1.0000
  H   H1560     1.0  0.22546  0.36383  0.86761  1.0000
  H   H1561     1.0  0.02002  0.42401  0.86625  1.0000
  H   H1562     1.0  0.46549  0.50326  0.74738  1.0000
  C   C939      1.0  0.23787  0.40142  0.95986  1.0000
  H   H1563     1.0  0.39981  0.62986  0.83841  1.0000
  C   C940      1.0  0.00332  0.49549  0.80702  1.0000
  S   S260      1.0  0.28795  0.35849  0.91645  1.0000
  H   H1564     1.0  0.45305  0.54043  0.83709  1.0000
  H   H1565     1.0  0.01646  0.43587  0.79374  1.0000
  C   C941      1.0  0.17063  0.39658  0.83294  1.0000
  C   C942      1.0  0.46655  0.49613  0.82245  1.0000
  H   H1566     1.0  0.10293  0.39373  0.74241  1.0000
  H   H1567     1.0  0.22035  0.38568  0.83921  1.0000
  H   H1568     1.0  0.05894  0.44040  0.90451  1.0000
  H   H1569     1.0  0.48899  0.53655  0.81782  1.0000
  H   H1570     1.0  0.47044  0.52130  0.77399  1.0000
  H   H1571     1.0  0.39442  0.34578  0.79958  1.0000
  H   H1572     1.0  0.04319  0.42515  0.84889  1.0000
  H   H1573     1.0  0.15693  0.36055  0.86753  1.0000
  C   C943      1.0  0.39441  0.64489  0.84161  1.0000
  H   H1574     1.0  0.16538  0.39294  0.86301  1.0000
  C   C944      1.0  0.02049  0.51864  0.75097  1.0000
  C   C945      1.0  0.10367  0.42518  0.97390  1.0000
  S   S261      1.0  0.04939  0.40961  0.75673  1.0000
  H   H1575     1.0  0.04328  0.41948  0.87382  1.0000
  H   H1576     1.0  0.29931  0.65649  0.87373  1.0000
  H   H1577     1.0  0.33531  0.38188  0.77045  1.0000
  S   S262      1.0  0.27093  0.36004  0.87929  1.0000
  H   H1578     1.0  0.20011  0.36280  0.98057  1.0000
  C   C946      1.0  0.37738  0.36120  0.75259  1.0000
  H   H1579     1.0  0.18809  0.43468  0.95961  1.0000
  H   H1580     1.0  0.16698  0.35787  0.84389  1.0000
  H   H1581     1.0  0.46325  0.48912  0.81236  1.0000
  H   H1582     1.0  0.46030  0.41571  0.78134  1.0000
  C   C947      1.0  0.48309  0.52240  0.82545  1.0000
  H   H1583     1.0  0.38648  0.63336  0.87176  1.0000
  S   S263      1.0  0.09800  0.37696  0.93542  1.0000
  H   H1584     1.0  0.15607  0.39189  0.83459  1.0000
  H   H1585     1.0  0.22588  0.44070  0.88197  1.0000
  Fe  Fe127     1.0  0.45937  0.59732  0.79062  1.0000
  H   H1586     1.0  0.15349  0.42854  0.96472  1.0000
  S   S264      1.0  0.24575  0.40524  0.90536  1.0000
  H   H1587     1.0  0.04329  0.49810  0.82955  1.0000
  H   H1588     1.0  0.24800  0.37841  0.94251  1.0000
  H   H1589     1.0  0.21250  0.36536  0.89108  1.0000
  H   H1590     1.0  0.09239  0.46087  0.84381  1.0000
  C   C948      1.0  0.21550  0.43032  0.88817  1.0000
  N   N69       1.0  0.36843  0.36439  0.78778  1.0000
  H   H1591     1.0  0.03420  0.51350  0.75726  1.0000
  H   H1592     1.0  0.40318  0.60920  0.74001  1.0000
  C   C949      1.0  0.38691  0.64691  0.86046  1.0000
  H   H1593     1.0  0.21518  0.34439  0.84711  1.0000
  C   C950      1.0  0.18854  0.40350  0.90396  1.0000
  H   H1594     1.0  0.36106  0.39606  0.78998  1.0000
  H   H1595     1.0  0.45980  0.51512  0.85166  1.0000
  C   C951      1.0  0.35959  0.33553  0.81703  1.0000
  H   H1596     1.0  0.21329  0.44080  0.95110  1.0000
  H   H1597     1.0  0.47672  0.41742  0.82672  1.0000
  H   H1598     1.0  0.49312  0.56406  0.90950  1.0000
  H   H1599     1.0  0.21994  0.42550  0.98396  1.0000
  H   H1600     1.0  0.21860  0.38214  0.81694  1.0000
  H   H1601     1.0  0.30976  0.65298  0.89411  1.0000
  H   H1602     1.0  0.44884  0.51188  0.79063  1.0000
  C   C952      1.0  0.20312  0.39433  0.96601  1.0000
  H   H1603     1.0  0.44622  0.53808  0.77907  1.0000
  H   H1604     1.0  0.47686  0.39992  0.79644  1.0000
  H   H1605     1.0  0.19490  0.45179  0.96930  1.0000
  H   H1606     1.0  0.47630  0.44428  0.75427  1.0000
  H   H1607     1.0  0.26802  0.38342  0.95034  1.0000
  C   C953      1.0  0.22089  0.37422  0.83139  1.0000
  H   H1608     1.0  0.18196  0.39142  0.82076  1.0000
  H   H1609     1.0  0.01523  0.50483  0.75128  1.0000
  H   H1610     1.0  0.37156  0.65435  0.98629  1.0000
  H   H1611     1.0  0.99972  0.42430  0.81465  1.0000
  H   H1612     1.0  0.49424  0.38342  0.74599  1.0000
  C   C954      1.0  0.49383  0.61361  0.80834  1.0000
  H   H1613     1.0  0.00287  0.58444  0.74591  1.0000
  C   C955      1.0  0.49318  0.43794  0.80440  1.0000
  H   H1614     1.0  0.49212  0.46990  0.82666  1.0000
  H   H1615     1.0  0.38356  0.42055  0.74566  1.0000
  H   H1616     1.0  0.45135  0.64820  0.84447  1.0000
  H   H1617     1.0  0.16325  0.35949  0.98147  1.0000
  H   H1618     1.0  0.36458  0.37302  0.74758  1.0000
  C   C956      1.0  0.15130  0.37371  0.98094  1.0000
  H   H1619     1.0  0.38109  0.34930  0.74423  1.0000
  H   H1620     1.0  0.11940  0.38484  0.98110  1.0000
  H   H1621     1.0  0.00073  0.45654  0.76116  1.0000
  H   H1622     1.0  0.99784  0.46530  0.78156  1.0000
  H   H1623     1.0  0.00160  0.42226  0.77390  1.0000
  C   C957      1.0  0.43644  0.65450  0.87179  1.0000
  C   C958      1.0  0.12993  0.36967  0.98303  1.0000
  C   C959      1.0  0.45588  0.49967  0.73971  1.0000
  C   C960      1.0  0.01201  0.57062  0.74056  1.0000
  C   C961      1.0  0.13390  0.32623  0.91184  1.0000
  Fe  Fe128     1.0  0.33264  0.89152  0.06365  1.0000
  S   S265      1.0  0.34250  0.88105  0.09132  1.0000
  S   S266      1.0  0.30519  0.91723  0.06150  1.0000
  Fe  Fe129     1.0  0.36861  0.86322  0.04460  1.0000
  S   S267      1.0  0.38187  0.85087  0.07038  1.0000
  S   S268      1.0  0.38364  0.84898  0.01956  1.0000
  Fe  Fe130     1.0  0.34956  0.84967  0.08564  1.0000
  S   S269      1.0  0.34014  0.82289  0.10795  1.0000
  Fe  Fe131     1.0  0.37384  0.88339  0.07351  1.0000
  S   S270      1.0  0.39697  0.89583  0.08060  1.0000
  S   S271      1.0  0.33665  0.85984  0.05967  1.0000
  S   S272      1.0  0.36361  0.89605  0.04609  1.0000
  Fe  Fe132     1.0  0.33671  0.72806  0.04981  1.0000
  S   S273      1.0  0.33006  0.74238  0.02092  1.0000
  Fe  Fe133     1.0  0.35859  0.72707  0.07974  1.0000
  S   S274      1.0  0.33695  0.71107  0.10349  1.0000
  S   S275      1.0  0.38349  0.73905  0.08367  1.0000
  Fe  Fe134     1.0  0.31241  0.73225  0.08911  1.0000
  S   S276      1.0  0.28237  0.75042  0.10206  1.0000
  S   S277      1.0  0.36383  0.70631  0.06000  1.0000
  S   S278      1.0  0.33391  0.75012  0.06740  1.0000
  H   H1624     1.0  0.41886  0.94201  0.22903  1.0000
  Fe  Fe135     1.0  0.20048  0.86779  0.07345  1.0000
  S   S279      1.0  0.18789  0.89415  0.05203  1.0000
  S   S280      1.0  0.19180  0.86930  0.10407  1.0000
  Fe  Fe136     1.0  0.22813  0.84496  0.04372  1.0000
  S   S281      1.0  0.21791  0.86930  0.01978  1.0000
  S   S282      1.0  0.25298  0.81904  0.03504  1.0000
  Fe  Fe137     1.0  0.22043  0.89094  0.03570  1.0000
  S   S283      1.0  0.23566  0.91754  0.02221  1.0000
  Fe  Fe138     1.0  0.18658  0.86991  0.03826  1.0000
  S   S284      1.0  0.15902  0.87049  0.02800  1.0000
  S   S285      1.0  0.23314  0.86665  0.05816  1.0000
  S   S286      1.0  0.19653  0.84351  0.06117  1.0000
  Fe  Fe139     1.0  0.06397  0.92571  0.18244  1.0000
  S   S287      1.0  0.09446  0.92459  0.16188  1.0000
  S   S288      1.0  0.05871  0.91588  0.21403  1.0000
  N   N70       1.0  0.39858  0.96831  0.09794  1.0000
  S   S289      1.0  0.06748  0.94160  0.12878  1.0000
  Fe  Fe140     1.0  0.08035  0.91135  0.14587  1.0000
  S   S290      1.0  0.09547  0.88661  0.12968  1.0000
  Fe  Fe141     1.0  0.07907  0.95492  0.14657  1.0000
  S   S291      1.0  0.05102  0.90986  0.16765  1.0000
  S   S292      1.0  0.04984  0.95727  0.16860  1.0000
  Fe  Fe142     1.0  0.43217  0.92384  0.18345  1.0000
  S   S293      1.0  0.42066  0.95570  0.18801  1.0000
  N   N71       1.0  0.38640  0.66495  0.14388  1.0000
  Fe  Fe143     1.0  0.39338  0.92291  0.17300  1.0000
  S   S294      1.0  0.37854  0.95492  0.17652  1.0000
  S   S295      1.0  0.37490  0.90606  0.16478  1.0000
  Fe  Fe144     1.0  0.40924  0.96215  0.16159  1.0000
  C   C962      1.0  0.15095  0.85476  0.00226  1.0000
  C   C963      1.0  0.39285  0.84198  0.16364  1.0000
  H   H1625     1.0  0.40208  0.80738  0.12495  1.0000
  S   S296      1.0  0.42311  0.93087  0.15560  1.0000
  C   C964      1.0  0.05404  0.87063  0.12258  1.0000
  H   H1626     1.0  0.01872  0.91008  0.15064  1.0000
  H   H1627     1.0  0.01631  0.89138  0.10304  1.0000
  H   H1628     1.0  0.41690  0.85826  0.10335  1.0000
  H   H1629     1.0  0.29765  0.84407  0.07842  1.0000
  H   H1630     1.0  0.35892  0.95050  0.13418  1.0000
  C   C965      1.0  0.04661  0.88717  0.08277  1.0000
  H   H1631     1.0  0.08645  0.91243  0.05827  1.0000
  H   H1632     1.0  0.49094  0.93868  0.22257  1.0000
  H   H1633     1.0  0.38006  0.81892  0.11532  1.0000
  H   H1634     1.0  0.15117  0.94148  0.14721  1.0000
  H   H1635     1.0  0.29769  0.90733  0.00179  1.0000
  C   C966      1.0  0.35879  0.83840  0.14488  1.0000
  H   H1636     1.0  0.08197  0.94817  0.19956  1.0000
  C   C967      1.0  0.16513  0.87294  0.11193  1.0000
  C   C968      1.0  0.15325  0.87091  0.10060  1.0000
  C   C969      1.0  0.13189  0.87462  0.10647  1.0000
  C   C970      1.0  0.12228  0.88103  0.12340  1.0000
  C   C971      1.0  0.13412  0.88305  0.13480  1.0000
  C   C972      1.0  0.15557  0.87885  0.12912  1.0000
  H   H1637     1.0  0.16051  0.86635  0.08732  1.0000
  H   H1638     1.0  0.12284  0.87284  0.09769  1.0000
  H   H1639     1.0  0.12675  0.88767  0.14804  1.0000
  H   H1640     1.0  0.16474  0.88034  0.13795  1.0000
  H   H1641     1.0  0.14791  0.98758  0.06591  1.0000
  C   C973      1.0  0.47008  0.90905  0.20695  1.0000
  H   H1642     1.0  0.06384  0.92825  0.08412  1.0000
  C   C974      1.0  0.05041  0.89347  0.11259  1.0000
  C   C975      1.0  0.40721  0.94672  0.07283  1.0000
  H   H1643     1.0  0.23524  0.77298  0.99960  1.0000
  C   C976      1.0  0.32092  0.79781  0.00518  1.0000
  H   H1644     1.0  0.19601  0.83272  0.02136  1.0000
  H   H1645     1.0  0.26134  0.85725  0.00114  1.0000
  H   H1646     1.0  0.05830  0.90145  0.11844  1.0000
  C   C977      1.0  0.27207  0.76804  0.08360  1.0000
  C   C978      1.0  0.28181  0.76733  0.06485  1.0000
  C   C979      1.0  0.27526  0.78262  0.05002  1.0000
  C   C980      1.0  0.25881  0.79869  0.05381  1.0000
  C   C981      1.0  0.24809  0.79881  0.07247  1.0000
  C   C982      1.0  0.25477  0.78346  0.08740  1.0000
  H   H1647     1.0  0.29452  0.75503  0.06166  1.0000
  H   H1648     1.0  0.28320  0.78204  0.03564  1.0000
  H   H1649     1.0  0.23508  0.81102  0.07545  1.0000
  H   H1650     1.0  0.24686  0.78380  0.10187  1.0000
  C   C983      1.0  0.03152  0.93343  0.09362  1.0000
  H   H1651     1.0  0.39819  0.66732  0.03809  1.0000
  C   C984      1.0  0.18737  0.93403  0.08080  1.0000
  H   H1652     1.0  0.32097  0.67888  0.01302  1.0000
  H   H1653     1.0  0.05301  0.87038  0.08562  1.0000
  H   H1654     1.0  0.38660  0.86314  0.12752  1.0000
  H   H1655     1.0  0.37959  0.78373  0.13285  1.0000
  C   C985      1.0  0.39061  0.90066  0.10335  1.0000
  C   C986      1.0  0.40621  0.90013  0.11204  1.0000
  C   C987      1.0  0.40148  0.90238  0.13079  1.0000
  C   C988      1.0  0.38114  0.90515  0.14085  1.0000
  C   C989      1.0  0.36553  0.90633  0.13196  1.0000
  C   C990      1.0  0.37024  0.90427  0.11318  1.0000
  H   H1656     1.0  0.42201  0.89735  0.10445  1.0000
  H   H1657     1.0  0.41360  0.90125  0.13766  1.0000
  H   H1658     1.0  0.34975  0.90874  0.13966  1.0000
  H   H1659     1.0  0.35810  0.90537  0.10639  1.0000
  C   C991      1.0  0.35269  0.79941  0.10169  1.0000
  C   C992      1.0  0.37189  0.79738  0.08931  1.0000
  C   C993      1.0  0.38165  0.77863  0.08425  1.0000
  C   C994      1.0  0.37193  0.76202  0.09110  1.0000
  C   C995      1.0  0.35267  0.76403  0.10340  1.0000
  C   C996      1.0  0.34327  0.78258  0.10901  1.0000
  H   H1660     1.0  0.37937  0.81015  0.08368  1.0000
  H   H1661     1.0  0.39648  0.77715  0.07463  1.0000
  H   H1662     1.0  0.34507  0.75125  0.10870  1.0000
  H   H1663     1.0  0.32851  0.78398  0.11871  1.0000
  C   C997      1.0  0.28692  0.91663  0.04969  1.0000
  C   C998      1.0  0.28499  0.89838  0.04658  1.0000
  C   C999      1.0  0.26908  0.89840  0.03839  1.0000
  C   C1000     1.0  0.25558  0.91679  0.03273  1.0000
  C   C1001     1.0  0.25811  0.93506  0.03520  1.0000
  C   C1002     1.0  0.27348  0.93492  0.04395  1.0000
  H   H1664     1.0  0.29553  0.88430  0.05074  1.0000
  H   H1665     1.0  0.26753  0.88426  0.03621  1.0000
  H   H1666     1.0  0.24787  0.94931  0.03074  1.0000
  H   H1667     1.0  0.27499  0.94907  0.04628  1.0000
  H   H1668     1.0  0.16160  0.92053  0.12408  1.0000
  C   C1003     1.0  0.08569  0.95547  0.22431  1.0000
  H   H1669     1.0  0.44379  0.96302  0.21441  1.0000
  H   H1670     1.0  0.19294  0.81767  0.99076  1.0000
  S   S297      1.0  0.37403  0.95475  0.22990  1.0000
  H   H1671     1.0  0.28684  0.84609  0.00329  1.0000
  H   H1672     1.0  0.33857  0.80873  0.06783  1.0000
  H   H1673     1.0  0.35523  0.88760  0.01250  1.0000
  H   H1674     1.0  0.01833  0.87721  0.08654  1.0000
  H   H1675     1.0  0.44723  0.95683  0.10608  1.0000
  H   H1676     1.0  0.01598  0.90456  0.07880  1.0000
  C   C1004     1.0  0.39258  0.82537  0.15377  1.0000
  C   C1005     1.0  0.38736  0.66835  0.02928  1.0000
  C   C1006     1.0  0.28101  0.87947  0.99435  1.0000
  H   H1677     1.0  0.00649  0.91829  0.20360  1.0000
  H   H1678     1.0  0.38926  0.99091  0.11519  1.0000
  H   H1679     1.0  0.32500  0.78084  0.03307  1.0000
  S   S298      1.0  0.00856  0.95436  0.14446  1.0000
  H   H1680     1.0  0.47714  0.93893  0.19536  1.0000
  H   H1681     1.0  0.19037  0.87865  0.99348  1.0000
  H   H1682     1.0  0.10620  0.89045  0.06275  1.0000
  H   H1683     1.0  0.16699  0.91313  0.09413  1.0000
  C   C1007     1.0  0.37144  0.95915  0.12863  1.0000
  C   C1008     1.0  0.00544  0.91573  0.14449  1.0000
  H   H1684     1.0  0.05978  0.98902  0.11208  1.0000
  H   H1685     1.0  0.39110  0.79503  0.00336  1.0000
  H   H1686     1.0  0.36204  0.78259  0.99998  1.0000
  C   C1009     1.0  0.99734  0.93674  0.14012  1.0000
  H   H1687     1.0  0.13813  0.85057  0.01333  1.0000
  C   C1010     1.0  0.36308  0.78222  0.01452  1.0000
  H   H1688     1.0  0.38331  0.95119  0.13692  1.0000
  S   S299      1.0  0.40365  0.91282  0.20053  1.0000
  C   C1011     1.0  0.47724  0.92596  0.20721  1.0000
  H   H1689     1.0  0.03407  0.89959  0.11764  1.0000
  H   H1690     1.0  0.41789  0.93502  0.08081  1.0000
  S   S300      1.0  0.41372  0.99136  0.14038  1.0000
  H   H1691     1.0  0.33403  0.86228  0.15492  1.0000
  C   C1012     1.0  0.14425  0.94737  0.13461  1.0000
  C   C1013     1.0  0.34201  0.68310  0.02833  1.0000
  H   H1692     1.0  0.31758  0.70450  0.01573  1.0000
  N   N72       1.0  0.34778  0.79962  0.02219  1.0000
  C   C1014     1.0  0.41574  0.95588  0.10761  1.0000
  H   H1693     1.0  0.04829  0.86942  0.13806  1.0000
  C   C1015     1.0  0.43794  0.95654  0.09632  1.0000
  C   C1016     1.0  0.22850  0.82583  0.99208  1.0000
  H   H1694     1.0  0.41485  0.93944  0.11176  1.0000
  H   H1695     1.0  0.35903  0.67988  0.13300  1.0000
  S   S301      1.0  0.31372  0.71126  0.07092  1.0000
  H   H1696     1.0  0.38067  0.70820  0.14205  1.0000
  H   H1697     1.0  0.39619  0.66001  0.01802  1.0000
  C   C1017     1.0  0.36771  0.68203  0.14250  1.0000
  C   C1018     1.0  0.39329  0.99019  0.10004  1.0000
  H   H1698     1.0  0.39029  0.97781  0.07072  1.0000
  C   C1019     1.0  0.32672  0.79618  0.02398  1.0000
  H   H1699     1.0  0.03293  0.93468  0.10756  1.0000
  C   C1020     1.0  0.47493  0.97125  0.13246  1.0000
  C   C1021     1.0  0.37538  0.79591  0.14099  1.0000
  H   H1700     1.0  0.36653  0.82207  0.00853  1.0000
  C   C1022     1.0  0.05154  0.92105  0.08356  1.0000
  C   C1023     1.0  0.16556  0.92969  0.08735  1.0000
  H   H1701     1.0  0.09385  0.96749  0.21628  1.0000
  C   C1024     1.0  0.27745  0.85839  0.99436  1.0000
  H   H1702     1.0  0.08721  0.89767  0.09307  1.0000
  H   H1703     1.0  0.37394  0.98578  0.19561  1.0000
  C   C1025     1.0  0.48242  0.98879  0.12226  1.0000
  H   H1704     1.0  0.35034  0.83664  0.13506  1.0000
  C   C1026     1.0  0.07941  0.89092  0.08594  1.0000
  H   H1705     1.0  0.02857  0.94930  0.08505  1.0000
  C   C1027     1.0  0.43945  0.97509  0.22262  1.0000
  H   H1706     1.0  0.35850  0.86555  0.15522  1.0000
  H   H1707     1.0  0.16038  0.93135  0.07428  1.0000
  C   C1028     1.0  0.46989  0.89242  0.22243  1.0000
  C   C1029     1.0  0.36890  0.98150  0.22577  1.0000
  H   H1708     1.0  0.08400  0.87406  0.09077  1.0000
  H   H1709     1.0  0.35975  0.76719  0.02328  1.0000
  H   H1710     1.0  0.41408  0.94763  0.05754  1.0000
  H   H1711     1.0  0.35355  0.82825  0.15872  1.0000
  H   H1712     1.0  0.05105  0.92449  0.06834  1.0000
  H   H1713     1.0  0.05053  0.89182  0.06708  1.0000
  C   C1030     1.0  0.45385  0.97223  0.13831  1.0000
  H   H1714     1.0  0.35262  0.67603  0.99184  1.0000
  C   C1031     1.0  0.37970  0.95943  0.10736  1.0000
  H   H1715     1.0  0.35843  0.80031  0.14412  1.0000
  H   H1716     1.0  0.40733  0.68370  0.12417  1.0000
  H   H1717     1.0  0.39532  0.76785  0.00788  1.0000
  C   C1032     1.0  0.24049  0.78776  0.99490  1.0000
  N   N73       1.0  0.38161  0.83203  0.13771  1.0000
  H   H1718     1.0  0.36412  0.80656  0.03969  1.0000
  C   C1033     1.0  0.08932  0.89580  0.06462  1.0000
  H   H1719     1.0  0.38265  0.94323  0.10632  1.0000
  H   H1720     1.0  0.26739  0.88631  0.00418  1.0000
  H   H1721     1.0  0.14258  0.96423  0.13103  1.0000
  H   H1722     1.0  0.30868  0.68569  0.03561  1.0000
  H   H1723     1.0  0.14922  0.96301  0.06316  1.0000
  H   H1724     1.0  0.38902  0.77983  0.02736  1.0000
  H   H1725     1.0  0.40720  0.97569  0.23311  1.0000
  C   C1034     1.0  0.38581  0.78148  0.01334  1.0000
  C   C1035     1.0  0.35029  0.86065  0.14719  1.0000
  C   C1036     1.0  0.38543  0.81398  0.12883  1.0000
  H   H1726     1.0  0.35616  0.71497  0.13638  1.0000
  H   H1727     1.0  0.39452  0.85692  0.15402  1.0000
  H   H1728     1.0  0.38084  0.78905  0.15430  1.0000
  H   H1729     1.0  0.44515  0.94225  0.09110  1.0000
  H   H1730     1.0  0.17311  0.94224  0.11544  1.0000
  H   H1731     1.0  0.42214  0.84011  0.12418  1.0000
  N   N74       1.0  0.15040  0.94236  0.10052  1.0000
  C   C1037     1.0  0.15835  0.93740  0.11834  1.0000
  H   H1732     1.0  0.41657  0.97473  0.06905  1.0000
  C   C1038     1.0  0.12975  0.93650  0.10585  1.0000
  C   C1039     1.0  0.14832  0.96502  0.09238  1.0000
  H   H1733     1.0  0.32596  0.82400  0.04951  1.0000
  H   H1734     1.0  0.18039  0.81567  0.02112  1.0000
  C   C1040     1.0  0.12277  0.93111  0.09044  1.0000
  H   H1735     1.0  0.33599  0.85073  0.99887  1.0000
  C   C1041     1.0  0.36745  0.72482  0.00154  1.0000
  H   H1736     1.0  0.35217  0.69147  0.01654  1.0000
  H   H1737     1.0  0.43542  0.98994  0.21273  1.0000
  H   H1738     1.0  0.37802  0.70681  0.11928  1.0000
  H   H1739     1.0  0.12929  0.92288  0.11777  1.0000
  H   H1740     1.0  0.11742  0.94883  0.11121  1.0000
  H   H1741     1.0  0.13636  0.97378  0.10212  1.0000
  H   H1742     1.0  0.16238  0.97030  0.09154  1.0000
  C   C1042     1.0  0.29499  0.91953  0.98918  1.0000
  H   H1743     1.0  0.12892  0.94357  0.13895  1.0000
  H   H1744     1.0  0.04552  0.86200  0.11823  1.0000
  H   H1745     1.0  0.22440  0.80164  0.02727  1.0000
  H   H1746     1.0  0.41118  0.68665  0.15050  1.0000
  H   H1747     1.0  0.43978  0.96988  0.08449  1.0000
  H   H1748     1.0  0.12278  0.94335  0.07748  1.0000
  H   H1749     1.0  0.10687  0.92863  0.09606  1.0000
  H   H1750     1.0  0.13229  0.91652  0.08683  1.0000
  C   C1043     1.0  0.35146  0.81941  0.00860  1.0000
  H   H1751     1.0  0.18743  0.95029  0.07385  1.0000
  H   H1752     1.0  0.01793  0.92705  0.09560  1.0000
  N   N75       1.0  0.27053  0.84124  0.10082  1.0000
  C   C1044     1.0  0.24954  0.83715  0.10351  1.0000
  C   C1045     1.0  0.28108  0.84468  0.08014  1.0000
  C   C1046     1.0  0.28360  0.82452  0.11259  1.0000
  C   C1047     1.0  0.23727  0.83284  0.12409  1.0000
  C   C1048     1.0  0.27977  0.83008  0.06867  1.0000
  C   C1049     1.0  0.28643  0.80237  0.11061  1.0000
  H   H1753     1.0  0.25007  0.82403  0.09768  1.0000
  H   H1754     1.0  0.23998  0.85039  0.09551  1.0000
  H   H1755     1.0  0.27461  0.86029  0.07255  1.0000
  H   H1756     1.0  0.27823  0.82474  0.12789  1.0000
  H   H1757     1.0  0.24540  0.81941  0.13307  1.0000
  H   H1758     1.0  0.23312  0.84641  0.13042  1.0000
  H   H1759     1.0  0.22258  0.82927  0.12416  1.0000
  H   H1760     1.0  0.28917  0.83380  0.05415  1.0000
  H   H1761     1.0  0.26402  0.83236  0.06691  1.0000
  H   H1762     1.0  0.28538  0.81380  0.07469  1.0000
  H   H1763     1.0  0.30030  0.79827  0.09969  1.0000
  H   H1764     1.0  0.27316  0.79918  0.10752  1.0000
  H   H1765     1.0  0.28835  0.79165  0.12429  1.0000
  H   H1766     1.0  0.03510  0.96197  0.23490  1.0000
  C   C1050     1.0  0.38957  0.84899  0.12241  1.0000
  N   N76       1.0  0.05648  0.89818  0.09131  1.0000
  H   H1767     1.0  0.29409  0.87654  0.00121  1.0000
  H   H1768     1.0  0.38119  0.85343  0.11076  1.0000
  C   C1051     1.0  0.41268  0.84430  0.11350  1.0000
  H   H1769     1.0  0.25598  0.87316  0.10041  1.0000
  C   C1052     1.0  0.26753  0.86088  0.10713  1.0000
  H   H1770     1.0  0.26136  0.85885  0.12264  1.0000
  H   H1771     1.0  0.41672  0.83235  0.10518  1.0000
  C   C1053     1.0  0.35136  0.79889  0.04131  1.0000
  C   C1054     1.0  0.44011  0.99050  0.13326  1.0000
  H   H1772     1.0  0.29927  0.82736  0.10917  1.0000
  C   C1055     1.0  0.40321  0.96800  0.07725  1.0000
  H   H1773     1.0  0.44834  0.95873  0.14669  1.0000
  H   H1774     1.0  0.46449  0.87928  0.22224  1.0000
  Fe  Fe145     1.0  0.39118  0.94556  0.20262  1.0000
  H   H1775     1.0  0.39002  0.69069  0.17035  1.0000
  H   H1776     1.0  0.25346  0.77943  0.02030  1.0000
  H   H1777     1.0  0.36690  0.96766  0.10007  1.0000
  H   H1778     1.0  0.32152  0.79844  0.06106  1.0000
  C   C1056     1.0  0.20638  0.80496  0.98846  1.0000
  C   C1057     1.0  0.28685  0.86983  0.10289  1.0000
  H   H1779     1.0  0.08440  0.88752  0.05660  1.0000
  C   C1058     1.0  0.01855  0.96830  0.23575  1.0000
  H   H1780     1.0  0.33974  0.69042  0.04034  1.0000
  H   H1781     1.0  0.44253  0.93060  0.23558  1.0000
  C   C1059     1.0  0.07894  0.94460  0.21483  1.0000
  H   H1782     1.0  0.31442  0.80699  0.03132  1.0000
  C   C1060     1.0  0.34697  0.73397  0.00129  1.0000
  H   H1783     1.0  0.35040  0.87128  0.13317  1.0000
  C   C1061     1.0  0.19375  0.81676  0.02583  1.0000
  C   C1062     1.0  0.37119  0.70410  0.13468  1.0000
  Fe  Fe146     1.0  0.03939  0.94142  0.15196  1.0000
  H   H1784     1.0  0.23491  0.82820  0.00311  1.0000
  H   H1785     1.0  0.39783  0.66975  0.11358  1.0000
  H   H1786     1.0  0.35644  0.78281  0.04881  1.0000
  Fe  Fe147     1.0  0.34044  0.69158  0.08307  1.0000
  H   H1787     1.0  0.38238  0.68479  0.02322  1.0000
  H   H1788     1.0  0.28274  0.88374  0.10878  1.0000
  H   H1789     1.0  0.29287  0.87486  0.08750  1.0000
  H   H1790     1.0  0.29916  0.85906  0.10953  1.0000
  H   H1791     1.0  0.18963  0.81314  0.04152  1.0000
  H   H1792     1.0  0.37899  0.84418  0.17510  1.0000
  H   H1793     1.0  0.40865  0.81714  0.14946  1.0000
  H   H1794     1.0  0.38559  0.81366  0.16521  1.0000
  H   H1795     1.0  0.37337  0.72362  0.01373  1.0000
  C   C1063     1.0  0.21335  0.80139  0.01920  1.0000
  H   H1796     1.0  0.19554  0.92910  0.09254  1.0000
  H   H1797     1.0  0.19650  0.92489  0.07016  1.0000
  H   H1798     1.0  0.40653  0.83717  0.16997  1.0000
  S   S302      1.0  0.46404  0.90737  0.18641  1.0000
  C   C1064     1.0  0.33310  0.80819  0.05552  1.0000
  C   C1065     1.0  0.06825  0.92917  0.22520  1.0000
  C   C1066     1.0  0.36118  0.88224  0.99949  1.0000
  H   H1799     1.0  0.39270  0.94146  0.07568  1.0000
  C   C1067     1.0  0.40320  0.66874  0.12651  1.0000
  H   H1800     1.0  0.07049  0.86322  0.12055  1.0000
  H   H1801     1.0  0.36469  0.97469  0.13137  1.0000
  H   H1802     1.0  0.01506  0.97105  0.22167  1.0000
  H   H1803     1.0  0.41393  0.96048  0.12107  1.0000
  H   H1804     1.0  0.20975  0.78583  0.02445  1.0000
  C   C1068     1.0  0.36537  0.66413  0.99683  1.0000
  H   H1805     1.0  0.37767  0.67169  0.99629  1.0000
  H   H1806     1.0  0.08268  0.97881  0.17093  1.0000
  H   H1807     1.0  0.05081  0.98947  0.22019  1.0000
  C   C1069     1.0  0.99635  0.66808  0.20502  1.0000
  C   C1070     1.0  0.16397  0.86494  0.00559  1.0000
  H   H1808     1.0  0.48537  0.95692  0.13615  1.0000
  H   H1809     1.0  0.38400  0.66292  0.08034  1.0000
  C   C1071     1.0  0.37556  0.86385  0.99902  1.0000
  C   C1072     1.0  0.40225  0.67907  0.16390  1.0000
  C   C1073     1.0  0.02304  0.89060  0.08811  1.0000
  H   H1810     1.0  0.30490  0.79592  0.00822  1.0000
  C   C1074     1.0  0.25794  0.78534  0.00482  1.0000
  H   H1811     1.0  0.33999  0.84545  0.02248  1.0000
  H   H1812     1.0  0.35694  0.68167  0.15655  1.0000
  C   C1075     1.0  0.32113  0.68807  0.02283  1.0000
  C   C1076     1.0  0.18052  0.87038  0.99113  1.0000
  C   C1077     1.0  0.48517  0.92575  0.22252  1.0000
  H   H1813     1.0  0.41333  0.67221  0.17325  1.0000
  H   H1814     1.0  0.21471  0.83830  0.99109  1.0000
  H   H1815     1.0  0.99640  0.92605  0.18295  1.0000
  C   C1078     1.0  0.14219  0.97329  0.07310  1.0000
  H   H1816     1.0  0.45287  0.97574  0.22750  1.0000
  N   N77       1.0  0.22254  0.80526  0.99819  1.0000
  C   C1079     1.0  0.33585  0.83911  0.01239  1.0000
  H   H1817     1.0  0.31986  0.83718  0.01756  1.0000
  C   C1080     1.0  0.39323  0.66200  0.16193  1.0000
  H   H1818     1.0  0.12528  0.97683  0.07498  1.0000
  H   H1819     1.0  0.27131  0.77388  0.99946  1.0000
  H   H1820     1.0  0.35317  0.81869  0.99367  1.0000
  H   H1821     1.0  0.33047  0.78549  0.99792  1.0000
  H   H1822     1.0  0.20052  0.79055  0.99459  1.0000
  H   H1823     1.0  0.28819  0.93403  0.99413  1.0000
  C   C1081     1.0  0.01501  0.66006  0.21059  1.0000
  H   H1824     1.0  0.32159  0.81297  0.99552  1.0000
  S   S303      1.0  0.09368  0.98167  0.13063  1.0000
  H   H1825     1.0  0.26317  0.79980  0.00204  1.0000
  H   H1826     1.0  0.26469  0.91968  0.98780  1.0000
  C   C1082     1.0  0.99643  0.90190  0.14073  1.0000
  H   H1827     1.0  0.00283  0.88565  0.14401  1.0000
  H   H1828     1.0  0.02424  0.99021  0.11501  1.0000
  H   H1829     1.0  0.48587  0.66254  0.21383  1.0000
  H   H1830     1.0  0.36433  0.66440  0.05495  1.0000
  H   H1831     1.0  0.49394  0.95890  0.16646  1.0000
  H   H1832     1.0  0.40728  0.66157  0.22833  1.0000
  N   N78       1.0  0.35165  0.66069  0.03328  1.0000
  H   H1833     1.0  0.38021  0.66023  0.17432  1.0000
  H   H1834     1.0  0.99604  0.67200  0.19017  1.0000
  H   H1835     1.0  0.16685  0.67369  0.42392  1.0000
  H   H1836     1.0  0.38264  0.96522  0.29037  1.0000
  C   C1083     1.0  0.04106  0.68875  0.33781  1.0000
  H   H1837     1.0  0.43030  0.92972  0.28984  1.0000
  H   H1838     1.0  0.22321  0.69937  0.45432  1.0000
  C   C1084     1.0  0.20067  0.68133  0.45604  1.0000
  S   S304      1.0  0.24834  0.67686  0.41070  1.0000
  S   S305      1.0  0.13008  0.70085  0.35444  1.0000
  H   H1839     1.0  0.41865  0.98480  0.24664  1.0000
  C   C1085     1.0  0.08966  0.70914  0.32803  1.0000
  H   H1840     1.0  0.00720  0.89157  0.35185  1.0000
  H   H1841     1.0  0.16133  0.72713  0.42584  1.0000
  H   H1842     1.0  0.19983  0.72218  0.44006  1.0000
  C   C1086     1.0  0.10686  0.69583  0.31592  1.0000
  H   H1843     1.0  0.09756  0.71524  0.33552  1.0000
  S   S306      1.0  0.07636  0.96310  0.31149  1.0000
  H   H1844     1.0  0.23705  0.79279  0.46138  1.0000
  Fe  Fe148     1.0  0.26809  0.69847  0.40822  1.0000
  H   H1845     1.0  0.31821  0.68292  0.32477  1.0000
  S   S307      1.0  0.25123  0.72747  0.41807  1.0000
  H   H1846     1.0  0.05066  0.75461  0.45446  1.0000
  H   H1847     1.0  0.18485  0.79178  0.43724  1.0000
  H   H1848     1.0  0.11374  0.72883  0.44562  1.0000
  C   C1087     1.0  0.00640  0.90003  0.33718  1.0000
  H   H1849     1.0  0.03739  0.68086  0.35282  1.0000
  C   C1088     1.0  0.11306  0.91017  0.27816  1.0000
  H   H1850     1.0  0.17977  0.71702  0.47028  1.0000
  S   S308      1.0  0.28730  0.69339  0.38003  1.0000
  H   H1851     1.0  0.14049  0.89878  0.25776  1.0000
  H   H1852     1.0  0.08803  0.78777  0.43088  1.0000
  H   H1853     1.0  0.28029  0.72895  0.44104  1.0000
  H   H1854     1.0  0.14377  0.72533  0.48120  1.0000
  Fe  Fe149     1.0  0.11645  0.79297  0.39099  1.0000
  S   S309      1.0  0.13553  0.80924  0.36489  1.0000
  S   S310      1.0  0.09223  0.77588  0.39367  1.0000
  Fe  Fe150     1.0  0.13897  0.79883  0.41751  1.0000
  S   S311      1.0  0.15997  0.81609  0.39416  1.0000
  S   S312      1.0  0.14107  0.78559  0.44788  1.0000
  Fe  Fe151     1.0  0.13182  0.83200  0.38237  1.0000
  S   S313      1.0  0.12829  0.86582  0.36914  1.0000
  Fe  Fe152     1.0  0.16207  0.79237  0.37847  1.0000
  S   S314      1.0  0.19216  0.77680  0.36306  1.0000
  S   S315      1.0  0.11048  0.81707  0.40754  1.0000
  S   S316      1.0  0.14336  0.77382  0.40264  1.0000
  Fe  Fe153     1.0  0.06692  0.96857  0.28397  1.0000
  S   S317      1.0  0.04117  0.95184  0.29607  1.0000
  N   N79       1.0  0.18277  0.69799  0.45082  1.0000
  H   H1855     1.0  0.07155  0.77140  0.43447  1.0000
  Fe  Fe154     1.0  0.04891  0.94852  0.32391  1.0000
  S   S318      1.0  0.04634  0.91848  0.34481  1.0000
  H   H1856     1.0  0.07260  0.67477  0.32842  1.0000
  H   H1857     1.0  0.45697  0.92958  0.28295  1.0000
  H   H1858     1.0  0.07205  0.71333  0.37440  1.0000
  C   C1089     1.0  0.29685  0.72280  0.43688  1.0000
  C   C1090     1.0  0.06245  0.76442  0.47460  1.0000
  H   H1859     1.0  0.05964  0.81407  0.44338  1.0000
  C   C1091     1.0  0.20029  0.80371  0.45259  1.0000
  H   H1860     1.0  0.05637  0.91248  0.25300  1.0000
  H   H1861     1.0  0.06015  0.73418  0.47267  1.0000
  H   H1862     1.0  0.19087  0.66476  0.43057  1.0000
  C   C1092     1.0  0.08336  0.68145  0.35566  1.0000
  H   H1863     1.0  0.18511  0.81250  0.45852  1.0000
  C   C1093     1.0  0.10473  0.88033  0.36397  1.0000
  C   C1094     1.0  0.10271  0.90148  0.35675  1.0000
  C   C1095     1.0  0.08455  0.91342  0.35148  1.0000
  C   C1096     1.0  0.06832  0.90424  0.35330  1.0000
  C   C1097     1.0  0.07010  0.88316  0.36097  1.0000
  C   C1098     1.0  0.08831  0.87118  0.36624  1.0000
  H   H1864     1.0  0.11529  0.90863  0.35515  1.0000
  H   H1865     1.0  0.08315  0.92970  0.34595  1.0000
  H   H1866     1.0  0.05758  0.87598  0.36244  1.0000
  H   H1867     1.0  0.08976  0.85488  0.37183  1.0000
  H   H1868     1.0  0.21967  0.74246  0.48191  1.0000
  C   C1099     1.0  0.14728  0.83577  0.46096  1.0000
  C   C1100     1.0  0.14432  0.82285  0.45103  1.0000
  C   C1101     1.0  0.14165  0.80309  0.46041  1.0000
  H   H1869     1.0  0.18581  0.69297  0.32429  1.0000
  H   H1870     1.0  0.26571  0.72422  0.47048  1.0000
  H   H1871     1.0  0.15029  0.85074  0.45352  1.0000
  H   H1872     1.0  0.14492  0.82792  0.43601  1.0000
  H   H1873     1.0  0.28988  0.66279  0.32266  1.0000
  N   N80       1.0  0.20728  0.78547  0.46748  1.0000
  C   C1102     1.0  0.23565  0.74264  0.40243  1.0000
  C   C1103     1.0  0.21720  0.75533  0.40911  1.0000
  C   C1104     1.0  0.20403  0.76642  0.39693  1.0000
  C   C1105     1.0  0.20936  0.76489  0.37801  1.0000
  C   C1106     1.0  0.22819  0.75284  0.37117  1.0000
  C   C1107     1.0  0.24120  0.74154  0.38341  1.0000
  H   H1874     1.0  0.21269  0.75601  0.42383  1.0000
  H   H1875     1.0  0.18952  0.77572  0.40231  1.0000
  H   H1876     1.0  0.23255  0.75191  0.35647  1.0000
  H   H1877     1.0  0.25556  0.73201  0.37809  1.0000
  H   H1878     1.0  0.04468  0.70768  0.36111  1.0000
  C   C1108     1.0  0.06907  0.66941  0.37159  1.0000
  H   H1879     1.0  0.42327  0.90498  0.24217  1.0000
  Fe  Fe155     1.0  0.02184  0.98219  0.30043  1.0000
  H   H1880     1.0  0.22027  0.68914  0.37517  1.0000
  H   H1881     1.0  0.23260  0.76014  0.44338  1.0000
  H   H1882     1.0  0.14666  0.89801  0.29657  1.0000
  H   H1883     1.0  0.04225  0.79645  0.45109  1.0000
  S   S319      1.0  0.49458  0.90823  0.25746  1.0000
  H   H1884     1.0  0.05272  0.80518  0.42653  1.0000
  H   H1885     1.0  0.19514  0.66773  0.33645  1.0000
  H   H1886     1.0  0.08457  0.87225  0.30435  1.0000
  H   H1887     1.0  0.17198  0.74519  0.43119  1.0000
  C   C1109     1.0  0.17571  0.73136  0.42522  1.0000
  H   H1888     1.0  0.22771  0.67380  0.46776  1.0000
  H   H1889     1.0  0.09655  0.79616  0.45569  1.0000
  H   H1890     1.0  0.39260  0.98362  0.27087  1.0000
  N   N81       1.0  0.42261  0.95163  0.25278  1.0000
  C   C1110     1.0  0.06523  0.72456  0.36301  1.0000
  H   H1891     1.0  0.20064  0.76331  0.45560  1.0000
  H   H1892     1.0  0.42230  0.90831  0.26505  1.0000
  H   H1893     1.0  0.09229  0.68734  0.36236  1.0000
  H   H1894     1.0  0.14345  0.91864  0.26749  1.0000
  H   H1895     1.0  0.08269  0.72268  0.31814  1.0000
  H   H1896     1.0  0.06184  0.66068  0.36597  1.0000
  H   H1897     1.0  0.20309  0.70743  0.42377  1.0000
  H   H1898     1.0  0.03722  0.67991  0.32950  1.0000
  H   H1899     1.0  0.15476  0.69874  0.44250  1.0000
  H   H1900     1.0  0.11668  0.70580  0.30529  1.0000
  H   H1901     1.0  0.06452  0.69977  0.31571  1.0000
  H   H1902     1.0  0.10833  0.76960  0.48316  1.0000
  C   C1111     1.0  0.41754  0.91604  0.25158  1.0000
  H   H1903     1.0  0.12821  0.92478  0.25041  1.0000
  H   H1904     1.0  0.29846  0.71660  0.42434  1.0000
  H   H1905     1.0  0.40291  0.93665  0.27758  1.0000
  C   C1112     1.0  0.07463  0.78232  0.44105  1.0000
  S   S320      1.0  0.09267  0.70153  0.48265  1.0000
  C   C1113     1.0  0.32874  0.67011  0.33203  1.0000
  H   H1906     1.0  0.00016  0.89164  0.33028  1.0000
  C   C1114     1.0  0.11966  0.72133  0.36578  1.0000
  C   C1115     1.0  0.12116  0.74114  0.35533  1.0000
  C   C1116     1.0  0.11319  0.75783  0.36404  1.0000
  C   C1117     1.0  0.10295  0.75486  0.38303  1.0000
  C   C1118     1.0  0.10112  0.73507  0.39343  1.0000
  C   C1119     1.0  0.10983  0.71823  0.38490  1.0000
  H   H1907     1.0  0.12877  0.74357  0.34054  1.0000
  H   H1908     1.0  0.11461  0.77310  0.35599  1.0000
  H   H1909     1.0  0.09317  0.73274  0.40812  1.0000
  H   H1910     1.0  0.10862  0.70296  0.39301  1.0000
  C   C1120     1.0  0.46337  0.98363  0.27746  1.0000
  H   H1911     1.0  0.00296  0.95548  0.28753  1.0000
  C   C1121     1.0  0.10908  0.68577  0.45112  1.0000
  C   C1122     1.0  0.10852  0.68318  0.47032  1.0000
  S   S321      1.0  0.08849  0.96571  0.25601  1.0000
  H   H1912     1.0  0.13720  0.85886  0.31884  1.0000
  S   S322      1.0  0.29033  0.67559  0.42410  1.0000
  H   H1913     1.0  0.09965  0.69906  0.44395  1.0000
  H   H1914     1.0  0.30287  0.67401  0.48156  1.0000
  C   C1123     1.0  0.23029  0.77932  0.46347  1.0000
  C   C1124     1.0  0.44055  0.94855  0.26153  1.0000
  H   H1915     1.0  0.07503  0.89805  0.29209  1.0000
  H   H1916     1.0  0.18258  0.73563  0.40993  1.0000
  H   H1917     1.0  0.10441  0.92556  0.28056  1.0000
  H   H1918     1.0  0.15172  0.73544  0.37517  1.0000
  H   H1919     1.0  0.37291  0.66170  0.35096  1.0000
  C   C1125     1.0  0.30556  0.68748  0.48494  1.0000
  H   H1920     1.0  0.06832  0.93159  0.26956  1.0000
  H   H1921     1.0  0.31869  0.72546  0.46945  1.0000
  H   H1922     1.0  0.05058  0.72675  0.34056  1.0000
  H   H1923     1.0  0.13873  0.70818  0.47024  1.0000
  H   H1924     1.0  0.49379  0.96591  0.27794  1.0000
  H   H1925     1.0  0.21075  0.81464  0.44813  1.0000
  C   C1126     1.0  0.14742  0.82897  0.48025  1.0000
  N   N82       1.0  0.07331  0.69853  0.34169  1.0000
  C   C1127     1.0  0.24089  0.77026  0.44587  1.0000
  H   H1926     1.0  0.00375  0.93016  0.34062  1.0000
  N   N83       1.0  0.19182  0.71150  0.35298  1.0000
  C   C1128     1.0  0.08510  0.78838  0.46687  1.0000
  H   H1927     1.0  0.14087  0.87349  0.28398  1.0000
  H   H1928     1.0  0.27391  0.74743  0.48140  1.0000
  H   H1929     1.0  0.30527  0.73544  0.43231  1.0000
  C   C1129     1.0  0.40278  0.95161  0.26740  1.0000
  H   H1930     1.0  0.07616  0.73430  0.35412  1.0000
  H   H1931     1.0  0.06555  0.88962  0.31675  1.0000
  C   C1130     1.0  0.09877  0.75530  0.45791  1.0000
  N   N84       1.0  0.29666  0.70713  0.47252  1.0000
  S   S323      1.0  0.02706  0.97754  0.32938  1.0000
  H   H1932     1.0  0.43942  0.96214  0.26702  1.0000
  H   H1933     1.0  0.20719  0.70982  0.38698  1.0000
  C   C1131     1.0  0.07104  0.93550  0.25437  1.0000
  H   H1934     1.0  0.24848  0.69647  0.47788  1.0000
  H   H1935     1.0  0.18031  0.77321  0.47253  1.0000
  N   N85       1.0  0.07997  0.77228  0.46002  1.0000
  C   C1132     1.0  0.19776  0.79954  0.43439  1.0000
  C   C1133     1.0  0.10072  0.74204  0.44394  1.0000
  C   C1134     1.0  0.28940  0.74611  0.47198  1.0000
  H   H1936     1.0  0.25580  0.76022  0.44797  1.0000
  H   H1937     1.0  0.45517  0.94730  0.25075  1.0000
  H   H1938     1.0  0.03610  0.75166  0.47767  1.0000
  H   H1939     1.0  0.01049  0.95618  0.24526  1.0000
  H   H1940     1.0  0.07141  0.80065  0.46986  1.0000
  H   H1941     1.0  0.17064  0.69407  0.48107  1.0000
  H   H1942     1.0  0.10341  0.90502  0.27157  1.0000
  C   C1135     1.0  0.21753  0.70581  0.37384  1.0000
  C   C1136     1.0  0.19121  0.71424  0.43494  1.0000
  H   H1943     1.0  0.32229  0.70514  0.44859  1.0000
  Fe  Fe156     1.0  0.30770  0.66798  0.39616  1.0000
  H   H1944     1.0  0.10016  0.74475  0.47181  1.0000
  C   C1137     1.0  0.14915  0.71846  0.46859  1.0000
  C   C1138     1.0  0.27370  0.70934  0.47774  1.0000
  H   H1945     1.0  0.19379  0.81441  0.42449  1.0000
  H   H1946     1.0  0.16030  0.71995  0.39593  1.0000
  H   H1947     1.0  0.11048  0.92776  0.31590  1.0000
  H   H1948     1.0  0.20432  0.73446  0.35818  1.0000
  H   H1949     1.0  0.19395  0.75475  0.33243  1.0000
  H   H1950     1.0  0.45619  0.97088  0.28525  1.0000
  C   C1139     1.0  0.36446  0.99125  0.24079  1.0000
  H   H1951     1.0  0.40860  0.96701  0.28687  1.0000
  H   H1952     1.0  0.24376  0.78251  0.43300  1.0000
  H   H1953     1.0  0.03091  0.70417  0.33576  1.0000
  H   H1954     1.0  0.36269  0.98241  0.25517  1.0000
  H   H1955     1.0  0.22191  0.71882  0.34372  1.0000
  C   C1140     1.0  0.30559  0.70554  0.45223  1.0000
  Fe  Fe157     1.0  0.13648  0.66946  0.37299  1.0000
  H   H1956     1.0  0.10433  0.75071  0.42910  1.0000
  H   H1957     1.0  0.17580  0.73605  0.37932  1.0000
  C   C1141     1.0  0.16537  0.72602  0.38056  1.0000
  C   C1142     1.0  0.12171  0.67105  0.44117  1.0000
  C   C1143     1.0  0.12048  0.66583  0.47958  1.0000
  H   H1958     1.0  0.08689  0.73592  0.44636  1.0000
  C   C1144     1.0  0.17143  0.70657  0.46809  1.0000
  H   H1959     1.0  0.27057  0.67742  0.48195  1.0000
  C   C1145     1.0  0.05757  0.71430  0.35128  1.0000
  H   H1960     1.0  0.11289  0.76164  0.45285  1.0000
  H   H1961     1.0  0.17238  0.68257  0.34771  1.0000
  H   H1962     1.0  0.13705  0.92576  0.31366  1.0000
  H   H1963     1.0  0.21576  0.69180  0.33656  1.0000
  C   C1146     1.0  0.44354  0.92962  0.27765  1.0000
  C   C1147     1.0  0.20097  0.69124  0.34711  1.0000
  C   C1148     1.0  0.19728  0.76811  0.46914  1.0000
  H   H1964     1.0  0.18103  0.69458  0.38142  1.0000
  H   H1965     1.0  0.20469  0.67881  0.35931  1.0000
  C   C1149     1.0  0.16916  0.68806  0.44526  1.0000
  C   C1150     1.0  0.13263  0.91302  0.26281  1.0000
  C   C1151     1.0  0.05618  0.80052  0.44084  1.0000
  H   H1966     1.0  0.05198  0.73492  0.37005  1.0000
  H   H1967     1.0  0.23251  0.70934  0.37275  1.0000
  H   H1968     1.0  0.21183  0.79074  0.42689  1.0000
  C   C1152     1.0  0.17541  0.70799  0.37068  1.0000
  H   H1969     1.0  0.11701  0.68425  0.32459  1.0000
  H   H1970     1.0  0.30481  0.69065  0.44993  1.0000
  C   C1153     1.0  0.18301  0.72642  0.33695  1.0000
  C   C1154     1.0  0.18761  0.68346  0.33843  1.0000
  C   C1155     1.0  0.17931  0.74948  0.33620  1.0000
  H   H1971     1.0  0.19339  0.72434  0.32311  1.0000
  H   H1972     1.0  0.16813  0.72332  0.33682  1.0000
  H   H1973     1.0  0.16273  0.70347  0.36769  1.0000
  H   H1974     1.0  0.13387  0.84215  0.30632  1.0000
  C   C1156     1.0  0.06452  0.92451  0.24496  1.0000
  H   H1975     1.0  0.21035  0.67531  0.44351  1.0000
  H   H1976     1.0  0.17098  0.75816  0.32484  1.0000
  H   H1977     1.0  0.16979  0.75397  0.34934  1.0000
  H   H1978     1.0  0.12673  0.93470  0.29293  1.0000
  H   H1979     1.0  0.28824  0.75093  0.45704  1.0000
  H   H1980     1.0  0.34360  0.66632  0.32216  1.0000
  H   H1981     1.0  0.16394  0.67571  0.45724  1.0000
  H   H1982     1.0  0.11194  0.85527  0.32034  1.0000
  C   C1157     1.0  0.20896  0.71852  0.35634  1.0000
  C   C1158     1.0  0.06379  0.69021  0.33035  1.0000
  C   C1159     1.0  0.26544  0.69293  0.47363  1.0000
  H   H1983     1.0  0.09473  0.66993  0.34840  1.0000
  H   H1984     1.0  0.10097  0.68818  0.30805  1.0000
  H   H1985     1.0  0.38997  0.95367  0.26050  1.0000
  H   H1986     1.0  0.44717  0.91530  0.27259  1.0000
  H   H1987     1.0  0.19607  0.73643  0.48272  1.0000
  C   C1160     1.0  0.48517  0.90894  0.23791  1.0000
  N   N86       1.0  0.11618  0.89553  0.29655  1.0000
  C   C1161     1.0  0.12514  0.87431  0.29298  1.0000
  H   H1988     1.0  0.40057  0.91945  0.25411  1.0000
  C   C1162     1.0  0.09577  0.89632  0.31031  1.0000
  C   C1163     1.0  0.13067  0.90127  0.30490  1.0000
  C   C1164     1.0  0.12699  0.85691  0.31077  1.0000
  C   C1165     1.0  0.39663  0.96791  0.27939  1.0000
  C   C1166     1.0  0.07958  0.88853  0.30529  1.0000
  C   C1167     1.0  0.12573  0.92370  0.30679  1.0000
  H   H1989     1.0  0.11626  0.87034  0.28476  1.0000
  H   H1990     1.0  0.05734  0.67928  0.38035  1.0000
  C   C1168     1.0  0.30260  0.72447  0.47679  1.0000
  H   H1991     1.0  0.09774  0.88750  0.32464  1.0000
  H   H1992     1.0  0.08858  0.91227  0.31191  1.0000
  H   H1993     1.0  0.13108  0.89178  0.31942  1.0000
  H   H1994     1.0  0.19521  0.66794  0.46635  1.0000
  C   C1169     1.0  0.01106  0.98764  0.24408  1.0000
  C   C1170     1.0  0.42086  0.97231  0.23927  1.0000
  H   H1995     1.0  0.23586  0.76860  0.47587  1.0000
  Fe  Fe158     1.0  0.26942  0.66953  0.38396  1.0000
  H   H1996     1.0  0.26947  0.69289  0.45837  1.0000
  H   H1997     1.0  0.05027  0.77713  0.47949  1.0000
  C   C1171     1.0  0.14076  0.79665  0.47988  1.0000
  H   H1998     1.0  0.14747  0.73134  0.45632  1.0000
  C   C1172     1.0  0.21544  0.68742  0.46450  1.0000
  H   H1999     1.0  0.02239  0.90026  0.32915  1.0000
  H   H2000     1.0  0.20777  0.69236  0.47798  1.0000
  H   H2001     1.0  0.33176  0.67583  0.34317  1.0000
  H   H2002     1.0  0.20083  0.82478  0.47691  1.0000
  S   S324      1.0  0.34188  0.66482  0.38497  1.0000
  Fe  Fe159     1.0  0.05378  0.99257  0.31473  1.0000
  C   C1173     1.0  0.05211  0.75038  0.46932  1.0000
  H   H2003     1.0  0.33790  0.68142  0.46948  1.0000
  S   S325      1.0  0.26147  0.66939  0.35709  1.0000
  C   C1174     1.0  0.47703  0.89256  0.23803  1.0000
  H   H2004     1.0  0.31287  0.66629  0.30571  1.0000
  H   H2005     1.0  0.12209  0.67307  0.42636  1.0000
  C   C1175     1.0  0.32882  0.68327  0.48372  1.0000
  H   H2006     1.0  0.04720  0.98671  0.24493  1.0000
  H   H2007     1.0  0.22325  0.80872  0.48542  1.0000
  H   H2008     1.0  0.29659  0.75723  0.47460  1.0000
  C   C1176     1.0  0.48470  0.98083  0.27348  1.0000
  C   C1177     1.0  0.08141  0.95114  0.24412  1.0000
  C   C1178     1.0  0.09358  0.78080  0.48504  1.0000
  C   C1179     1.0  0.20293  0.74852  0.48401  1.0000
  C   C1180     1.0  0.17882  0.67865  0.42772  1.0000
  C   C1181     1.0  0.20016  0.79169  0.48631  1.0000
  H   H2009     1.0  0.01335  0.98279  0.25885  1.0000
  C   C1182     1.0  0.42602  0.93558  0.24151  1.0000
  C   C1183     1.0  0.20648  0.81101  0.48721  1.0000
  H   H2010     1.0  0.18503  0.68980  0.41523  1.0000
  H   H2011     1.0  0.47686  0.87962  0.24996  1.0000
  H   H2012     1.0  0.13865  0.78136  0.48719  1.0000
  H   H2013     1.0  0.03838  0.90287  0.59660  1.0000
  Fe  Fe160     1.0  0.11186  0.67613  0.54696  1.0000
  S   S326      1.0  0.08229  0.69261  0.53821  1.0000
  Fe  Fe161     1.0  0.13431  0.70941  0.52328  1.0000
  H   H2014     1.0  0.14889  0.71479  0.60115  1.0000
  Fe  Fe162     1.0  0.08962  0.72038  0.54220  1.0000
  S   S327      1.0  0.30444  0.67418  0.54146  1.0000
  H   H2015     1.0  0.13455  0.76516  0.57716  1.0000
  S   S328      1.0  0.11741  0.70339  0.55354  1.0000
  S   S329      1.0  0.15533  0.84363  0.49134  1.0000
  H   H2016     1.0  0.18736  0.70111  0.58643  1.0000
  H   H2017     1.0  0.15732  0.68191  0.54463  1.0000
  C   C1184     1.0  0.19427  0.71401  0.58570  1.0000
  H   H2018     1.0  0.15716  0.96637  0.63520  1.0000
  H   H2019     1.0  0.01179  0.97610  0.73145  1.0000
  S   S330      1.0  0.25948  0.68389  0.57025  1.0000
  H   H2020     1.0  0.09185  0.88776  0.56207  1.0000
  Fe  Fe163     1.0  0.12574  0.81770  0.56056  1.0000
  S   S331      1.0  0.14549  0.82299  0.57687  1.0000
  S   S332      1.0  0.09745  0.80702  0.57867  1.0000
  S   S333      1.0  0.26682  0.72741  0.52301  1.0000
  H   H2021     1.0  0.14822  0.73497  0.54672  1.0000
  C   C1185     1.0  0.21506  0.76948  0.55551  1.0000
  Fe  Fe164     1.0  0.14626  0.85283  0.55599  1.0000
  S   S334      1.0  0.14068  0.88379  0.56274  1.0000
  S   S335      1.0  0.12419  0.84873  0.54133  1.0000
  Fe  Fe165     1.0  0.02926  0.95564  0.64701  1.0000
  S   S336      1.0  0.03784  0.92689  0.66806  1.0000
  H   H2022     1.0  0.13471  0.74704  0.61343  1.0000
  Fe  Fe166     1.0  0.06859  0.96917  0.64138  1.0000
  S   S337      1.0  0.08122  0.94146  0.66174  1.0000
  C   C1186     1.0  0.21032  0.69081  0.54319  1.0000
  Fe  Fe167     1.0  0.06860  0.92427  0.64792  1.0000
  S   S338      1.0  0.08605  0.89304  0.64336  1.0000
  Fe  Fe168     1.0  0.04965  0.94632  0.68016  1.0000
  S   S339      1.0  0.03991  0.94688  0.71108  1.0000
  S   S340      1.0  0.05885  0.95164  0.62571  1.0000
  S   S341      1.0  0.03822  0.97532  0.66092  1.0000
  S   S342      1.0  0.46427  0.98528  0.70749  1.0000
  H   H2023     1.0  0.10067  0.75976  0.53952  1.0000
  C   C1187     1.0  0.09473  0.94634  0.72062  1.0000
  H   H2024     1.0  0.19645  0.75086  0.49863  1.0000
  C   C1188     1.0  0.34566  0.69273  0.62180  1.0000
  H   H2025     1.0  0.22515  0.75006  0.58034  1.0000
  H   H2026     1.0  0.12984  0.97692  0.63691  1.0000
  C   C1189     1.0  0.05690  0.87634  0.61293  1.0000
  H   H2027     1.0  0.35353  0.68745  0.64831  1.0000
  C   C1190     1.0  0.14839  0.72290  0.58626  1.0000
  H   H2028     1.0  0.04770  0.90835  0.61400  1.0000
  H   H2029     1.0  0.18625  0.74597  0.58651  1.0000
  S   S343      1.0  0.16571  0.71619  0.51396  1.0000
  C   C1191     1.0  0.48798  0.98084  0.69192  1.0000
  H   H2030     1.0  0.16357  0.75193  0.53067  1.0000
  C   C1192     1.0  0.17189  0.68475  0.54436  1.0000
  H   H2031     1.0  0.08605  0.98051  0.66485  1.0000
  C   C1193     1.0  0.12574  0.88624  0.58522  1.0000
  C   C1194     1.0  0.12685  0.86983  0.60084  1.0000
  C   C1195     1.0  0.11468  0.87214  0.61867  1.0000
  C   C1196     1.0  0.10135  0.89081  0.62094  1.0000
  C   C1197     1.0  0.10014  0.90717  0.60531  1.0000
  C   C1198     1.0  0.11246  0.90494  0.58751  1.0000
  H   H2032     1.0  0.13721  0.85542  0.59919  1.0000
  H   H2033     1.0  0.11564  0.85942  0.63074  1.0000
  H   H2034     1.0  0.08967  0.92149  0.60691  1.0000
  H   H2035     1.0  0.11150  0.91760  0.57539  1.0000
  H   H2036     1.0  0.02761  0.67675  0.63108  1.0000
  H   H2037     1.0  0.34686  0.68452  0.61079  1.0000
  H   H2038     1.0  0.06829  0.67592  0.58044  1.0000
  Fe  Fe169     1.0  0.27357  0.69487  0.53972  1.0000
  S   S344      1.0  0.99868  0.96813  0.63962  1.0000
  C   C1199     1.0  0.16534  0.96475  0.59785  1.0000
  H   H2039     1.0  0.07978  0.87228  0.55553  1.0000
  C   C1200     1.0  0.16996  0.74237  0.55873  1.0000
  C   C1201     1.0  0.04420  0.86221  0.59292  1.0000
  N   N87       1.0  0.06240  0.86095  0.60070  1.0000
  C   C1202     1.0  0.21838  0.77312  0.53582  1.0000
  H   H2040     1.0  0.15303  0.76256  0.61024  1.0000
  S   S345      1.0  0.10696  0.72929  0.51249  1.0000
  H   H2041     1.0  0.16557  0.90215  0.62375  1.0000
  H   H2042     1.0  0.20390  0.70880  0.59639  1.0000
  H   H2043     1.0  0.22476  0.69377  0.54318  1.0000
  H   H2044     1.0  0.23727  0.76325  0.51059  1.0000
  S   S346      1.0  0.19572  0.78535  0.56875  1.0000
  C   C1203     1.0  0.22750  0.75281  0.56514  1.0000
  H   H2045     1.0  0.12799  0.77443  0.60608  1.0000
  C   C1204     1.0  0.99966  0.93184  0.63096  1.0000
  H   H2046     1.0  0.08247  0.77427  0.49741  1.0000
  H   H2047     1.0  0.03052  0.86031  0.60466  1.0000
  C   C1205     1.0  0.07430  0.76011  0.56273  1.0000
  C   C1206     1.0  0.06340  0.76879  0.57817  1.0000
  C   C1207     1.0  0.07071  0.78319  0.58286  1.0000
  C   C1208     1.0  0.08869  0.78937  0.57185  1.0000
  C   C1209     1.0  0.09934  0.78120  0.55603  1.0000
  C   C1210     1.0  0.09234  0.76626  0.55163  1.0000
  H   H2048     1.0  0.04944  0.76411  0.58671  1.0000
  H   H2049     1.0  0.06240  0.78954  0.59506  1.0000
  H   H2050     1.0  0.11285  0.78647  0.54717  1.0000
  C   C1211     1.0  0.23438  0.76022  0.52582  1.0000
  H   H2051     1.0  0.03952  0.87747  0.58401  1.0000
  S   S347      1.0  0.06498  0.74165  0.55768  1.0000
  H   H2052     1.0  0.08139  0.84410  0.63425  1.0000
  C   C1212     1.0  0.14912  0.90241  0.63005  1.0000
  S   S348      1.0  0.26287  0.67328  0.52928  1.0000
  H   H2053     1.0  0.20592  0.77926  0.49766  1.0000
  H   H2054     1.0  0.12254  0.73809  0.57177  1.0000
  Fe  Fe170     1.0  0.10199  0.70005  0.50925  1.0000
  H   H2055     1.0  0.18046  0.72813  0.55535  1.0000
  H   H2056     1.0  0.05381  0.98856  0.70828  1.0000
  H   H2057     1.0  0.99931  0.90348  0.62461  1.0000
  C   C1213     1.0  0.05941  0.94633  0.72201  1.0000
  C   C1214     1.0  0.36068  0.68186  0.63504  1.0000
  H   H2058     1.0  0.37489  0.68810  0.62955  1.0000
  Fe  Fe171     1.0  0.15204  0.83366  0.52287  1.0000
  H   H2059     1.0  0.11653  0.73874  0.59634  1.0000
  H   H2060     1.0  0.09910  0.83753  0.61298  1.0000
  H   H2061     1.0  0.11888  0.71558  0.58949  1.0000
  H   H2062     1.0  0.20488  0.71741  0.57176  1.0000
  H   H2063     1.0  0.15532  0.71081  0.57791  1.0000
  C   C1215     1.0  0.07944  0.94665  0.71162  1.0000
  H   H2064     1.0  0.11942  0.66330  0.49453  1.0000
  H   H2065     1.0  0.04557  0.83104  0.59021  1.0000
  N   N88       1.0  0.16064  0.73954  0.57962  1.0000
  H   H2066     1.0  0.07001  0.82779  0.60546  1.0000
  C   C1216     1.0  0.24672  0.74343  0.53555  1.0000
  H   H2067     1.0  0.17948  0.75421  0.55415  1.0000
  H   H2068     1.0  0.13626  0.91927  0.60631  1.0000
  C   C1217     1.0  0.08143  0.86376  0.58549  1.0000
  S   S349      1.0  0.17435  0.83999  0.53607  1.0000
  H   H2069     1.0  0.01588  0.92807  0.63058  1.0000
  H   H2070     1.0  0.13542  0.95790  0.58152  1.0000
  C   C1218     1.0  0.14815  0.75990  0.58358  1.0000
  S   S350      1.0  0.15171  0.80194  0.54082  1.0000
  H   H2071     1.0  0.20890  0.78609  0.52838  1.0000
  H   H2072     1.0  0.01673  0.67564  0.61310  1.0000
  H   H2073     1.0  0.09263  0.86765  0.59119  1.0000
  C   C1219     1.0  0.14339  0.80969  0.48984  1.0000
  H   H2074     1.0  0.14324  0.80444  0.50474  1.0000
  C   C1220     1.0  0.08459  0.83521  0.62324  1.0000
  C   C1221     1.0  0.15500  0.74810  0.54554  1.0000
  H   H2075     1.0  0.12411  0.97384  0.61127  1.0000
  H   H2076     1.0  0.38671  0.67691  0.60116  1.0000
  H   H2077     1.0  0.37166  0.67268  0.67053  1.0000
  H   H2078     1.0  0.06968  0.87505  0.61958  1.0000
  H   H2079     1.0  0.08321  0.94711  0.69670  1.0000
  H   H2080     1.0  0.16297  0.93581  0.59469  1.0000
  H   H2081     1.0  0.18319  0.79442  0.49080  1.0000
  H   H2082     1.0  0.08713  0.81881  0.63057  1.0000
  H   H2083     1.0  0.17213  0.73018  0.60538  1.0000
  C   C1222     1.0  0.12071  0.95818  0.59205  1.0000
  C   C1223     1.0  0.49149  0.96692  0.68055  1.0000
  C   C1224     1.0  0.05424  0.66996  0.58817  1.0000
  H   H2084     1.0  0.11024  0.94642  0.71258  1.0000
  H   H2085     1.0  0.33327  0.69513  0.48809  1.0000
  H   H2086     1.0  0.10773  0.95658  0.62170  1.0000
  C   C1225     1.0  0.14152  0.96362  0.64183  1.0000
  H   H2087     1.0  0.26790  0.70927  0.49307  1.0000
  C   C1226     1.0  0.07874  0.87988  0.56701  1.0000
  H   H2088     1.0  0.04154  0.68350  0.58904  1.0000
  H   H2089     1.0  0.20501  0.71598  0.51972  1.0000
  H   H2090     1.0  0.17276  0.93407  0.61453  1.0000
  H   H2091     1.0  0.06177  0.84495  0.57068  1.0000
  H   H2092     1.0  0.14575  0.88857  0.62790  1.0000
  C   C1227     1.0  0.17803  0.73329  0.58980  1.0000
  C   C1228     1.0  0.05175  0.89906  0.60315  1.0000
  C   C1229     1.0  0.20287  0.67447  0.55639  1.0000
  H   H2093     1.0  0.15146  0.93145  0.64500  1.0000
  C   C1230     1.0  0.06651  0.83996  0.61345  1.0000
  H   H2094     1.0  0.11413  0.94522  0.59238  1.0000
  C   C1231     1.0  0.12540  0.72948  0.58579  1.0000
  C   C1232     1.0  0.24317  0.73977  0.55522  1.0000
  H   H2095     1.0  0.08922  0.84906  0.58109  1.0000
  H   H2096     1.0  0.06522  0.90401  0.59277  1.0000
  H   H2097     1.0  0.04367  0.87323  0.62485  1.0000
  H   H2098     1.0  0.11911  0.92081  0.62854  1.0000
  H   H2099     1.0  0.03462  0.85109  0.57304  1.0000
  C   C1233     1.0  0.14057  0.76077  0.60464  1.0000
  H   H2100     1.0  0.10986  0.97237  0.58703  1.0000
  C   C1234     1.0  0.04695  0.84637  0.58106  1.0000
  Fe  Fe172     1.0  0.17162  0.80949  0.55570  1.0000
  H   H2101     1.0  0.14281  0.76157  0.54794  1.0000
  H   H2102     1.0  0.12448  0.93998  0.64880  1.0000
  H   H2103     1.0  0.05264  0.83726  0.62472  1.0000
  H   H2104     1.0  0.25296  0.72731  0.56280  1.0000
  H   H2105     1.0  0.06472  0.89194  0.56809  1.0000
  H   H2106     1.0  0.47977  0.95877  0.68179  1.0000
  H   H2107     1.0  0.15721  0.77205  0.57685  1.0000
  N   N89       1.0  0.13970  0.94199  0.61938  1.0000
  C   C1235     1.0  0.13513  0.92153  0.62063  1.0000
  C   C1236     1.0  0.12276  0.95818  0.61188  1.0000
  C   C1237     1.0  0.13910  0.94328  0.63918  1.0000
  C   C1238     1.0  0.16059  0.94315  0.60675  1.0000
  S   S351      1.0  0.13100  0.68086  0.51751  1.0000
  C   C1239     1.0  0.17983  0.70042  0.53051  1.0000
  C   C1240     1.0  0.39215  0.66059  0.60752  1.0000
  H   H2108     1.0  0.30220  0.72159  0.49219  1.0000
  H   H2109     1.0  0.15512  0.97722  0.60445  1.0000
  H   H2110     1.0  0.16544  0.96892  0.58251  1.0000
  H   H2111     1.0  0.46745  0.66134  0.72216  1.0000
  H   H2112     1.0  0.09671  0.79404  0.48849  1.0000
  C   C1241     1.0  0.19898  0.70357  0.53005  1.0000
  C   C1242     1.0  0.02236  0.66604  0.62575  1.0000
  H   H2113     1.0  0.49126  0.66104  0.70524  1.0000
  H   H2114     1.0  0.13935  0.96263  0.65719  1.0000
  H   H2115     1.0  0.18108  0.96450  0.59880  1.0000
  H   H2116     1.0  0.14596  0.90087  0.64557  1.0000
  H   H2117     1.0  0.29790  0.68702  0.50007  1.0000
  H   H2118     1.0  0.32958  0.69493  0.63002  1.0000
  C   C1243     1.0  0.18327  0.67196  0.55747  1.0000
  H   H2119     1.0  0.06304  0.66655  0.61422  1.0000
  H   H2120     1.0  0.34918  0.70790  0.61398  1.0000
  Fe  Fe173     1.0  0.25063  0.66112  0.55994  1.0000
  H   H2121     1.0  0.19934  0.81446  0.50141  1.0000
  H   H2122     1.0  0.00127  0.98651  0.70313  1.0000
  H   H2123     1.0  0.33322  0.66858  0.49368  1.0000
  H   H2124     1.0  0.05224  0.66050  0.57942  1.0000
  H   H2125     1.0  0.02426  0.98919  0.60589  1.0000
  C   C1244     1.0  0.99726  0.98780  0.73258  1.0000
  Fe  Fe174     1.0  0.28920  0.66097  0.57121  1.0000
  H   H2126     1.0  0.99589  0.94980  0.72951  1.0000
  H   H2127     1.0  0.18631  0.66279  0.50109  1.0000
  H   H2128     1.0  0.01006  0.99232  0.58862  1.0000
  H   H2129     1.0  0.17726  0.65957  0.56788  1.0000
  H   H2130     1.0  0.33648  0.65980  0.65999  1.0000
  C   C1245     1.0  0.00349  0.65977  0.64057  1.0000
  H   H2131     1.0  0.06763  0.75538  0.48776  1.0000
  C   C1246     1.0  0.31399  0.86888  0.95911  1.0000
  H   H2132     1.0  0.06134  0.85371  0.87666  1.0000
  H   H2133     1.0  0.27268  0.88071  0.95892  1.0000
  H   H2134     1.0  0.03561  0.93296  0.86938  1.0000
  H   H2135     1.0  0.39303  0.95854  0.87206  1.0000
  S   S352      1.0  0.41803  0.96972  0.79341  1.0000
  Fe  Fe175     1.0  0.40649  0.89593  0.88477  1.0000
  S   S353      1.0  0.40553  0.87582  0.91379  1.0000
  S   S354      1.0  0.43241  0.91236  0.87102  1.0000
  Fe  Fe176     1.0  0.36684  0.88843  0.88202  1.0000
  S   S355      1.0  0.36245  0.86729  0.91059  1.0000
  S   S356      1.0  0.34370  0.89649  0.86418  1.0000
  Fe  Fe177     1.0  0.37220  0.89048  0.91970  1.0000
  N   N90       1.0  0.03114  0.89368  0.85039  1.0000
  Fe  Fe178     1.0  0.39592  0.85440  0.90207  1.0000
  S   S357      1.0  0.40830  0.82061  0.91006  1.0000
  S   S358      1.0  0.37397  0.91273  0.89175  1.0000
  S   S359      1.0  0.39954  0.87333  0.87247  1.0000
  Fe  Fe179     1.0  0.37399  0.74201  0.88703  1.0000
  S   S360      1.0  0.35680  0.74751  0.91565  1.0000
  S   S361      1.0  0.38714  0.76727  0.86546  1.0000
  Fe  Fe180     1.0  0.36733  0.69888  0.89584  1.0000
  S   S362      1.0  0.34960  0.70078  0.92529  1.0000
  H   H2136     1.0  0.08829  0.98923  0.74044  1.0000
  Fe  Fe181     1.0  0.33422  0.73210  0.91192  1.0000
  S   S363      1.0  0.30033  0.74250  0.92262  1.0000
  Fe  Fe182     1.0  0.37372  0.71589  0.92635  1.0000
  S   S364      1.0  0.38814  0.70736  0.95151  1.0000
  S   S365      1.0  0.34993  0.72911  0.88224  1.0000
  S   S366      1.0  0.39292  0.71152  0.89788  1.0000
  Fe  Fe183     1.0  0.23704  0.87762  0.91076  1.0000
  H   H2137     1.0  0.32702  0.70466  0.84453  1.0000
  S   S367      1.0  0.25957  0.88726  0.92136  1.0000
  Fe  Fe184     1.0  0.20542  0.88869  0.88649  1.0000
  S   S368      1.0  0.19866  0.85721  0.89574  1.0000
  S   S369      1.0  0.19344  0.91420  0.86358  1.0000
  S   S370      1.0  0.35391  0.90190  0.94566  1.0000
  Fe  Fe185     1.0  0.23256  0.84571  0.89243  1.0000
  S   S371      1.0  0.25118  0.82169  0.87602  1.0000
  S   S372      1.0  0.20347  0.89202  0.91578  1.0000
  S   S373      1.0  0.23937  0.87699  0.88073  1.0000
  Fe  Fe186     1.0  0.05699  0.95733  0.81068  1.0000
  S   S374      1.0  0.08094  0.92949  0.80529  1.0000
  Fe  Fe187     1.0  0.08831  0.98376  0.80187  1.0000
  H   H2138     1.0  0.31272  0.97475  0.85371  1.0000
  S   S375      1.0  0.11507  0.95810  0.79610  1.0000
  S   S376      1.0  0.17517  0.84776  0.94882  1.0000
  Fe  Fe188     1.0  0.09574  0.95094  0.78038  1.0000
  S   S377      1.0  0.10922  0.94534  0.75118  1.0000
  Fe  Fe189     1.0  0.09796  0.93902  0.82169  1.0000
  S   S378      1.0  0.10986  0.91440  0.84510  1.0000
  N   N91       1.0  0.30462  0.69540  0.88542  1.0000
  H   H2139     1.0  0.31671  0.70512  0.90425  1.0000
  H   H2140     1.0  0.41486  0.69362  0.85551  1.0000
  C   C1247     1.0  0.36519  0.93540  0.82630  1.0000
  H   H2141     1.0  0.35050  0.93020  0.83177  1.0000
  H   H2142     1.0  0.38203  0.86299  0.95279  1.0000
  H   H2143     1.0  0.44524  0.85339  0.83955  1.0000
  C   C1248     1.0  0.45761  0.85897  0.86074  1.0000
  C   C1249     1.0  0.17102  0.85510  0.97027  1.0000
  C   C1250     1.0  0.46017  0.82706  0.91133  1.0000
  H   H2144     1.0  0.22577  0.79536  0.96220  1.0000
  H   H2145     1.0  0.44173  0.72508  0.83380  1.0000
  H   H2146     1.0  0.19812  0.97928  0.84651  1.0000
  C   C1251     1.0  0.21254  0.80720  0.96690  1.0000
  C   C1252     1.0  0.32667  0.68888  0.85305  1.0000
  H   H2147     1.0  0.22621  0.81670  0.83154  1.0000
  C   C1253     1.0  0.43046  0.69708  0.85099  1.0000
  H   H2148     1.0  0.37613  0.92580  0.83510  1.0000
  C   C1254     1.0  0.24698  0.90056  0.97242  1.0000
  H   H2149     1.0  0.03751  0.86036  0.85861  1.0000
  C   C1255     1.0  0.37629  0.86847  0.96573  1.0000
  C   C1256     1.0  0.38054  0.66633  0.86477  1.0000
  H   H2150     1.0  0.48498  0.82047  0.86920  1.0000
  C   C1257     1.0  0.06988  0.94603  0.75030  1.0000
  H   H2151     1.0  0.41772  0.72945  0.84997  1.0000
  H   H2152     1.0  0.06615  0.94566  0.76526  1.0000
  C   C1258     1.0  0.17023  0.91406  0.85858  1.0000
  C   C1259     1.0  0.16430  0.92743  0.84239  1.0000
  C   C1260     1.0  0.14574  0.92778  0.83815  1.0000
  C   C1261     1.0  0.13310  0.91463  0.85004  1.0000
  C   C1262     1.0  0.13913  0.90115  0.86614  1.0000
  C   C1263     1.0  0.15760  0.90095  0.87047  1.0000
  H   H2153     1.0  0.17409  0.93753  0.83308  1.0000
  H   H2154     1.0  0.14124  0.93816  0.82569  1.0000
  H   H2155     1.0  0.12938  0.89099  0.87543  1.0000
  H   H2156     1.0  0.16193  0.89078  0.88311  1.0000
  C   C1264     1.0  0.28735  0.76484  0.90950  1.0000
  C   C1265     1.0  0.29389  0.77075  0.88989  1.0000
  C   C1266     1.0  0.28260  0.78813  0.87967  1.0000
  C   C1267     1.0  0.26506  0.79993  0.88907  1.0000
  C   C1268     1.0  0.25866  0.79408  0.90869  1.0000
  C   C1269     1.0  0.26965  0.77645  0.91884  1.0000
  H   H2157     1.0  0.30748  0.76183  0.88258  1.0000
  H   H2158     1.0  0.28758  0.79258  0.86448  1.0000
  H   H2159     1.0  0.24494  0.80283  0.91600  1.0000
  H   H2160     1.0  0.26441  0.77179  0.93398  1.0000
  H   H2161     1.0  0.00433  0.94163  0.75154  1.0000
  H   H2162     1.0  0.14453  0.84160  0.98240  1.0000
  C   C1270     1.0  0.38092  0.68379  0.85014  1.0000
  C   C1271     1.0  0.38017  0.71684  0.98609  1.0000
  H   H2163     1.0  0.34608  0.72900  0.95787  1.0000
  H   H2164     1.0  0.31554  0.67633  0.93070  1.0000
  H   H2165     1.0  0.33899  0.95931  0.87209  1.0000
  H   H2166     1.0  0.37586  0.69883  0.85333  1.0000
  H   H2167     1.0  0.39404  0.84261  0.98180  1.0000
  C   C1272     1.0  0.40402  0.80567  0.89677  1.0000
  C   C1273     1.0  0.40369  0.78502  0.90480  1.0000
  C   C1274     1.0  0.39894  0.77308  0.89502  1.0000
  C   C1275     1.0  0.39503  0.78161  0.87695  1.0000
  C   C1276     1.0  0.39639  0.80198  0.86849  1.0000
  C   C1277     1.0  0.40058  0.81412  0.87851  1.0000
  H   H2168     1.0  0.40653  0.77835  0.91885  1.0000
  H   H2169     1.0  0.39835  0.75724  0.90151  1.0000
  H   H2170     1.0  0.39342  0.80861  0.85449  1.0000
  H   H2171     1.0  0.40092  0.83001  0.87217  1.0000
  C   C1278     1.0  0.31965  0.89610  0.87936  1.0000
  C   C1279     1.0  0.31677  0.89721  0.89815  1.0000
  C   C1280     1.0  0.29814  0.89489  0.91080  1.0000
  C   C1281     1.0  0.28222  0.89166  0.90475  1.0000
  C   C1282     1.0  0.28489  0.89140  0.88573  1.0000
  C   C1283     1.0  0.30357  0.89363  0.87303  1.0000
  H   H2172     1.0  0.32886  0.89990  0.90297  1.0000
  H   H2173     1.0  0.29625  0.89545  0.92529  1.0000
  H   H2174     1.0  0.27271  0.88938  0.88075  1.0000
  H   H2175     1.0  0.30571  0.89292  0.85845  1.0000
  H   H2176     1.0  0.47373  0.81438  0.90990  1.0000
  H   H2177     1.0  0.32938  0.66620  0.91058  1.0000
  C   C1284     1.0  0.44340  0.68619  0.82041  1.0000
  S   S379      1.0  0.23263  0.84533  0.92219  1.0000
  H   H2178     1.0  0.28263  0.68964  0.87320  1.0000
  C   C1285     1.0  0.35464  0.89390  0.98302  1.0000
  C   C1286     1.0  0.48390  0.88072  0.86968  1.0000
  C   C1287     1.0  0.38811  0.68178  0.83129  1.0000
  H   H2179     1.0  0.36593  0.96241  0.88016  1.0000
  H   H2180     1.0  0.12194  0.98463  0.74645  1.0000
  C   C1288     1.0  0.02171  0.93588  0.79705  1.0000
  C   C1289     1.0  0.48795  0.83503  0.87026  1.0000
  H   H2181     1.0  0.05142  0.87710  0.88505  1.0000
  H   H2182     1.0  0.04386  0.88023  0.81434  1.0000
  H   H2183     1.0  0.03786  0.93554  0.79146  1.0000
  H   H2184     1.0  0.43840  0.84709  0.89547  1.0000
  C   C1290     1.0  0.42583  0.95172  0.81286  1.0000
  C   C1291     1.0  0.43779  0.95606  0.82283  1.0000
  C   C1292     1.0  0.44058  0.94333  0.84037  1.0000
  C   C1293     1.0  0.43128  0.92640  0.84797  1.0000
  C   C1294     1.0  0.42036  0.92141  0.83747  1.0000
  C   C1295     1.0  0.41778  0.93399  0.81986  1.0000
  H   H2185     1.0  0.17171  0.95667  0.85988  1.0000
  H   H2186     1.0  0.44919  0.94713  0.84841  1.0000
  H   H2187     1.0  0.41346  0.90818  0.84308  1.0000
  H   H2188     1.0  0.40899  0.93039  0.81188  1.0000
  H   H2189     1.0  0.31696  0.89003  0.97311  1.0000
  H   H2190     1.0  0.29646  0.71899  0.86136  1.0000
  N   N92       1.0  0.28436  0.89443  0.97554  1.0000
  H   H2191     1.0  0.38155  0.94049  0.85547  1.0000
  C   C1296     1.0  0.43959  0.66079  0.85002  1.0000
  N   N93       1.0  0.44533  0.68131  0.84071  1.0000
  C   C1297     1.0  0.17391  0.96601  0.86858  1.0000
  H   H2192     1.0  0.17488  0.85845  0.86898  1.0000
  H   H2193     1.0  0.03924  0.94583  0.74947  1.0000
  C   C1298     1.0  0.35112  0.98732  0.84080  1.0000
  H   H2194     1.0  0.33206  0.67164  0.88016  1.0000
  H   H2195     1.0  0.28117  0.85452  0.98042  1.0000
  C   C1299     1.0  0.04232  0.92100  0.86095  1.0000
  H   H2196     1.0  0.44755  0.81998  0.92124  1.0000
  H   H2197     1.0  0.33665  0.69637  0.87441  1.0000
  H   H2198     1.0  0.47743  0.66571  0.83772  1.0000
  H   H2199     1.0  0.32968  0.86847  0.95013  1.0000
  C   C1300     1.0  0.47695  0.69803  0.83227  1.0000
  C   C1301     1.0  0.29777  0.71755  0.87606  1.0000
  H   H2200     1.0  0.37132  0.93246  0.81183  1.0000
  H   H2201     1.0  0.06033  0.86471  0.83039  1.0000
  N   N94       1.0  0.46808  0.84900  0.87711  1.0000
  C   C1302     1.0  0.39532  0.66234  0.82700  1.0000
  C   C1303     1.0  0.13662  0.97962  0.87708  1.0000
  H   H2202     1.0  0.41876  0.72210  0.82888  1.0000
  H   H2203     1.0  0.46759  0.67664  0.85742  1.0000
  H   H2204     1.0  0.27270  0.90682  0.94999  1.0000
  C   C1304     1.0  0.36214  0.95846  0.82526  1.0000
  C   C1305     1.0  0.46691  0.67949  0.84234  1.0000
  H   H2205     1.0  0.16442  0.99230  0.74682  1.0000
  H   H2206     1.0  0.45148  0.82428  0.88750  1.0000
  C   C1306     1.0  0.38301  0.85690  0.98216  1.0000
  H   H2207     1.0  0.32361  0.74301  0.98511  1.0000
  H   H2208     1.0  0.21512  0.82277  0.95970  1.0000
  H   H2209     1.0  0.06928  0.88355  0.81050  1.0000
  H   H2210     1.0  0.30280  0.66403  0.92109  1.0000
  H   H2211     1.0  0.17312  0.95576  0.88294  1.0000
  H   H2212     1.0  0.48723  0.89084  0.87706  1.0000
  C   C1307     1.0  0.35214  0.72795  0.96992  1.0000
  C   C1308     1.0  0.45724  0.67094  0.80835  1.0000
  C   C1309     1.0  0.01316  0.89280  0.84326  1.0000
  C   C1310     1.0  0.02500  0.91173  0.85972  1.0000
  H   H2213     1.0  0.27293  0.74436  0.87667  1.0000
  H   H2214     1.0  0.01605  0.87855  0.83809  1.0000
  H   H2215     1.0  0.20648  0.95423  0.85975  1.0000
  H   H2216     1.0  0.01492  0.92472  0.85196  1.0000
  C   C1311     1.0  0.27001  0.89520  0.96345  1.0000
  H   H2217     1.0  0.04412  0.91165  0.82368  1.0000
  H   H2218     1.0  0.34750  0.93756  0.86215  1.0000
  C   C1312     1.0  0.18399  0.86555  0.97340  1.0000
  H   H2219     1.0  0.45475  0.67657  0.79370  1.0000
  H   H2220     1.0  0.19951  0.80552  0.96202  1.0000
  C   C1313     1.0  0.27686  0.72892  0.88576  1.0000
  H   H2221     1.0  0.20961  0.84501  0.80924  1.0000
  H   H2222     1.0  0.38862  0.69533  0.81999  1.0000
  C   C1314     1.0  0.05531  0.87042  0.87241  1.0000
  H   H2223     1.0  0.34121  0.67894  0.84727  1.0000
  H   H2224     1.0  0.30934  0.72655  0.87479  1.0000
  H   H2225     1.0  0.42736  0.68712  0.81983  1.0000
  S   S380      1.0  0.37247  0.66825  0.88855  1.0000
  C   C1315     1.0  0.01158  0.92535  0.79028  1.0000
  H   H2226     1.0  0.31157  0.94860  0.86419  1.0000
  Fe  Fe190     1.0  0.48657  0.99056  0.76442  1.0000
  C   C1316     1.0  0.13255  0.96247  0.87019  1.0000
  C   C1317     1.0  0.05565  0.88016  0.82172  1.0000
  H   H2227     1.0  0.30879  0.90182  0.95154  1.0000
  H   H2228     1.0  0.14310  0.98394  0.76480  1.0000
  C   C1318     1.0  0.03623  0.87388  0.86436  1.0000
  C   C1319     1.0  0.45380  0.83707  0.89232  1.0000
  H   H2229     1.0  0.24119  0.83262  0.83472  1.0000
  H   H2230     1.0  0.05410  0.90974  0.86784  1.0000
  H   H2231     1.0  0.47369  0.66969  0.80749  1.0000
  H   H2232     1.0  0.43484  0.69655  0.86428  1.0000
  H   H2233     1.0  0.49384  0.69259  0.82888  1.0000
  C   C1320     1.0  0.47103  0.86601  0.88426  1.0000
  H   H2234     1.0  0.06230  0.89807  0.83729  1.0000
  H   H2235     1.0  0.00833  0.99046  0.78184  1.0000
  C   C1321     1.0  0.19604  0.96928  0.86087  1.0000
  C   C1322     1.0  0.42731  0.71960  0.84005  1.0000
  H   H2236     1.0  0.45590  0.87542  0.88970  1.0000
  H   H2237     1.0  0.23809  0.89796  0.96342  1.0000
  Fe  Fe191     1.0  0.19928  0.85958  0.92467  1.0000
  C   C1323     1.0  0.32108  0.95880  0.85341  1.0000
  H   H2238     1.0  0.42323  0.66478  0.87894  1.0000
  C   C1324     1.0  0.24441  0.82999  0.97324  1.0000
  C   C1325     1.0  0.33945  0.73588  0.98534  1.0000
  H   H2239     1.0  0.30979  0.92154  0.97928  1.0000
  H   H2240     1.0  0.37774  0.98263  0.86346  1.0000
  H   H2241     1.0  0.14126  0.94726  0.87622  1.0000
  C   C1326     1.0  0.04851  0.89676  0.83344  1.0000
  H   H2242     1.0  0.27728  0.73151  0.89947  1.0000
  N   N95       1.0  0.15741  0.98516  0.86923  1.0000
  H   H2243     1.0  0.04977  0.92884  0.84678  1.0000
  H   H2244     1.0  0.13383  0.97446  0.89279  1.0000
  H   H2245     1.0  0.47314  0.70912  0.84148  1.0000
  H   H2246     1.0  0.16672  0.97581  0.83345  1.0000
  S   S381      1.0  0.07019  0.97794  0.78428  1.0000
  H   H2247     1.0  0.44644  0.70147  0.81264  1.0000
  C   C1327     1.0  0.37828  0.96593  0.86763  1.0000
  H   H2248     1.0  0.02334  0.87249  0.87691  1.0000
  H   H2249     1.0  0.02001  0.91693  0.77942  1.0000
  H   H2250     1.0  0.26432  0.72100  0.88771  1.0000
  S   S382      1.0  0.02310  0.95893  0.82096  1.0000
  C   C1328     1.0  0.30620  0.88976  0.96472  1.0000
  H   H2251     1.0  0.24188  0.91693  0.97314  1.0000
  H   H2252     1.0  0.11609  0.96181  0.87530  1.0000
  S   S383      1.0  0.40676  0.66058  0.80344  1.0000
  C   C1329     1.0  0.05464  0.94616  0.74134  1.0000
  H   H2253     1.0  0.47822  0.86024  0.89661  1.0000
  H   H2254     1.0  0.19668  0.86985  0.96221  1.0000
  H   H2255     1.0  0.13592  0.96492  0.85465  1.0000
  H   H2256     1.0  0.16232  0.98477  0.89653  1.0000
  H   H2257     1.0  0.30469  0.86623  0.95060  1.0000
  N   N96       1.0  0.32446  0.81928  0.90401  1.0000
  C   C1330     1.0  0.30731  0.82210  0.92111  1.0000
  C   C1331     1.0  0.34245  0.80461  0.91119  1.0000
  C   C1332     1.0  0.31723  0.81010  0.89170  1.0000
  C   C1333     1.0  0.32898  0.84007  0.89378  1.0000
  C   C1334     1.0  0.28607  0.83336  0.91705  1.0000
  C   C1335     1.0  0.35205  0.81241  0.92325  1.0000
  C   C1336     1.0  0.33364  0.79923  0.87715  1.0000
  C   C1337     1.0  0.34784  0.84080  0.87727  1.0000
  H   H2258     1.0  0.30531  0.80701  0.93067  1.0000
  H   H2259     1.0  0.31084  0.83090  0.92966  1.0000
  H   H2260     1.0  0.35517  0.79992  0.89962  1.0000
  H   H2261     1.0  0.33793  0.79002  0.91974  1.0000
  H   H2262     1.0  0.30841  0.79833  0.90072  1.0000
  H   H2263     1.0  0.30645  0.82194  0.88374  1.0000
  H   H2264     1.0  0.31586  0.84995  0.88770  1.0000
  H   H2265     1.0  0.33039  0.84856  0.90373  1.0000
  H   H2266     1.0  0.27535  0.83597  0.93053  1.0000
  H   H2267     1.0  0.28627  0.84855  0.90742  1.0000
  H   H2268     1.0  0.27956  0.82415  0.91121  1.0000
  H   H2269     1.0  0.36463  0.80007  0.92811  1.0000
  H   H2270     1.0  0.35904  0.82556  0.91478  1.0000
  H   H2271     1.0  0.34111  0.81637  0.93612  1.0000
  H   H2272     1.0  0.32591  0.79509  0.86810  1.0000
  H   H2273     1.0  0.34244  0.78463  0.88416  1.0000
  H   H2274     1.0  0.34421  0.80884  0.86750  1.0000
  H   H2275     1.0  0.34332  0.84446  0.86350  1.0000
  H   H2276     1.0  0.35963  0.82669  0.87822  1.0000
  H   H2277     1.0  0.35556  0.85283  0.87729  1.0000
  N   N97       1.0  0.20233  0.85872  0.83341  1.0000
  C   C1338     1.0  0.19036  0.84264  0.84548  1.0000
  C   C1339     1.0  0.21765  0.84935  0.81797  1.0000
  C   C1340     1.0  0.18747  0.87670  0.82479  1.0000
  C   C1341     1.0  0.21228  0.86483  0.84584  1.0000
  C   C1342     1.0  0.17145  0.84972  0.86044  1.0000
  C   C1343     1.0  0.23338  0.83017  0.82480  1.0000
  C   C1344     1.0  0.19632  0.89498  0.81157  1.0000
  C   C1345     1.0  0.23088  0.87511  0.83604  1.0000
  H   H2278     1.0  0.20026  0.82966  0.85342  1.0000
  H   H2279     1.0  0.22651  0.86031  0.80771  1.0000
  H   H2280     1.0  0.17913  0.87164  0.81681  1.0000
  H   H2281     1.0  0.17556  0.88339  0.83595  1.0000
  H   H2282     1.0  0.20079  0.87527  0.85428  1.0000
  H   H2283     1.0  0.21781  0.85118  0.85645  1.0000
  H   H2284     1.0  0.15846  0.85899  0.85387  1.0000
  H   H2285     1.0  0.16615  0.83610  0.87034  1.0000
  H   H2286     1.0  0.24539  0.82617  0.81242  1.0000
  H   H2287     1.0  0.20200  0.90281  0.81944  1.0000
  H   H2288     1.0  0.18375  0.90648  0.80576  1.0000
  H   H2289     1.0  0.20825  0.89081  0.79929  1.0000
  H   H2290     1.0  0.22900  0.88873  0.84179  1.0000
  H   H2291     1.0  0.23327  0.88057  0.82058  1.0000
  H   H2292     1.0  0.24515  0.86463  0.83957  1.0000
  H   H2293     1.0  0.18486  0.83587  0.83649  1.0000
  H   H2294     1.0  0.44407  0.96973  0.81746  1.0000
  C   C1346     1.0  0.28893  0.68363  0.88622  1.0000
  C   C1347     1.0  0.36228  0.88710  0.96610  1.0000
  S   S384      1.0  0.07279  0.96556  0.82892  1.0000
  C   C1348     1.0  0.37781  0.95742  0.85097  1.0000
  C   C1349     1.0  0.37247  0.71827  0.97033  1.0000
  H   H2295     1.0  0.00731  0.96538  0.76511  1.0000
  H   H2296     1.0  0.24768  0.78873  0.97974  1.0000
  H   H2297     1.0  0.44385  0.87080  0.86479  1.0000
  H   H2298     1.0  0.01080  0.90555  0.83086  1.0000
  H   H2299     1.0  0.31544  0.85619  0.97167  1.0000
  N   N98       1.0  0.35823  0.96444  0.84390  1.0000
  H   H2300     1.0  0.28069  0.92741  0.96553  1.0000
  H   H2301     1.0  0.47307  0.70596  0.81846  1.0000
  H   H2302     1.0  0.39107  0.96119  0.83957  1.0000
  C   C1350     1.0  0.45069  0.84452  0.85259  1.0000
  H   H2303     1.0  0.29136  0.70119  0.91362  1.0000
  H   H2304     1.0  0.01573  0.90781  0.87433  1.0000
  H   H2305     1.0  0.46242  0.83819  0.91820  1.0000
  H   H2306     1.0  0.31397  0.68359  0.85095  1.0000
  C   C1351     1.0  0.32550  0.68769  0.87405  1.0000
  C   C1352     1.0  0.01092  0.94655  0.81124  1.0000
  H   H2307     1.0  0.06828  0.87630  0.86210  1.0000
  C   C1353     1.0  0.30639  0.69500  0.90503  1.0000
  H   H2308     1.0  0.20111  0.97533  0.87056  1.0000
  H   H2309     1.0  0.46332  0.83179  0.84865  1.0000
  H   H2310     1.0  0.34399  0.90839  0.98334  1.0000
  H   H2311     1.0  0.24707  0.81952  0.96378  1.0000
  H   H2312     1.0  0.46774  0.86730  0.84861  1.0000
  H   H2313     1.0  0.32220  0.95558  0.83955  1.0000
  C   C1354     1.0  0.34207  0.95445  0.85855  1.0000
  H   H2314     1.0  0.23920  0.84566  0.96506  1.0000
  H   H2315     1.0  0.37602  0.96350  0.81548  1.0000
  C   C1355     1.0  0.28030  0.91568  0.97908  1.0000
  C   C1356     1.0  0.08999  0.94590  0.73999  1.0000
  C   C1357     1.0  0.15458  0.84968  0.98476  1.0000
  H   H2316     1.0  0.47536  0.89099  0.85898  1.0000
  S   S385      1.0  0.47063  0.96933  0.75911  1.0000
  H   H2317     1.0  0.43754  0.83836  0.86247  1.0000
  H   H2318     1.0  0.39596  0.70948  0.98633  1.0000
  H   H2319     1.0  0.27564  0.68609  0.89823  1.0000
  H   H2320     1.0  0.42518  0.66032  0.84667  1.0000
  C   C1358     1.0  0.31403  0.67400  0.91720  1.0000
  H   H2321     1.0  0.34952  0.96655  0.81775  1.0000
  H   H2322     1.0  0.25927  0.82997  0.97605  1.0000
  Fe  Fe192     1.0  0.44217  0.98679  0.77478  1.0000
  H   H2323     1.0  0.49521  0.84215  0.85562  1.0000
  C   C1359     1.0  0.15815  0.99169  0.83327  1.0000
  H   H2324     1.0  0.24291  0.89096  0.98669  1.0000
  C   C1360     1.0  0.29630  0.66024  0.88777  1.0000
  H   H2325     1.0  0.33678  0.99227  0.83545  1.0000
  H   H2326     1.0  0.34656  0.99259  0.85431  1.0000
  C   C1361     1.0  0.91683  0.15382  0.10867  1.0000
  Fe  Fe193     1.0  0.63386  0.26809  0.06237  1.0000
  H   H2327     1.0  0.51454  0.02347  0.22342  1.0000
  S   S386      1.0  0.61948  0.29832  0.04639  1.0000
  S   S387      1.0  0.66624  0.27095  0.04887  1.0000
  Fe  Fe194     1.0  0.65623  0.12420  0.99777  1.0000
  S   S388      1.0  0.64994  0.10402  0.02652  1.0000
  Fe  Fe195     1.0  0.65892  0.15919  0.01258  1.0000
  S   S389      1.0  0.65257  0.14228  0.04294  1.0000
  S   S390      1.0  0.66564  0.19068  0.00205  1.0000
  Fe  Fe196     1.0  0.67409  0.11567  0.03214  1.0000
  S   S391      1.0  0.69592  0.09285  0.04837  1.0000
  Fe  Fe197     1.0  0.62874  0.13226  0.03473  1.0000
  S   S392      1.0  0.59714  0.13307  0.05321  1.0000
  S   S393      1.0  0.68263  0.13334  0.00255  1.0000
  S   S394      1.0  0.63309  0.15170  0.00534  1.0000
  S   S395      1.0  0.62265  0.23947  0.06639  1.0000
  Fe  Fe198     1.0  0.77735  0.18836  0.06594  1.0000
  C   C1362     1.0  0.59207  0.06459  0.09821  1.0000
  Fe  Fe199     1.0  0.80618  0.14663  0.06481  1.0000
  S   S396      1.0  0.78643  0.13718  0.05091  1.0000
  S   S397      1.0  0.83607  0.12442  0.06907  1.0000
  Fe  Fe200     1.0  0.76009  0.15148  0.07132  1.0000
  S   S398      1.0  0.73382  0.13706  0.08890  1.0000
  Fe  Fe201     1.0  0.51705  0.01695  0.11360  1.0000
  S   S399      1.0  0.77990  0.15818  0.08684  1.0000
  Fe  Fe202     1.0  0.94874  0.07472  0.12849  1.0000
  S   S400      1.0  0.93444  0.10063  0.14315  1.0000
  S   S401      1.0  0.97542  0.07935  0.10424  1.0000
  Fe  Fe203     1.0  0.92014  0.04763  0.15495  1.0000
  S   S402      1.0  0.90391  0.07166  0.17164  1.0000
  S   S403      1.0  0.90966  0.01796  0.16801  1.0000
  Fe  Fe204     1.0  0.90482  0.09324  0.14319  1.0000
  S   S404      1.0  0.87726  0.11783  0.13671  1.0000
  Fe  Fe205     1.0  0.93523  0.07622  0.16961  1.0000
  S   S405      1.0  0.95076  0.07424  0.19274  1.0000
  S   S406      1.0  0.91913  0.06886  0.12657  1.0000
  S   S407      1.0  0.95138  0.05069  0.15485  1.0000
  Fe  Fe206     1.0  0.53841  0.05037  0.08817  1.0000
  S   S408      1.0  0.54982  0.01988  0.10590  1.0000
  S   S409      1.0  0.55732  0.05951  0.05902  1.0000
  Fe  Fe207     1.0  0.54076  0.03645  0.12944  1.0000
  S   S410      1.0  0.56051  0.03272  0.14984  1.0000
  S   S411      1.0  0.53189  0.06735  0.11116  1.0000
  C   C1363     1.0  0.53322  0.07706  0.01471  1.0000
  H   H2328     1.0  0.94314  0.10255  0.08314  1.0000
  Fe  Fe208     1.0  0.65186  0.30232  0.03456  1.0000
  S   S412      1.0  0.63268  0.28002  0.08736  1.0000
  C   C1364     1.0  0.56634  0.00169  0.18060  1.0000
  H   H2329     1.0  0.61095  0.03111  0.12894  1.0000
  H   H2330     1.0  0.83029  0.14138  0.02966  1.0000
  H   H2331     1.0  0.83834  0.09098  0.01946  1.0000
  H   H2332     1.0  0.75449  0.22227  0.99438  1.0000
  N   N99       1.0  0.60438  0.07269  0.10701  1.0000
  C   C1365     1.0  0.73509  0.23639  0.06801  1.0000
  C   C1366     1.0  0.84712  0.12278  0.08806  1.0000
  C   C1367     1.0  0.86542  0.10848  0.09008  1.0000
  C   C1368     1.0  0.87464  0.10660  0.10506  1.0000
  C   C1369     1.0  0.86576  0.11918  0.11806  1.0000
  C   C1370     1.0  0.84754  0.13355  0.11596  1.0000
  C   C1371     1.0  0.83819  0.13531  0.10106  1.0000
  H   H2333     1.0  0.87245  0.09878  0.08004  1.0000
  H   H2334     1.0  0.88869  0.09555  0.10641  1.0000
  H   H2335     1.0  0.84057  0.14341  0.12589  1.0000
  H   H2336     1.0  0.82412  0.14643  0.09962  1.0000
  C   C1372     1.0  0.99200  0.09245  0.12710  1.0000
  C   C1373     1.0  0.72414  0.25677  0.09765  1.0000
  C   C1374     1.0  0.74314  0.24333  0.09453  1.0000
  C   C1375     1.0  0.74865  0.23298  0.07983  1.0000
  C   C1376     1.0  0.71607  0.25023  0.07094  1.0000
  H   H2337     1.0  0.75363  0.24094  0.10355  1.0000
  C   C1377     1.0  0.58579  0.11309  0.05401  1.0000
  C   C1378     1.0  0.59655  0.09741  0.04457  1.0000
  C   C1379     1.0  0.58781  0.08087  0.04632  1.0000
  C   C1380     1.0  0.56804  0.08018  0.05718  1.0000
  C   C1381     1.0  0.55707  0.09600  0.06641  1.0000
  C   C1382     1.0  0.56598  0.11240  0.06487  1.0000
  H   H2338     1.0  0.61156  0.09795  0.03590  1.0000
  H   H2339     1.0  0.59643  0.06856  0.03932  1.0000
  H   H2340     1.0  0.54164  0.09572  0.07454  1.0000
  H   H2341     1.0  0.55754  0.12456  0.07213  1.0000
  C   C1383     1.0  0.65352  0.20446  0.01969  1.0000
  C   C1384     1.0  0.65906  0.22263  0.01885  1.0000
  C   C1385     1.0  0.64897  0.23396  0.03272  1.0000
  C   C1386     1.0  0.63400  0.22664  0.04792  1.0000
  C   C1387     1.0  0.62845  0.20850  0.04872  1.0000
  C   C1388     1.0  0.63800  0.19757  0.03447  1.0000
  H   H2342     1.0  0.67096  0.22809  0.00740  1.0000
  H   H2343     1.0  0.65290  0.24824  0.03168  1.0000
  H   H2344     1.0  0.90267  0.13333  0.08969  1.0000
  H   H2345     1.0  0.63314  0.18394  0.03487  1.0000
  C   C1389     1.0  0.70691  0.10527  0.05909  1.0000
  C   C1390     1.0  0.71535  0.12232  0.04876  1.0000
  C   C1391     1.0  0.72436  0.13183  0.05763  1.0000
  C   C1392     1.0  0.72412  0.12476  0.07697  1.0000
  C   C1393     1.0  0.71532  0.10801  0.08727  1.0000
  C   C1394     1.0  0.70712  0.09802  0.07827  1.0000
  H   H2346     1.0  0.71523  0.12794  0.03389  1.0000
  H   H2347     1.0  0.73112  0.14482  0.04963  1.0000
  H   H2348     1.0  0.71510  0.10257  0.10221  1.0000
  H   H2349     1.0  0.70060  0.08489  0.08626  1.0000
  H   H2350     1.0  0.60707  0.10265  0.10837  1.0000
  C   C1395     1.0  0.92126  0.10560  0.20542  1.0000
  C   C1396     1.0  0.93736  0.08916  0.20927  1.0000
  C   C1397     1.0  0.90518  0.00407  0.15388  1.0000
  C   C1398     1.0  0.60338  0.27410  0.01597  1.0000
  H   H2351     1.0  0.56942  0.10989  0.02078  1.0000
  H   H2352     1.0  0.91689  0.10938  0.19197  1.0000
  C   C1399     1.0  0.59723  0.09568  0.10359  1.0000
  H   H2353     1.0  0.92428  0.16559  0.10974  1.0000
  C   C1400     1.0  0.91668  0.11264  0.23636  1.0000
  H   H2354     1.0  0.85688  0.13439  0.02629  1.0000
  H   H2355     1.0  0.73425  0.20983  0.00979  1.0000
  H   H2356     1.0  0.89552  0.16854  0.07293  1.0000
  H   H2357     1.0  0.57160  0.12077  0.10915  1.0000
  H   H2358     1.0  0.85377  0.07973  0.04698  1.0000
  H   H2359     1.0  0.76081  0.05238  0.99740  1.0000
  H   H2360     1.0  0.65894  0.17430  0.07594  1.0000
  H   H2361     1.0  0.57625  0.22670  0.01288  1.0000
  H   H2362     1.0  0.63533  0.07531  0.10470  1.0000
  C   C1401     1.0  0.91082  0.00916  0.13413  1.0000
  H   H2363     1.0  0.57608  0.27302  0.00832  1.0000
  H   H2364     1.0  0.64975  0.07081  0.07175  1.0000
  H   H2365     1.0  0.57184  0.09921  0.12862  1.0000
  C   C1402     1.0  0.94416  0.15848  0.22835  1.0000
  H   H2366     1.0  0.91843  0.02179  0.12714  1.0000
  H   H2367     1.0  0.99252  0.02409  0.14537  1.0000
  H   H2368     1.0  0.70496  0.20331  0.99058  1.0000
  H   H2369     1.0  0.98264  0.11441  0.17971  1.0000
  H   H2370     1.0  0.52631  0.01625  0.20154  1.0000
  H   H2371     1.0  0.73965  0.22895  0.05625  1.0000
  C   C1403     1.0  0.54023  0.04697  0.21601  1.0000
  N   N100      1.0  0.84398  0.12186  0.00969  1.0000
  S   S413      1.0  0.80548  0.17752  0.04506  1.0000
  H   H2372     1.0  0.91985  0.10509  0.07627  1.0000
  H   H2373     1.0  0.69879  0.30378  0.14080  1.0000
  H   H2374     1.0  0.61671  0.20291  0.06033  1.0000
  C   C1404     1.0  0.71708  0.08172  0.00224  1.0000
  H   H2375     1.0  0.60673  0.03805  0.15083  1.0000
  H   H2376     1.0  0.68672  0.04013  0.00257  1.0000
  S   S414      1.0  0.77313  0.21696  0.07615  1.0000
  H   H2377     1.0  0.82699  0.10674  0.03617  1.0000
  H   H2378     1.0  0.53947  0.09679  0.02850  1.0000
  C   C1405     1.0  0.57480  0.10377  0.11298  1.0000
  H   H2379     1.0  0.49629  0.08379  0.17026  1.0000
  H   H2380     1.0  0.91651  0.11708  0.10642  1.0000
  H   H2381     1.0  0.94040  0.02841  0.21096  1.0000
  Fe  Fe209     1.0  0.66401  0.28552  0.07242  1.0000
  H   H2382     1.0  0.95922  0.12872  0.08167  1.0000
  S   S415      1.0  0.75551  0.18253  0.05209  1.0000
  C   C1406     1.0  0.59860  0.04186  0.09710  1.0000
  H   H2383     1.0  0.99420  0.17965  0.21437  1.0000
  S   S416      1.0  0.68706  0.27770  0.09060  1.0000
  H   H2384     1.0  0.88417  0.11598  0.01259  1.0000
  H   H2385     1.0  0.91720  0.14188  0.12201  1.0000
  H   H2386     1.0  0.61836  0.29454  0.13417  1.0000
  H   H2387     1.0  0.56378  0.09904  0.10773  1.0000
  H   H2388     1.0  0.65547  0.29284  0.12032  1.0000
  C   C1407     1.0  0.98418  0.01719  0.12294  1.0000
  C   C1408     1.0  0.88357  0.11786  0.99773  1.0000
  C   C1409     1.0  0.99413  0.16339  0.22154  1.0000
  C   C1410     1.0  0.73210  0.09480  0.00150  1.0000
  H   H2389     1.0  0.83651  0.00245  0.17627  1.0000
  H   H2390     1.0  0.60439  0.07465  0.13520  1.0000
  H   H2391     1.0  0.95022  0.12193  0.10641  1.0000
  C   C1411     1.0  0.63296  0.07595  0.07661  1.0000
  N   N101      1.0  0.55842  0.10200  0.00011  1.0000
  H   H2392     1.0  0.81327  0.10186  0.00357  1.0000
  C   C1412     1.0  0.59236  0.27322  0.00112  1.0000
  C   C1413     1.0  0.91102  0.11743  0.21894  1.0000
  H   H2393     1.0  0.66423  0.31673  0.09199  1.0000
  H   H2394     1.0  0.73189  0.09547  0.01609  1.0000
  H   H2395     1.0  0.61035  0.25903  0.02366  1.0000
  H   H2396     1.0  0.94282  0.15665  0.06282  1.0000
  H   H2397     1.0  0.88502  0.15523  0.10698  1.0000
  H   H2398     1.0  0.70587  0.25325  0.06155  1.0000
  C   C1414     1.0  0.84096  0.10301  0.02507  1.0000
  H   H2399     1.0  0.58415  0.06424  0.13414  1.0000
  H   H2400     1.0  0.97805  0.16470  0.20006  1.0000
  C   C1415     1.0  0.54983  0.13722  0.00913  1.0000
  C   C1416     1.0  0.74948  0.04625  0.99385  1.0000
  Fe  Fe210     1.0  0.78371  0.16899  0.03288  1.0000
  H   H2401     1.0  0.96930  0.01458  0.13243  1.0000
  H   H2402     1.0  0.54359  0.06380  0.02176  1.0000
  H   H2403     1.0  0.59409  0.21402  0.02756  1.0000
  H   H2404     1.0  0.50910  0.07107  0.15167  1.0000
  H   H2405     1.0  0.72009  0.26460  0.10913  1.0000
  H   H2406     1.0  0.56355  0.01342  0.18834  1.0000
  S   S417      1.0  0.50635  0.04598  0.09376  1.0000
  H   H2407     1.0  0.55661  0.14636  0.01483  1.0000
  H   H2408     1.0  0.61520  0.03559  0.09531  1.0000
  H   H2409     1.0  0.89876  0.13037  0.21587  1.0000
  C   C1417     1.0  0.76480  0.13349  0.99246  1.0000
  S   S418      1.0  0.78745  0.17732  0.00120  1.0000
  C   C1418     1.0  0.98958  0.11854  0.18941  1.0000
  H   H2410     1.0  0.54474  0.04528  0.18698  1.0000
  S   S419      1.0  0.50886  0.03060  0.13905  1.0000
  H   H2411     1.0  0.92046  0.01390  0.21713  1.0000
  N   N102      1.0  0.84874  0.04813  0.14587  1.0000
  C   C1419     1.0  0.84678  0.03107  0.16337  1.0000
  C   C1420     1.0  0.86146  0.06118  0.14855  1.0000
  C   C1421     1.0  0.85946  0.03853  0.12908  1.0000
  C   C1422     1.0  0.82750  0.05989  0.14389  1.0000
  H   H2412     1.0  0.61398  0.32118  0.13361  1.0000
  C   C1423     1.0  0.85196  0.07214  0.16511  1.0000
  C   C1424     1.0  0.87112  0.05165  0.11154  1.0000
  C   C1425     1.0  0.82581  0.07962  0.12824  1.0000
  C   C1426     1.0  0.83736  0.01369  0.16250  1.0000
  H   H2413     1.0  0.83724  0.03709  0.17594  1.0000
  H   H2414     1.0  0.86500  0.07330  0.13584  1.0000
  H   H2415     1.0  0.87673  0.05174  0.15066  1.0000
  H   H2416     1.0  0.87102  0.02462  0.13317  1.0000
  H   H2417     1.0  0.84853  0.03305  0.12426  1.0000
  H   H2418     1.0  0.81902  0.05014  0.14086  1.0000
  H   H2419     1.0  0.81795  0.06371  0.15747  1.0000
  C   C1427     1.0  0.62852  0.32023  0.99319  1.0000
  C   C1428     1.0  0.58834  0.22898  0.01860  1.0000
  H   H2420     1.0  0.96282  0.11581  0.21174  1.0000
  H   H2421     1.0  0.86194  0.08234  0.16480  1.0000
  H   H2422     1.0  0.83678  0.08212  0.16390  1.0000
  H   H2423     1.0  0.85100  0.06122  0.17902  1.0000
  H   H2424     1.0  0.88503  0.05411  0.11436  1.0000
  H   H2425     1.0  0.86150  0.06650  0.10632  1.0000
  H   H2426     1.0  0.87647  0.04324  0.09992  1.0000
  H   H2427     1.0  0.82638  0.07625  0.11453  1.0000
  H   H2428     1.0  0.83743  0.08859  0.12630  1.0000
  H   H2429     1.0  0.81099  0.09015  0.13229  1.0000
  N   N103      1.0  0.97887  0.13443  0.21885  1.0000
  H   H2430     1.0  0.84981  0.16949  0.01224  1.0000
  C   C1429     1.0  0.93020  0.11390  0.07787  1.0000
  H   H2431     1.0  0.53293  0.06954  0.19148  1.0000
  H   H2432     1.0  0.86320  0.10245  0.04150  1.0000
  H   H2433     1.0  0.62919  0.04266  0.13332  1.0000
  H   H2434     1.0  0.68689  0.07571  0.98932  1.0000
  C   C1430     1.0  0.56671  0.00692  0.16122  1.0000
  C   C1431     1.0  0.96189  0.14960  0.09654  1.0000
  H   H2435     1.0  0.53323  0.07494  0.00074  1.0000
  H   H2436     1.0  0.57583  0.06662  0.10599  1.0000
  S   S420      1.0  0.65245  0.31757  0.05707  1.0000
  H   H2437     1.0  0.88858  0.13218  0.98920  1.0000
  C   C1432     1.0  0.84622  0.15953  0.00488  1.0000
  H   H2438     1.0  0.55294  0.05464  0.21430  1.0000
  H   H2439     1.0  0.50853  0.08369  0.21618  1.0000
  C   C1433     1.0  0.92867  0.16067  0.07359  1.0000
  C   C1434     1.0  0.60066  0.06442  0.12814  1.0000
  H   H2440     1.0  0.57076  0.07055  0.99670  1.0000
  H   H2441     1.0  0.92310  0.03326  0.19628  1.0000
  C   C1435     1.0  0.97229  0.12746  0.20462  1.0000
  H   H2442     1.0  0.57715  0.07615  0.01527  1.0000
  H   H2443     1.0  0.59200  0.28115  0.02719  1.0000
  H   H2444     1.0  0.82157  0.01931  0.16016  1.0000
  C   C1436     1.0  0.92413  0.02921  0.21134  1.0000
  C   C1437     1.0  0.53885  0.09739  0.01371  1.0000
  H   H2445     1.0  0.51757  0.07683  0.02361  1.0000
  H   H2446     1.0  0.54638  0.03021  0.21964  1.0000
  H   H2447     1.0  0.52553  0.10984  0.01058  1.0000
  H   H2448     1.0  0.88721  0.16810  0.12336  1.0000
  N   N104      1.0  0.51225  0.04856  0.19891  1.0000
  C   C1438     1.0  0.86274  0.11724  0.99440  1.0000
  H   H2449     1.0  0.71382  0.03264  0.99835  1.0000
  H   H2450     1.0  0.98134  0.03300  0.11434  1.0000
  C   C1439     1.0  0.89431  0.16468  0.10914  1.0000
  H   H2451     1.0  0.52078  0.03953  0.17216  1.0000
  H   H2452     1.0  0.91966  0.05720  0.21976  1.0000
  H   H2453     1.0  0.50015  0.09268  0.19417  1.0000
  H   H2454     1.0  0.96216  0.14032  0.19687  1.0000
  H   H2455     1.0  0.87221  0.08499  0.02551  1.0000
  H   H2456     1.0  0.98884  0.00602  0.11374  1.0000
  H   H2457     1.0  0.95708  0.15238  0.11108  1.0000
  H   H2458     1.0  0.73860  0.04087  0.00690  1.0000
  C   C1440     1.0  0.50918  0.05106  0.17933  1.0000
  C   C1441     1.0  0.94986  0.13515  0.09410  1.0000
  C   C1442     1.0  0.60633  0.23556  0.00279  1.0000
  H   H2459     1.0  0.93787  0.15718  0.21683  1.0000
  H   H2460     1.0  0.93617  0.12291  0.06373  1.0000
  H   H2461     1.0  0.68842  0.31082  0.11037  1.0000
  H   H2462     1.0  0.70886  0.23556  0.99219  1.0000
  H   H2463     1.0  0.89834  0.05497  0.21258  1.0000
  Fe  Fe211     1.0  0.62107  0.31090  0.07030  1.0000
  S   S421      1.0  0.66546  0.31170  0.00355  1.0000
  H   H2464     1.0  0.91131  0.15211  0.05745  1.0000
  H   H2465     1.0  0.53538  0.13467  0.01938  1.0000
  H   H2466     1.0  0.91210  0.17854  0.05170  1.0000
  C   C1443     1.0  0.99189  0.09197  0.10865  1.0000
  H   H2467     1.0  0.92950  0.17553  0.07594  1.0000
  N   N105      1.0  0.68591  0.19646  0.08230  1.0000
  C   C1444     1.0  0.68989  0.17601  0.07723  1.0000
  C   C1445     1.0  0.70381  0.19707  0.08963  1.0000
  C   C1446     1.0  0.68371  0.21381  0.06538  1.0000
  C   C1447     1.0  0.66620  0.19894  0.09694  1.0000
  C   C1448     1.0  0.67464  0.17334  0.06704  1.0000
  C   C1449     1.0  0.70520  0.18392  0.10955  1.0000
  C   C1450     1.0  0.70147  0.21275  0.04790  1.0000
  C   C1451     1.0  0.65994  0.21902  0.10412  1.0000
  H   H2468     1.0  0.70548  0.17254  0.06819  1.0000
  H   H2469     1.0  0.68989  0.16342  0.09009  1.0000
  H   H2470     1.0  0.70412  0.21293  0.08970  1.0000
  H   H2471     1.0  0.71851  0.19188  0.08006  1.0000
  H   H2472     1.0  0.66938  0.21521  0.06097  1.0000
  H   H2473     1.0  0.68206  0.22867  0.06909  1.0000
  H   H2474     1.0  0.65315  0.19882  0.09115  1.0000
  H   H2475     1.0  0.66612  0.18566  0.10925  1.0000
  H   H2476     1.0  0.67430  0.18439  0.05331  1.0000
  H   H2477     1.0  0.67958  0.15783  0.06389  1.0000
  C   C1452     1.0  0.71057  0.26036  0.08588  1.0000
  H   H2478     1.0  0.70503  0.16772  0.11077  1.0000
  H   H2479     1.0  0.71995  0.18410  0.11250  1.0000
  H   H2480     1.0  0.69281  0.19020  0.12059  1.0000
  H   H2481     1.0  0.69805  0.22647  0.03658  1.0000
  H   H2482     1.0  0.70344  0.19916  0.04212  1.0000
  H   H2483     1.0  0.71601  0.21300  0.05102  1.0000
  H   H2484     1.0  0.64976  0.23092  0.09564  1.0000
  H   H2485     1.0  0.67303  0.22543  0.10370  1.0000
  H   H2486     1.0  0.65166  0.21611  0.11915  1.0000
  C   C1453     1.0  0.53275  0.05309  0.19736  1.0000
  H   H2487     1.0  0.61242  0.22365  0.99418  1.0000
  H   H2488     1.0  0.62543  0.06956  0.06904  1.0000
  H   H2489     1.0  0.97838  0.14215  0.09462  1.0000
  H   H2490     1.0  0.68196  0.28839  0.14100  1.0000
  C   C1454     1.0  0.94279  0.08415  0.22676  1.0000
  C   C1455     1.0  0.98802  0.15295  0.20888  1.0000
  H   H2491     1.0  0.85841  0.15825  0.99199  1.0000
  C   C1456     1.0  0.64660  0.30544  0.12764  1.0000
  H   H2492     1.0  0.76655  0.14317  0.01672  1.0000
  C   C1457     1.0  0.62699  0.06835  0.09827  1.0000
  C   C1458     1.0  0.77010  0.14591  0.00145  1.0000
  C   C1459     1.0  0.82072  0.11344  0.99243  1.0000
  H   H2493     1.0  0.62222  0.31185  0.11194  1.0000
  H   H2494     1.0  0.69953  0.04758  0.01611  1.0000
  C   C1460     1.0  0.56534  0.11701  0.00686  1.0000
  C   C1461     1.0  0.67814  0.31864  0.12170  1.0000
  H   H2495     1.0  0.98198  0.08476  0.13905  1.0000
  H   H2496     1.0  0.75731  0.12117  0.00091  1.0000
  Fe  Fe212     1.0  0.50070  0.06008  0.11860  1.0000
  C   C1462     1.0  0.78004  0.16174  0.99063  1.0000
  H   H2497     1.0  0.89312  0.17960  0.09884  1.0000
  H   H2498     1.0  0.62973  0.09289  0.07223  1.0000
  H   H2499     1.0  0.61879  0.23420  0.00980  1.0000
  C   C1463     1.0  0.68281  0.30431  0.14034  1.0000
  H   H2500     1.0  0.81137  0.13371  0.01169  1.0000
  H   H2501     1.0  0.57941  0.12150  0.99715  1.0000
  N   N106      1.0  0.92814  0.14455  0.09181  1.0000
  H   H2502     1.0  0.83147  0.16758  0.00078  1.0000
  C   C1464     1.0  0.82537  0.12897  0.00105  1.0000
  C   C1465     1.0  0.91841  0.12747  0.09213  1.0000
  C   C1466     1.0  0.62402  0.30880  0.12666  1.0000
  H   H2503     1.0  0.60372  0.09411  0.99301  1.0000
  H   H2504     1.0  0.59025  0.03229  0.10969  1.0000
  H   H2505     1.0  0.59865  0.10260  0.08828  1.0000
  H   H2506     1.0  0.52425  0.07720  0.16394  1.0000
  H   H2507     1.0  0.95503  0.07122  0.22987  1.0000
  H   H2508     1.0  0.64716  0.29892  0.14268  1.0000
  C   C1467     1.0  0.91077  0.16501  0.06363  1.0000
  H   H2509     1.0  0.59120  0.07379  0.08378  1.0000
  H   H2510     1.0  0.96058  0.16433  0.08601  1.0000
  H   H2511     1.0  0.63391  0.05180  0.10126  1.0000
  C   C1468     1.0  0.50988  0.07213  0.16587  1.0000
  H   H2512     1.0  0.88554  0.02098  0.21856  1.0000
  C   C1469     1.0  0.61272  0.04281  0.13536  1.0000
  C   C1470     1.0  0.70079  0.04525  0.00186  1.0000
  H   H2513     1.0  0.59463  0.04017  0.08437  1.0000
  C   C1471     1.0  0.51278  0.02634  0.20867  1.0000
  C   C1472     1.0  0.90994  0.04642  0.22113  1.0000
  H   H2514     1.0  0.84696  0.00506  0.15163  1.0000
  H   H2515     1.0  0.88516  0.08257  0.22673  1.0000
  H   H2516     1.0  0.86206  0.02369  0.16683  1.0000
  H   H2517     1.0  0.73378  0.23570  0.00923  1.0000
  H   H2518     1.0  0.70131  0.09050  0.00671  1.0000
  H   H2519     1.0  0.61513  0.28355  0.00957  1.0000
  H   H2520     1.0  0.54660  0.14668  0.99539  1.0000
  H   H2521     1.0  0.71881  0.06853  0.01431  1.0000
  C   C1473     1.0  0.85874  0.09223  0.03512  1.0000
  C   C1474     1.0  0.84444  0.13865  0.01854  1.0000
  H   H2522     1.0  0.58169  0.23997  0.02800  1.0000
  C   C1475     1.0  0.90640  0.99786  0.12341  1.0000
  C   C1476     1.0  0.96033  0.13929  0.23420  1.0000
  N   N107      1.0  0.65621  0.32397  0.11957  1.0000
  C   C1477     1.0  0.49679  0.08369  0.20880  1.0000
  H   H2523     1.0  0.89547  0.10526  0.99241  1.0000
  C   C1478     1.0  0.57501  0.08284  0.00057  1.0000
  H   H2524     1.0  0.98467  0.09038  0.22792  1.0000
  H   H2525     1.0  0.74806  0.08847  0.99491  1.0000
  H   H2526     1.0  0.63610  0.32347  0.15736  1.0000
  C   C1479     1.0  0.73777  0.22433  0.00026  1.0000
  H   H2527     1.0  0.95015  0.17269  0.22428  1.0000
  H   H2528     1.0  0.72985  0.19091  0.99290  1.0000
  H   H2529     1.0  0.75841  0.03246  0.98838  1.0000
  C   C1480     1.0  0.88121  0.01650  0.23421  1.0000
  H   H2530     1.0  0.91060  0.00181  0.10814  1.0000
  H   H2531     1.0  0.67270  0.30945  0.15302  1.0000
  H   H2532     1.0  0.62152  0.32420  0.00675  1.0000
  H   H2533     1.0  0.86421  0.10191  0.99169  1.0000
  H   H2534     1.0  0.63923  0.26096  0.99510  1.0000
  H   H2535     1.0  0.72745  0.11080  0.99383  1.0000
  H   H2536     1.0  0.98538  0.03787  0.23322  1.0000
  H   H2537     1.0  0.82675  0.14283  0.98945  1.0000
  H   H2538     1.0  0.52791  0.05139  0.22799  1.0000
  C   C1481     1.0  0.59614  0.08533  0.98776  1.0000
  H   H2539     1.0  0.98325  0.16387  0.23528  1.0000
  H   H2540     1.0  0.86889  0.04707  0.23683  1.0000
  H   H2541     1.0  0.57225  0.99536  0.13618  1.0000
  H   H2542     1.0  0.60635  0.06998  0.98792  1.0000
  C   C1482     1.0  0.64977  0.31366  0.98817  1.0000
  H   H2543     1.0  0.59146  0.28851  0.99126  1.0000
  N   N108      1.0  0.60150  0.25646  0.99023  1.0000
  H   H2544     1.0  0.57101  0.25436  0.98971  1.0000
  C   C1483     1.0  0.99479  0.11808  0.22765  1.0000
  H   H2545     1.0  0.81877  0.32432  0.43147  1.0000
  S   S422      1.0  0.87058  0.02198  0.29809  1.0000
  H   H2546     1.0  0.89165  0.00227  0.23955  1.0000
  H   H2547     1.0  0.94401  0.17797  0.36681  1.0000
  H   H2548     1.0  0.83026  0.26597  0.46664  1.0000
  H   H2549     1.0  0.91717  0.00893  0.24730  1.0000
  Fe  Fe213     1.0  0.81271  0.24421  0.40787  1.0000
  S   S423      1.0  0.84357  0.24364  0.38814  1.0000
  S   S424      1.0  0.78550  0.24719  0.39585  1.0000
  H   H2550     1.0  0.74758  0.31154  0.41556  1.0000
  S   S425      1.0  0.86257  0.23275  0.42629  1.0000
  C   C1484     1.0  0.97162  0.06109  0.32931  1.0000
  Fe  Fe214     1.0  0.84890  0.26085  0.40691  1.0000
  S   S426      1.0  0.86184  0.28917  0.39412  1.0000
  Fe  Fe215     1.0  0.85457  0.21557  0.40902  1.0000
  S   S427      1.0  0.87433  0.18546  0.40270  1.0000
  H   H2551     1.0  0.98282  0.00298  0.35895  1.0000
  S   S428      1.0  0.82320  0.21482  0.42733  1.0000
  Fe  Fe216     1.0  0.92091  0.09445  0.31712  1.0000
  S   S429      1.0  0.89600  0.12060  0.30783  1.0000
  S   S430      1.0  0.91752  0.06282  0.33402  1.0000
  Fe  Fe217     1.0  0.95507  0.11595  0.29338  1.0000
  S   S431      1.0  0.93320  0.14357  0.28194  1.0000
  C   C1485     1.0  0.97963  0.16985  0.34102  1.0000
  Fe  Fe218     1.0  0.91468  0.14041  0.31169  1.0000
  S   S432      1.0  0.90213  0.17135  0.31924  1.0000
  Fe  Fe219     1.0  0.91654  0.12168  0.27895  1.0000
  H   H2552     1.0  0.94582  0.07039  0.35144  1.0000
  S   S433      1.0  0.93806  0.11421  0.32355  1.0000
  S   S434      1.0  0.93999  0.09421  0.28799  1.0000
  H   H2553     1.0  0.80330  0.30078  0.47164  1.0000
  H   H2554     1.0  0.86683  0.28624  0.45823  1.0000
  H   H2555     1.0  0.84072  0.29551  0.36529  1.0000
  H   H2556     1.0  0.93661  0.09172  0.25373  1.0000
  C   C1486     1.0  0.88246  0.18172  0.37944  1.0000
  C   C1487     1.0  0.88078  0.19818  0.36395  1.0000
  C   C1488     1.0  0.88681  0.19469  0.34557  1.0000
  C   C1489     1.0  0.89448  0.17476  0.34257  1.0000
  C   C1490     1.0  0.89619  0.15826  0.35803  1.0000
  C   C1491     1.0  0.89034  0.16179  0.37644  1.0000
  H   H2557     1.0  0.87492  0.21359  0.36615  1.0000
  H   H2558     1.0  0.88559  0.20750  0.33360  1.0000
  H   H2559     1.0  0.90201  0.14283  0.35583  1.0000
  H   H2560     1.0  0.89160  0.14901  0.38843  1.0000
  C   C1492     1.0  0.95290  0.15150  0.34370  1.0000
  C   C1493     1.0  0.73351  0.28842  0.38834  1.0000
  C   C1494     1.0  0.74965  0.27130  0.38795  1.0000
  C   C1495     1.0  0.76508  0.26848  0.39758  1.0000
  C   C1496     1.0  0.76419  0.28285  0.40778  1.0000
  C   C1497     1.0  0.74830  0.30044  0.40768  1.0000
  H   H2561     1.0  0.72152  0.29030  0.38105  1.0000
  H   H2562     1.0  0.75013  0.26014  0.38022  1.0000
  H   H2563     1.0  0.77566  0.28031  0.41579  1.0000
  C   C1498     1.0  0.80019  0.30029  0.37011  1.0000
  H   H2564     1.0  0.96061  0.05338  0.32716  1.0000
  H   H2565     1.0  0.93105  0.16008  0.24059  1.0000
  C   C1499     1.0  0.81181  0.32232  0.38350  1.0000
  H   H2566     1.0  0.52771  0.07512  0.31827  1.0000
  C   C1500     1.0  0.86509  0.28735  0.42990  1.0000
  C   C1501     1.0  0.86350  0.29974  0.41207  1.0000
  H   H2567     1.0  0.96026  0.19706  0.31348  1.0000
  H   H2568     1.0  0.95216  0.12641  0.23974  1.0000
  H   H2569     1.0  0.86597  0.27109  0.43254  1.0000
  S   S435      1.0  0.99067  0.99661  0.29418  1.0000
  H   H2570     1.0  0.98327  0.11267  0.32035  1.0000
  H   H2571     1.0  0.96790  0.17897  0.28941  1.0000
  H   H2572     1.0  0.90861  0.06345  0.25001  1.0000
  H   H2573     1.0  0.90074  0.00391  0.32183  1.0000
  H   H2574     1.0  0.49559  0.13396  0.30419  1.0000
  H   H2575     1.0  0.80457  0.29545  0.34115  1.0000
  H   H2576     1.0  0.95110  0.12375  0.36568  1.0000
  H   H2577     1.0  0.94759  0.00040  0.29847  1.0000
  H   H2578     1.0  0.97956  0.16925  0.35595  1.0000
  H   H2579     1.0  0.93768  0.14638  0.37392  1.0000
  C   C1502     1.0  0.88447  0.03257  0.30793  1.0000
  C   C1503     1.0  0.88134  0.05393  0.30447  1.0000
  C   C1504     1.0  0.89194  0.06315  0.31199  1.0000
  C   C1505     1.0  0.90525  0.05110  0.32360  1.0000
  C   C1506     1.0  0.90846  0.02968  0.32712  1.0000
  C   C1507     1.0  0.89828  0.02040  0.31907  1.0000
  H   H2580     1.0  0.87048  0.06345  0.29610  1.0000
  H   H2581     1.0  0.88926  0.07963  0.30928  1.0000
  H   H2582     1.0  0.91879  0.02029  0.33606  1.0000
  H   H2583     1.0  0.76758  0.30374  0.45073  1.0000
  H   H2584     1.0  0.50447  0.12465  0.33094  1.0000
  H   H2585     1.0  0.82407  0.29765  0.44176  1.0000
  H   H2586     1.0  0.98218  0.00832  0.33464  1.0000
  C   C1508     1.0  0.49713  0.08722  0.33313  1.0000
  C   C1509     1.0  0.95560  0.18209  0.31866  1.0000
  C   C1510     1.0  0.80500  0.31577  0.46181  1.0000
  S   S436      1.0  0.90424  0.12818  0.25271  1.0000
  C   C1511     1.0  0.98984  0.03124  0.24703  1.0000
  H   H2587     1.0  0.76811  0.30849  0.47964  1.0000
  H   H2588     1.0  0.93800  0.15258  0.34028  1.0000
  H   H2589     1.0  0.90458  0.01861  0.26757  1.0000
  H   H2590     1.0  0.92694  0.18479  0.35137  1.0000
  H   H2591     1.0  0.78340  0.30666  0.37277  1.0000
  H   H2592     1.0  0.96437  0.14121  0.33510  1.0000
  C   C1512     1.0  0.91305  0.02305  0.25273  1.0000
  H   H2593     1.0  0.93076  0.21488  0.35810  1.0000
  H   H2594     1.0  0.94343  0.21604  0.33401  1.0000
  C   C1513     1.0  0.73291  0.30317  0.39797  1.0000
  H   H2595     1.0  0.97076  0.07533  0.31804  1.0000
  H   H2596     1.0  0.51875  0.10139  0.30836  1.0000
  C   C1514     1.0  0.98007  0.01561  0.34657  1.0000
  S   S437      1.0  0.71217  0.32426  0.39825  1.0000
  H   H2597     1.0  0.68059  0.31607  0.37481  1.0000
  S   S438      1.0  0.98874  0.11330  0.28066  1.0000
  S   S439      1.0  0.52083  0.99362  0.25768  1.0000
  C   C1515     1.0  0.96274  0.06814  0.34815  1.0000
  H   H2598     1.0  0.67671  0.31111  0.34476  1.0000
  H   H2599     1.0  0.95790  0.20845  0.35261  1.0000
  N   N109      1.0  0.82211  0.18935  0.36768  1.0000
  C   C1516     1.0  0.82541  0.19244  0.38559  1.0000
  C   C1517     1.0  0.82677  0.20755  0.35207  1.0000
  C   C1518     1.0  0.83675  0.16998  0.36307  1.0000
  C   C1519     1.0  0.80015  0.18749  0.37143  1.0000
  C   C1520     1.0  0.82461  0.17395  0.40266  1.0000
  C   C1521     1.0  0.81429  0.22868  0.35539  1.0000
  C   C1522     1.0  0.84430  0.16877  0.34203  1.0000
  C   C1523     1.0  0.79260  0.18634  0.35450  1.0000
  H   H2600     1.0  0.84041  0.19669  0.38296  1.0000
  H   H2601     1.0  0.81380  0.20546  0.39058  1.0000
  H   H2602     1.0  0.82458  0.20631  0.33845  1.0000
  H   H2603     1.0  0.84321  0.20809  0.34947  1.0000
  H   H2604     1.0  0.85111  0.16759  0.36797  1.0000
  H   H2605     1.0  0.83016  0.15626  0.37082  1.0000
  H   H2606     1.0  0.79735  0.17353  0.38245  1.0000
  H   H2607     1.0  0.78962  0.20051  0.37734  1.0000
  H   H2608     1.0  0.83611  0.16007  0.39967  1.0000
  H   H2609     1.0  0.82837  0.17774  0.41449  1.0000
  H   H2610     1.0  0.80913  0.17045  0.40792  1.0000
  H   H2611     1.0  0.81783  0.24047  0.34229  1.0000
  H   H2612     1.0  0.79756  0.22961  0.35879  1.0000
  H   H2613     1.0  0.81869  0.23292  0.36661  1.0000
  H   H2614     1.0  0.85327  0.15309  0.34108  1.0000
  H   H2615     1.0  0.85488  0.17930  0.33431  1.0000
  H   H2616     1.0  0.83186  0.17205  0.33450  1.0000
  H   H2617     1.0  0.79391  0.19998  0.34277  1.0000
  H   H2618     1.0  0.77609  0.18583  0.35915  1.0000
  H   H2619     1.0  0.80052  0.17214  0.34944  1.0000
  H   H2620     1.0  0.98383  0.20191  0.32902  1.0000
  H   H2621     1.0  0.78803  0.31034  0.40655  1.0000
  C   C1524     1.0  0.51877  0.08993  0.32182  1.0000
  H   H2622     1.0  0.49953  0.07626  0.34667  1.0000
  H   H2623     1.0  0.79356  0.27700  0.35985  1.0000
  H   H2624     1.0  0.74438  0.32263  0.45457  1.0000
  C   C1525     1.0  0.86552  0.29595  0.44447  1.0000
  H   H2625     1.0  0.98598  0.04392  0.25451  1.0000
  H   H2626     1.0  0.96671  0.08288  0.34721  1.0000
  H   H2627     1.0  0.93027  0.03710  0.26435  1.0000
  C   C1526     1.0  0.83155  0.25831  0.48096  1.0000
  C   C1527     1.0  0.94415  0.20728  0.34859  1.0000
  H   H2628     1.0  0.82024  0.27614  0.35582  1.0000
  C   C1528     1.0  0.93317  0.02765  0.25380  1.0000
  H   H2629     1.0  0.80313  0.28936  0.38350  1.0000
  C   C1529     1.0  0.95182  0.13984  0.36447  1.0000
  N   N110      1.0  0.89964  0.04022  0.24162  1.0000
  H   H2630     1.0  0.52716  0.09390  0.33043  1.0000
  H   H2631     1.0  0.96475  0.14076  0.24676  1.0000
  H   H2632     1.0  0.93913  0.18565  0.31805  1.0000
  N   N111      1.0  0.99301  0.04824  0.32664  1.0000
  C   C1530     1.0  0.83391  0.30980  0.35606  1.0000
  H   H2633     1.0  0.79973  0.30899  0.43666  1.0000
  C   C1531     1.0  0.81195  0.31174  0.44170  1.0000
  C   C1532     1.0  0.99195  0.18604  0.32835  1.0000
  S   S440      1.0  0.81697  0.26392  0.42488  1.0000
  C   C1533     1.0  0.94277  0.18481  0.35187  1.0000
  H   H2634     1.0  0.70252  0.30274  0.34749  1.0000
  C   C1534     1.0  0.86244  0.32080  0.40880  1.0000
  H   H2635     1.0  0.95940  0.15689  0.30480  1.0000
  H   H2636     1.0  0.87214  0.02987  0.25860  1.0000
  C   C1535     1.0  0.96736  0.16913  0.30384  1.0000
  H   H2637     1.0  0.96548  0.13950  0.36952  1.0000
  H   H2638     1.0  0.86404  0.07568  0.24605  1.0000
  H   H2639     1.0  0.88757  0.05388  0.26607  1.0000
  C   C1536     1.0  0.86420  0.31701  0.44134  1.0000
  C   C1537     1.0  0.80510  0.28671  0.35569  1.0000
  H   H2640     1.0  0.83539  0.30529  0.34271  1.0000
  C   C1538     1.0  0.88008  0.07766  0.24226  1.0000
  S   S441      1.0  0.82115  0.22555  0.47467  1.0000
  N   N112      1.0  0.95812  0.17236  0.33864  1.0000
  H   H2641     1.0  0.82235  0.31016  0.39141  1.0000
  N   N113      1.0  0.81190  0.31715  0.36528  1.0000
  Fe  Fe220     1.0  0.83018  0.23437  0.44291  1.0000
  C   C1539     1.0  0.89454  0.05829  0.25076  1.0000
  H   H2642     1.0  0.96397  0.02390  0.35018  1.0000
  H   H2643     1.0  0.88003  0.09046  0.24844  1.0000
  H   H2644     1.0  0.98932  0.15495  0.33829  1.0000
  C   C1540     1.0  0.69014  0.31652  0.34523  1.0000
  H   H2645     1.0  0.96731  0.05678  0.36053  1.0000
  C   C1541     1.0  0.76130  0.31982  0.45225  1.0000
  C   C1542     1.0  0.76692  0.32346  0.46931  1.0000
  H   H2646     1.0  0.94132  0.03539  0.23996  1.0000
  H   H2647     1.0  0.86359  0.31805  0.34431  1.0000
  H   H2648     1.0  0.98545  0.03272  0.30893  1.0000
  C   C1543     1.0  0.87983  0.03410  0.24344  1.0000
  H   H2649     1.0  0.98033  0.02009  0.25589  1.0000
  H   H2650     1.0  0.98332  0.16209  0.30532  1.0000
  H   H2651     1.0  0.97551  0.09895  0.24997  1.0000
  H   H2652     1.0  0.98372  0.06816  0.28951  1.0000
  H   H2653     1.0  0.94350  0.01303  0.25879  1.0000
  C   C1544     1.0  0.93240  0.09580  0.24030  1.0000
  H   H2654     1.0  0.99426  0.03348  0.35604  1.0000
  H   H2655     1.0  0.81832  0.31977  0.46447  1.0000
  C   C1545     1.0  0.98850  0.09741  0.23766  1.0000
  H   H2656     1.0  0.49760  0.11251  0.35489  1.0000
  H   H2657     1.0  0.89278  0.32303  0.48661  1.0000
  C   C1546     1.0  0.84804  0.32508  0.35139  1.0000
  C   C1547     1.0  0.79095  0.32527  0.39761  1.0000
  H   H2658     1.0  0.86582  0.01281  0.23774  1.0000
  C   C1548     1.0  0.99541  0.02956  0.34248  1.0000
  H   H2659     1.0  0.93555  0.15090  0.64074  1.0000
  H   H2660     1.0  0.84214  0.10580  0.63171  1.0000
  H   H2661     1.0  0.93865  0.17267  0.64687  1.0000
  Fe  Fe221     1.0  0.57522  0.03435  0.62754  1.0000
  S   S442      1.0  0.56314  0.06762  0.61641  1.0000
  H   H2662     1.0  0.81381  0.29678  0.60412  1.0000
  H   H2663     1.0  0.61439  0.03996  0.65597  1.0000
  C   C1549     1.0  0.84119  0.09159  0.62848  1.0000
  H   H2664     1.0  0.76256  0.25328  0.58512  1.0000
  H   H2665     1.0  0.53300  0.99681  0.67545  1.0000
  C   C1550     1.0  0.86858  0.12122  0.59974  1.0000
  H   H2666     1.0  0.89795  0.22715  0.64115  1.0000
  C   C1551     1.0  0.82880  0.23816  0.48795  1.0000
  C   C1552     1.0  0.89916  0.06728  0.61861  1.0000
  H   H2667     1.0  0.72719  0.27491  0.57512  1.0000
  H   H2668     1.0  0.79673  0.27777  0.53181  1.0000
  H   H2669     1.0  0.89691  0.05463  0.63125  1.0000
  H   H2670     1.0  0.77065  0.32225  0.63445  1.0000
  C   C1553     1.0  0.77171  0.24495  0.57388  1.0000
  H   H2671     1.0  0.78601  0.29867  0.54320  1.0000
  C   C1554     1.0  0.63406  0.04124  0.55993  1.0000
  Fe  Fe222     1.0  0.84614  0.25285  0.55467  1.0000
  S   S443      1.0  0.83114  0.22695  0.57277  1.0000
  S   S444      1.0  0.84072  0.27214  0.52637  1.0000
  Fe  Fe223     1.0  0.86964  0.25098  0.58379  1.0000
  S   S445      1.0  0.85650  0.22542  0.60449  1.0000
  S   S446      1.0  0.89364  0.26373  0.58867  1.0000
  Fe  Fe224     1.0  0.86213  0.21194  0.57934  1.0000
  S   S447      1.0  0.87862  0.17921  0.57930  1.0000
  Fe  Fe225     1.0  0.82691  0.24270  0.59625  1.0000
  S   S448      1.0  0.79853  0.24503  0.61925  1.0000
  S   S449      1.0  0.87750  0.23651  0.55900  1.0000
  S   S450      1.0  0.83952  0.26970  0.57783  1.0000
  Fe  Fe226     1.0  0.94655  0.05750  0.64691  1.0000
  S   S451      1.0  0.94990  0.08940  0.63144  1.0000
  S   S452      1.0  0.94582  0.03530  0.63046  1.0000
  Fe  Fe227     1.0  0.94832  0.06422  0.68434  1.0000
  S   S453      1.0  0.95154  0.09684  0.67239  1.0000
  H   H2672     1.0  0.77843  0.22740  0.54398  1.0000
  Fe  Fe228     1.0  0.92752  0.09885  0.65683  1.0000
  S   S454      1.0  0.90018  0.12508  0.65657  1.0000
  Fe  Fe229     1.0  0.97358  0.08485  0.64812  1.0000
  S   S455      1.0  0.92222  0.06721  0.67110  1.0000
  S   S456      1.0  0.97234  0.05198  0.66127  1.0000
  C   C1555     1.0  0.82405  0.32417  0.58747  1.0000
  C   C1556     1.0  0.60076  0.06692  0.69036  1.0000
  H   H2673     1.0  0.73043  0.24828  0.58745  1.0000
  H   H2674     1.0  0.60824  0.07531  0.65996  1.0000
  H   H2675     1.0  0.53061  0.09837  0.69756  1.0000
  C   C1557     1.0  0.91499  0.01986  0.65807  1.0000
  C   C1558     1.0  0.61103  0.07574  0.55838  1.0000
  H   H2676     1.0  0.79582  0.24323  0.54019  1.0000
  C   C1559     1.0  0.83724  0.25867  0.51132  1.0000
  C   C1560     1.0  0.83522  0.23832  0.51800  1.0000
  C   C1561     1.0  0.83069  0.22820  0.50646  1.0000
  H   H2677     1.0  0.88991  0.00833  0.67863  1.0000
  H   H2678     1.0  0.91594  0.04318  0.60362  1.0000
  S   S457      1.0  0.85766  0.32354  0.64480  1.0000
  H   H2679     1.0  0.83682  0.23043  0.53218  1.0000
  H   H2680     1.0  0.82867  0.21259  0.51186  1.0000
  H   H2681     1.0  0.59738  0.02580  0.54584  1.0000
  H   H2682     1.0  0.92435  0.18526  0.58218  1.0000
  C   C1562     1.0  0.88502  0.16475  0.60076  1.0000
  C   C1563     1.0  0.90206  0.14845  0.60060  1.0000
  C   C1564     1.0  0.90705  0.13630  0.61764  1.0000
  C   C1565     1.0  0.89490  0.14032  0.63491  1.0000
  C   C1566     1.0  0.87791  0.15664  0.63504  1.0000
  C   C1567     1.0  0.87296  0.16883  0.61802  1.0000
  H   H2683     1.0  0.91139  0.14523  0.58725  1.0000
  H   H2684     1.0  0.92022  0.12384  0.61737  1.0000
  H   H2685     1.0  0.86839  0.15975  0.64837  1.0000
  H   H2686     1.0  0.85952  0.18105  0.61829  1.0000
  C   C1568     1.0  0.74028  0.28959  0.60575  1.0000
  C   C1569     1.0  0.75935  0.29312  0.59464  1.0000
  C   C1570     1.0  0.77747  0.27939  0.59843  1.0000
  C   C1571     1.0  0.77648  0.26254  0.61375  1.0000
  C   C1572     1.0  0.75747  0.25946  0.62515  1.0000
  C   C1573     1.0  0.73944  0.27279  0.62102  1.0000
  H   H2687     1.0  0.76016  0.30628  0.58304  1.0000
  H   H2688     1.0  0.79214  0.28196  0.58968  1.0000
  H   H2689     1.0  0.75665  0.24650  0.63704  1.0000
  H   H2690     1.0  0.72478  0.27003  0.62971  1.0000
  H   H2691     1.0  0.87747  0.21474  0.64445  1.0000
  H   H2692     1.0  0.93925  0.00286  0.61781  1.0000
  C   C1574     1.0  0.88067  0.09308  0.63664  1.0000
  H   H2693     1.0  0.53187  0.07133  0.65232  1.0000
  C   C1575     1.0  0.86779  0.30678  0.62932  1.0000
  C   C1576     1.0  0.86368  0.28707  0.63471  1.0000
  C   C1577     1.0  0.87100  0.27400  0.62199  1.0000
  C   C1578     1.0  0.88319  0.28033  0.60420  1.0000
  C   C1579     1.0  0.88764  0.29986  0.59898  1.0000
  H   H2694     1.0  0.89120  0.32576  0.66372  1.0000
  H   H2695     1.0  0.85465  0.28199  0.64862  1.0000
  H   H2696     1.0  0.86763  0.25886  0.62609  1.0000
  H   H2697     1.0  0.89717  0.30473  0.58527  1.0000
  H   H2698     1.0  0.61111  0.07707  0.57276  1.0000
  H   H2699     1.0  0.54530  0.10084  0.64389  1.0000
  C   C1580     1.0  0.50625  0.06210  0.61774  1.0000
  C   C1581     1.0  0.55257  0.11666  0.66118  1.0000
  H   H2700     1.0  0.99011  0.08256  0.59161  1.0000
  H   H2701     1.0  0.62951  0.09901  0.54956  1.0000
  C   C1582     1.0  0.59727  0.04484  0.57336  1.0000
  H   H2702     1.0  0.85270  0.30801  0.70733  1.0000
  H   H2703     1.0  0.92291  0.17151  0.61289  1.0000
  H   H2704     1.0  0.88939  0.28081  0.54602  1.0000
  H   H2705     1.0  0.83173  0.09610  0.61770  1.0000
  H   H2706     1.0  0.82034  0.27429  0.63254  1.0000
  H   H2707     1.0  0.94735  0.20360  0.58717  1.0000
  C   C1583     1.0  0.91573  0.09785  0.73374  1.0000
  C   C1584     1.0  0.53739  0.07313  0.61508  1.0000
  C   C1585     1.0  0.52716  0.05741  0.61784  1.0000
  H   H2708     1.0  0.93304  0.20678  0.63833  1.0000
  H   H2709     1.0  0.96683  0.18982  0.61969  1.0000
  C   C1586     1.0  0.76609  0.27699  0.55036  1.0000
  C   C1587     1.0  0.52673  0.09351  0.61218  1.0000
  H   H2710     1.0  0.53529  0.04163  0.62021  1.0000
  H   H2711     1.0  0.50306  0.10213  0.64964  1.0000
  H   H2712     1.0  0.89983  0.10593  0.60062  1.0000
  H   H2713     1.0  0.53457  0.10570  0.61019  1.0000
  C   C1588     1.0  0.50145  0.08845  0.66126  1.0000
  H   H2714     1.0  0.59836  0.04680  0.58717  1.0000
  H   H2715     1.0  0.89352  0.30483  0.54572  1.0000
  H   H2716     1.0  0.82146  0.30484  0.64391  1.0000
  H   H2717     1.0  0.87435  0.13213  0.58669  1.0000
  C   C1589     1.0  0.61018  0.04283  0.66999  1.0000
  C   C1590     1.0  0.61039  0.05353  0.53851  1.0000
  C   C1591     1.0  0.80739  0.28124  0.64281  1.0000
  H   H2718     1.0  0.50931  0.10771  0.68687  1.0000
  H   H2719     1.0  0.52399  0.11679  0.65580  1.0000
  C   C1592     1.0  0.92965  0.16763  0.63963  1.0000
  H   H2720     1.0  0.86448  0.01946  0.72678  1.0000
  H   H2721     1.0  0.75712  0.28428  0.56229  1.0000
  H   H2722     1.0  0.57105  0.00120  0.72265  1.0000
  H   H2723     1.0  0.89660  0.22254  0.61139  1.0000
  C   C1593     1.0  0.53820  0.10514  0.65782  1.0000
  C   C1594     1.0  0.78188  0.31953  0.62119  1.0000
  H   H2724     1.0  0.62066  0.09533  0.53055  1.0000
  H   H2725     1.0  0.51906  0.06144  0.67507  1.0000
  H   H2726     1.0  0.83243  0.08288  0.64144  1.0000
  H   H2727     1.0  0.86014  0.32042  0.49958  1.0000
  C   C1595     1.0  0.74368  0.25307  0.55670  1.0000
  C   C1596     1.0  0.77960  0.24374  0.54049  1.0000
  C   C1597     1.0  0.60799  0.02667  0.68578  1.0000
  H   H2728     1.0  0.62286  0.05927  0.52703  1.0000
  H   H2729     1.0  0.71226  0.25889  0.57281  1.0000
  C   C1598     1.0  0.77610  0.25265  0.52020  1.0000
  C   C1599     1.0  0.86202  0.07785  0.62142  1.0000
  C   C1600     1.0  0.86715  0.30577  0.53345  1.0000
  S   S458      1.0  0.57514  0.00965  0.61391  1.0000
  H   H2730     1.0  0.54787  0.12011  0.67543  1.0000
  H   H2731     1.0  0.85951  0.07567  0.65886  1.0000
  H   H2732     1.0  0.55225  0.13152  0.65076  1.0000
  N   N114      1.0  0.76530  0.25463  0.55534  1.0000
  H   H2733     1.0  0.98972  0.01671  0.60694  1.0000
  C   C1601     1.0  0.92881  0.01849  0.64080  1.0000
  H   H2734     1.0  0.52353  0.14112  0.70555  1.0000
  C   C1602     1.0  0.96022  0.20646  0.61658  1.0000
  C   C1603     1.0  0.93664  0.21122  0.62266  1.0000
  H   H2735     1.0  0.90228  0.30312  0.50538  1.0000
  H   H2736     1.0  0.86159  0.07554  0.60752  1.0000
  H   H2737     1.0  0.92341  0.08791  0.70762  1.0000
  H   H2738     1.0  0.94814  0.17343  0.61145  1.0000
  C   C1604     1.0  0.61023  0.03233  0.53588  1.0000
  H   H2739     1.0  0.63431  0.02468  0.56239  1.0000
  Fe  Fe230     1.0  0.60788  0.99883  0.61602  1.0000
  H   H2740     1.0  0.60824  0.03392  0.52140  1.0000
  H   H2741     1.0  0.63066  0.04111  0.58993  1.0000
  C   C1605     1.0  0.64174  0.04382  0.57627  1.0000
  N   N115      1.0  0.61320  0.05386  0.55752  1.0000
  H   H2742     1.0  0.57002  0.07020  0.57247  1.0000
  H   H2743     1.0  0.85450  0.11845  0.59763  1.0000
  H   H2744     1.0  0.79285  0.27877  0.64138  1.0000
  H   H2745     1.0  0.87225  0.29559  0.56227  1.0000
  H   H2746     1.0  0.59607  0.06425  0.53532  1.0000
  H   H2747     1.0  0.56870  0.10807  0.65888  1.0000
  H   H2748     1.0  0.56467  0.04575  0.58409  1.0000
  C   C1606     1.0  0.59900  0.05075  0.70626  1.0000
  C   C1607     1.0  0.90399  0.05738  0.60148  1.0000
  H   H2749     1.0  0.64600  0.04414  0.54679  1.0000
  C   C1608     1.0  0.62662  0.08744  0.54353  1.0000
  C   C1609     1.0  0.57476  0.05383  0.57180  1.0000
  C   C1610     1.0  0.83552  0.26865  0.49274  1.0000
  H   H2750     1.0  0.62486  0.02125  0.53727  1.0000
  H   H2751     1.0  0.98257  0.05042  0.61356  1.0000
  N   N116      1.0  0.88112  0.08518  0.61976  1.0000
  H   H2752     1.0  0.51179  0.07797  0.71995  1.0000
  C   C1611     1.0  0.88136  0.29659  0.54755  1.0000
  H   H2753     1.0  0.74292  0.23738  0.55643  1.0000
  H   H2754     1.0  0.96568  0.21331  0.60145  1.0000
  H   H2755     1.0  0.91056  0.06734  0.58816  1.0000
  H   H2756     1.0  0.90032  0.20021  0.65200  1.0000
  H   H2757     1.0  0.57148  0.05165  0.55902  1.0000
  H   H2758     1.0  0.89589  0.09621  0.63562  1.0000
  C   C1612     1.0  0.60682  0.06285  0.67227  1.0000
  C   C1613     1.0  0.78758  0.28194  0.54526  1.0000
  H   H2759     1.0  0.65609  0.03227  0.57784  1.0000
  S   S459      1.0  0.59389  0.09244  0.69264  1.0000
  H   H2760     1.0  0.54337  0.04308  0.68803  1.0000
  H   H2761     1.0  0.64175  0.07759  0.53943  1.0000
  Fe  Fe231     1.0  0.59879  0.00531  0.65615  1.0000
  C   C1614     1.0  0.50576  0.14812  0.68434  1.0000
  C   C1615     1.0  0.87495  0.07887  0.65615  1.0000
  C   C1616     1.0  0.87968  0.31319  0.61141  1.0000
  S   S460      1.0  0.60861  0.02491  0.62761  1.0000
  H   H2762     1.0  0.88703  0.09555  0.58923  1.0000
  H   H2763     1.0  0.87017  0.10809  0.63718  1.0000
  S   S461      1.0  0.55807  0.12646  0.72726  1.0000
  H   H2764     1.0  0.89446  0.19663  0.62006  1.0000
  C   C1617     1.0  0.93193  0.17835  0.61862  1.0000
  H   H2765     1.0  0.78756  0.24628  0.57281  1.0000
  C   C1618     1.0  0.77165  0.22194  0.58149  1.0000
  H   H2766     1.0  0.60126  0.01815  0.71624  1.0000
  H   H2767     1.0  0.77867  0.26848  0.51463  1.0000
  H   H2768     1.0  0.92771  0.22592  0.58917  1.0000
  H   H2769     1.0  0.90261  0.20593  0.58643  1.0000
  C   C1619     1.0  0.93079  0.20885  0.59302  1.0000
  C   C1620     1.0  0.90256  0.20805  0.62087  1.0000
  S   S462      1.0  0.56523  0.01693  0.65710  1.0000
  C   C1621     1.0  0.72771  0.25918  0.57408  1.0000
  N   N117      1.0  0.92548  0.20137  0.61424  1.0000
  H   H2770     1.0  0.93565  0.01066  0.71579  1.0000
  N   N118      1.0  0.80346  0.31832  0.62247  1.0000
  H   H2771     1.0  0.64534  0.05912  0.57347  1.0000
  C   C1622     1.0  0.60297  0.03056  0.70396  1.0000
  H   H2772     1.0  0.98552  0.06073  0.72336  1.0000
  H   H2773     1.0  0.85167  0.30331  0.54149  1.0000
  H   H2774     1.0  0.60001  0.02801  0.57493  1.0000
  H   H2775     1.0  0.91338  0.16952  0.64717  1.0000
  H   H2776     1.0  0.91502  0.03093  0.66561  1.0000
  H   H2777     1.0  0.59574  0.08489  0.55622  1.0000
  C   C1623     1.0  0.88516  0.10144  0.60199  1.0000
  H   H2778     1.0  0.90810  0.31885  0.67938  1.0000
  H   H2779     1.0  0.80967  0.27256  0.65710  1.0000
  H   H2780     1.0  0.79629  0.27461  0.55651  1.0000
  N   N119      1.0  0.53336  0.08661  0.67305  1.0000
  C   C1624     1.0  0.55807  0.00364  0.71592  1.0000
  C   C1625     1.0  0.52217  0.07596  0.66548  1.0000
  C   C1626     1.0  0.55337  0.07273  0.67628  1.0000
  C   C1627     1.0  0.88009  0.00957  0.72432  1.0000
  C   C1628     1.0  0.52083  0.09372  0.69071  1.0000
  H   H2781     1.0  0.87478  0.08662  0.66727  1.0000
  C   C1629     1.0  0.55215  0.05252  0.69091  1.0000
  H   H2782     1.0  0.54730  0.01768  0.71953  1.0000
  H   H2783     1.0  0.98863  0.10926  0.66798  1.0000
  C   C1630     1.0  0.89685  0.04533  0.71791  1.0000
  H   H2784     1.0  0.83385  0.30248  0.61088  1.0000
  H   H2785     1.0  0.93141  0.22821  0.61909  1.0000
  H   H2786     1.0  0.56316  0.06897  0.66271  1.0000
  H   H2787     1.0  0.56208  0.08045  0.68147  1.0000
  C   C1631     1.0  0.92860  0.00399  0.63118  1.0000
  H   H2788     1.0  0.87149  0.29567  0.52319  1.0000
  S   S463      1.0  0.94927  0.04755  0.71435  1.0000
  H   H2789     1.0  0.91344  0.07174  0.61856  1.0000
  H   H2790     1.0  0.88752  0.01633  0.70975  1.0000
  H   H2791     1.0  0.86491  0.12923  0.61142  1.0000
  S   S464      1.0  0.60899  0.00222  0.68280  1.0000
  H   H2792     1.0  0.76067  0.25212  0.51917  1.0000
  H   H2793     1.0  0.56779  0.04319  0.69033  1.0000
  C   C1632     1.0  0.81886  0.30944  0.60674  1.0000
  C   C1633     1.0  0.92505  0.08380  0.72209  1.0000
  H   H2794     1.0  0.56362  0.00659  0.70036  1.0000
  H   H2795     1.0  0.78671  0.21250  0.57610  1.0000
  H   H2796     1.0  0.59435  0.05383  0.72028  1.0000
  C   C1634     1.0  0.89442  0.21261  0.64083  1.0000
  C   C1635     1.0  0.91946  0.20191  0.58170  1.0000
  H   H2797     1.0  0.91042  0.03856  0.70820  1.0000
  H   H2798     1.0  0.78012  0.30450  0.62017  1.0000
  H   H2799     1.0  0.75954  0.21714  0.57791  1.0000
  H   H2800     1.0  0.76854  0.21845  0.59720  1.0000
  S   S465      1.0  0.71720  0.30541  0.60065  1.0000
  Fe  Fe232     1.0  0.57511  0.09578  0.72136  1.0000
  H   H2801     1.0  0.79466  0.30875  0.65306  1.0000
  C   C1636     1.0  0.90084  0.00700  0.66547  1.0000
  H   H2802     1.0  0.88627  0.06425  0.65804  1.0000
  H   H2803     1.0  0.96647  0.21347  0.62474  1.0000
  H   H2804     1.0  0.54643  0.05515  0.70547  1.0000
  H   H2805     1.0  0.78724  0.24318  0.51065  1.0000
  H   H2806     1.0  0.73792  0.26303  0.54409  1.0000
  H   H2807     1.0  0.86232  0.06243  0.63108  1.0000
  H   H2808     1.0  0.89058  0.05279  0.59994  1.0000
  H   H2809     1.0  0.92322  0.20983  0.56660  1.0000
  H   H2810     1.0  0.51727  0.15458  0.67308  1.0000
  C   C1637     1.0  0.80683  0.30407  0.64103  1.0000
  H   H2811     1.0  0.75863  0.28545  0.53832  1.0000
  H   H2812     1.0  0.49748  0.11388  0.61085  1.0000
  C   C1638     1.0  0.93645  0.06466  0.72918  1.0000
  C   C1639     1.0  0.50572  0.09815  0.61260  1.0000
  C   C1640     1.0  0.50861  0.07887  0.70611  1.0000
  H   H2813     1.0  0.83399  0.31509  0.57708  1.0000
  C   C1641     1.0  0.89975  0.31975  0.49898  1.0000
  H   H2814     1.0  0.49837  0.04991  0.61990  1.0000
  S   S466      1.0  0.54827  0.08074  0.73389  1.0000
  H   H2815     1.0  0.89964  0.05981  0.71920  1.0000
  H   H2816     1.0  0.99492  0.01943  0.63581  1.0000
  H   H2817     1.0  0.88326  0.04967  0.71154  1.0000
  H   H2818     1.0  0.51195  0.06308  0.70420  1.0000
  H   H2819     1.0  0.80213  0.30952  0.49930  1.0000
  H   H2820     1.0  0.91951  0.00278  0.70522  1.0000
  H   H2821     1.0  0.98248  0.00844  0.70990  1.0000
  C   C1642     1.0  0.78739  0.32076  0.50115  1.0000
  C   C1643     1.0  0.50935  0.14045  0.70271  1.0000
  C   C1644     1.0  0.92698  0.99884  0.71728  1.0000
  H   H2822     1.0  0.90737  0.11284  0.72809  1.0000
  H   H2823     1.0  0.99482  0.06310  0.57890  1.0000
  H   H2824     1.0  0.91503  0.32382  0.49345  1.0000
  H   H2825     1.0  0.83737  0.28433  0.48744  1.0000
  H   H2826     1.0  0.87247  0.30540  0.68674  1.0000
  H   H2827     1.0  0.77439  0.31286  0.50558  1.0000
  C   C1645     1.0  0.86154  0.31678  0.69448  1.0000
  H   H2828     1.0  0.88411  0.31868  0.70825  1.0000
  H   H2829     1.0  0.82735  0.31912  0.52546  1.0000
  H   H2830     1.0  0.50041  0.00229  0.69898  1.0000
  C   C1646     1.0  0.91220  0.99560  0.73678  1.0000
  H   H2831     1.0  0.49753  0.32557  0.59859  1.0000
  N   N120      1.0  0.69802  0.23127  0.85055  1.0000
  H   H2832     1.0  0.56902  0.27300  0.95803  1.0000
  Fe  Fe233     1.0  0.56844  0.11474  0.75479  1.0000
  S   S467      1.0  0.54083  0.10138  0.77043  1.0000
  S   S468      1.0  0.58344  0.13335  0.76519  1.0000
  Fe  Fe234     1.0  0.55913  0.07278  0.76079  1.0000
  S   S469      1.0  0.56076  0.04228  0.78138  1.0000
  C   C1647     1.0  0.55053  0.09856  0.96938  1.0000
  S   S470      1.0  0.58763  0.08521  0.74752  1.0000
  C   C1648     1.0  0.92840  0.07325  0.75980  1.0000
  H   H2833     1.0  0.99065  0.10918  0.85951  1.0000
  Fe  Fe235     1.0  0.59394  0.13018  0.86551  1.0000
  S   S471      1.0  0.58143  0.15674  0.87988  1.0000
  S   S472      1.0  0.57244  0.12053  0.85350  1.0000
  Fe  Fe236     1.0  0.63549  0.12174  0.87478  1.0000
  S   S473      1.0  0.62653  0.14774  0.88940  1.0000
  S   S474      1.0  0.66703  0.10226  0.87525  1.0000
  Fe  Fe237     1.0  0.59744  0.13675  0.90260  1.0000
  S   S475      1.0  0.58508  0.13657  0.93345  1.0000
  Fe  Fe238     1.0  0.61158  0.16557  0.86551  1.0000
  S   S476      1.0  0.61408  0.19843  0.85234  1.0000
  S   S477      1.0  0.60727  0.10924  0.88980  1.0000
  S   S478      1.0  0.62312  0.14052  0.84929  1.0000
  Fe  Fe239     1.0  0.77278  0.17300  0.90048  1.0000
  S   S479      1.0  0.74489  0.16531  0.92152  1.0000
  S   S480      1.0  0.77910  0.20433  0.89472  1.0000
  Fe  Fe240     1.0  0.78565  0.13138  0.89009  1.0000
  S   S481      1.0  0.75832  0.12031  0.91030  1.0000
  S   S482      1.0  0.80691  0.11342  0.86907  1.0000
  Fe  Fe241     1.0  0.74083  0.15164  0.89952  1.0000
  S   S483      1.0  0.71133  0.16266  0.88981  1.0000
  Fe  Fe242     1.0  0.76525  0.13509  0.93023  1.0000
  S   S484      1.0  0.76248  0.12159  0.96138  1.0000
  S   S485      1.0  0.76744  0.16160  0.87778  1.0000
  S   S486      1.0  0.79400  0.14379  0.91079  1.0000
  C   C1649     1.0  0.72031  0.23723  0.90357  1.0000
  S   S487      1.0  0.65475  0.31507  0.90130  1.0000
  C   C1650     1.0  0.71570  0.09183  0.94948  1.0000
  Fe  Fe243     1.0  0.92476  0.10113  0.79007  1.0000
  S   S488      1.0  0.91452  0.07793  0.81574  1.0000
  S   S489      1.0  0.90813  0.11099  0.76651  1.0000
  Fe  Fe244     1.0  0.96107  0.10356  0.80333  1.0000
  S   S490      1.0  0.95416  0.08023  0.83021  1.0000
  H   H2834     1.0  0.67410  0.23593  0.87528  1.0000
  Fe  Fe245     1.0  0.94773  0.06306  0.81213  1.0000
  S   S491      1.0  0.95985  0.02911  0.81588  1.0000
  Fe  Fe246     1.0  0.92153  0.09714  0.83158  1.0000
  S   S492      1.0  0.90205  0.10238  0.85985  1.0000
  S   S493      1.0  0.95762  0.08479  0.78509  1.0000
  S   S494      1.0  0.92887  0.12205  0.80605  1.0000
  H   H2835     1.0  0.72822  0.07958  0.94443  1.0000
  C   C1651     1.0  0.77881  0.15312  0.96192  1.0000
  H   H2836     1.0  0.99538  0.05205  0.82569  1.0000
  Fe  Fe247     1.0  0.64141  0.30790  0.88061  1.0000
  N   N121      1.0  0.72856  0.21886  0.97121  1.0000
  C   C1652     1.0  0.52703  0.01499  0.76336  1.0000
  H   H2837     1.0  0.78209  0.15614  0.94668  1.0000
  C   C1653     1.0  0.98917  0.11368  0.83039  1.0000
  H   H2838     1.0  0.92046  0.99705  0.74686  1.0000
  H   H2839     1.0  0.56773  0.11916  0.97147  1.0000
  C   C1654     1.0  0.83326  0.11020  0.86686  1.0000
  C   C1655     1.0  0.84123  0.10977  0.88210  1.0000
  C   C1656     1.0  0.86244  0.10727  0.87985  1.0000
  C   C1657     1.0  0.87564  0.10542  0.86233  1.0000
  C   C1658     1.0  0.86764  0.10591  0.84711  1.0000
  C   C1659     1.0  0.84649  0.10809  0.84944  1.0000
  H   H2840     1.0  0.83108  0.11121  0.89563  1.0000
  H   H2841     1.0  0.86862  0.10685  0.89166  1.0000
  H   H2842     1.0  0.87768  0.10475  0.83349  1.0000
  H   H2843     1.0  0.84033  0.10851  0.83761  1.0000
  S   S495      1.0  0.49900  0.12138  0.74026  1.0000
  H   H2844     1.0  0.68474  0.26489  0.82160  1.0000
  H   H2845     1.0  0.74046  0.21868  0.83855  1.0000
  H   H2846     1.0  0.65683  0.18883  0.96307  1.0000
  C   C1660     1.0  0.71732  0.23055  0.95567  1.0000
  H   H2847     1.0  0.73521  0.20680  0.89916  1.0000
  C   C1661     1.0  0.61411  0.21104  0.86962  1.0000
  C   C1662     1.0  0.61986  0.23007  0.86432  1.0000
  C   C1663     1.0  0.62110  0.23946  0.87818  1.0000
  C   C1664     1.0  0.61656  0.22979  0.89732  1.0000
  C   C1665     1.0  0.61010  0.21122  0.90257  1.0000
  C   C1666     1.0  0.60887  0.20190  0.88879  1.0000
  H   H2848     1.0  0.62369  0.23734  0.84951  1.0000
  H   H2849     1.0  0.60614  0.20389  0.91735  1.0000
  H   H2850     1.0  0.60371  0.18764  0.89309  1.0000
  C   C1667     1.0  0.68160  0.11805  0.87766  1.0000
  C   C1668     1.0  0.67668  0.13899  0.87013  1.0000
  C   C1669     1.0  0.68634  0.15231  0.87360  1.0000
  C   C1670     1.0  0.70130  0.14487  0.88436  1.0000
  C   C1671     1.0  0.70699  0.12376  0.89131  1.0000
  C   C1672     1.0  0.69709  0.11030  0.88795  1.0000
  H   H2851     1.0  0.66515  0.14501  0.86176  1.0000
  H   H2852     1.0  0.68194  0.16839  0.86796  1.0000
  H   H2853     1.0  0.71851  0.11786  0.89968  1.0000
  H   H2854     1.0  0.70092  0.09405  0.89380  1.0000
  H   H2855     1.0  0.79227  0.17738  0.96244  1.0000
  H   H2856     1.0  0.51606  0.06825  0.78233  1.0000
  H   H2857     1.0  0.52639  0.06476  0.81162  1.0000
  C   C1673     1.0  0.60592  0.12958  0.94438  1.0000
  C   C1674     1.0  0.62436  0.11766  0.93663  1.0000
  C   C1675     1.0  0.64098  0.11205  0.94542  1.0000
  C   C1676     1.0  0.64661  0.31052  0.95783  1.0000
  H   H2858     1.0  0.71741  0.10619  0.93872  1.0000
  H   H2859     1.0  0.62585  0.11268  0.92385  1.0000
  H   H2860     1.0  0.65528  0.10305  0.93917  1.0000
  H   H2861     1.0  0.89487  0.02119  0.80795  1.0000
  H   H2862     1.0  0.92950  0.06899  0.77443  1.0000
  H   H2863     1.0  0.66891  0.27157  0.84345  1.0000
  C   C1677     1.0  0.94193  0.01511  0.81660  1.0000
  C   C1678     1.0  0.92362  0.02486  0.81075  1.0000
  C   C1679     1.0  0.76912  0.13709  0.97266  1.0000
  H   H2864     1.0  0.92062  0.04111  0.80499  1.0000
  C   C1680     1.0  0.58017  0.12993  0.78969  1.0000
  C   C1681     1.0  0.56180  0.12620  0.80203  1.0000
  C   C1682     1.0  0.55955  0.12359  0.82158  1.0000
  C   C1683     1.0  0.57571  0.12443  0.82890  1.0000
  C   C1684     1.0  0.59417  0.12792  0.81656  1.0000
  C   C1685     1.0  0.59630  0.13091  0.79698  1.0000
  H   H2865     1.0  0.54926  0.12556  0.79649  1.0000
  H   H2866     1.0  0.54526  0.12084  0.83109  1.0000
  H   H2867     1.0  0.60685  0.12809  0.82212  1.0000
  H   H2868     1.0  0.61061  0.13360  0.78746  1.0000
  C   C1686     1.0  0.70000  0.25334  0.84589  1.0000
  C   C1687     1.0  0.52839  0.99582  0.77586  1.0000
  C   C1688     1.0  0.53760  0.02913  0.76439  1.0000
  C   C1689     1.0  0.54912  0.02430  0.77820  1.0000
  C   C1690     1.0  0.83820  0.04725  0.88411  1.0000
  H   H2869     1.0  0.56663  0.21465  0.84348  1.0000
  C   C1691     1.0  0.69383  0.23356  0.96129  1.0000
  H   H2870     1.0  0.89243  0.99585  0.85794  1.0000
  N   N122      1.0  0.66717  0.17769  0.93695  1.0000
  C   C1692     1.0  0.68871  0.17259  0.94007  1.0000
  C   C1693     1.0  0.66501  0.19754  0.92244  1.0000
  C   C1694     1.0  0.66455  0.16069  0.92954  1.0000
  C   C1695     1.0  0.65261  0.17921  0.95572  1.0000
  C   C1696     1.0  0.89295  0.03122  0.73772  1.0000
  C   C1697     1.0  0.66718  0.21624  0.92836  1.0000
  C   C1698     1.0  0.64743  0.16542  0.91875  1.0000
  C   C1699     1.0  0.62962  0.18678  0.95577  1.0000
  H   H2871     1.0  0.69993  0.17534  0.92635  1.0000
  H   H2872     1.0  0.55564  0.10482  0.95400  1.0000
  H   H2873     1.0  0.65015  0.20178  0.91818  1.0000
  H   H2874     1.0  0.67661  0.19586  0.90913  1.0000
  H   H2875     1.0  0.67872  0.15518  0.91957  1.0000
  H   H2876     1.0  0.66216  0.14715  0.94119  1.0000
  H   H2877     1.0  0.68872  0.21887  0.96498  1.0000
  H   H2878     1.0  0.62229  0.17375  0.95782  1.0000
  H   H2879     1.0  0.59858  0.06321  0.84937  1.0000
  H   H2880     1.0  0.83742  0.03117  0.89124  1.0000
  H   H2881     1.0  0.58997  0.14529  0.96684  1.0000
  H   H2882     1.0  0.66535  0.22982  0.91654  1.0000
  H   H2883     1.0  0.65503  0.21978  0.94078  1.0000
  H   H2884     1.0  0.68246  0.21435  0.93118  1.0000
  H   H2885     1.0  0.64674  0.15088  0.91584  1.0000
  H   H2886     1.0  0.65086  0.17597  0.90478  1.0000
  H   H2887     1.0  0.63213  0.17129  0.92684  1.0000
  H   H2888     1.0  0.72092  0.19138  0.95546  1.0000
  H   H2889     1.0  0.62630  0.19826  0.94299  1.0000
  H   H2890     1.0  0.65374  0.30672  0.94422  1.0000
  N   N123      1.0  0.57833  0.19428  0.81208  1.0000
  C   C1700     1.0  0.60063  0.19531  0.80512  1.0000
  C   C1701     1.0  0.56602  0.21533  0.81399  1.0000
  C   C1702     1.0  0.57087  0.18725  0.79845  1.0000
  C   C1703     1.0  0.57575  0.17923  0.83086  1.0000
  C   C1704     1.0  0.61531  0.17585  0.79959  1.0000
  C   C1705     1.0  0.57466  0.19940  0.77776  1.0000
  C   C1706     1.0  0.55348  0.17777  0.84115  1.0000
  H   H2891     1.0  0.60287  0.20835  0.79280  1.0000
  H   H2892     1.0  0.60648  0.19844  0.81614  1.0000
  C   C1707     1.0  0.94608  0.99383  0.82310  1.0000
  H   H2893     1.0  0.73893  0.05342  0.96786  1.0000
  H   H2894     1.0  0.57766  0.17084  0.79848  1.0000
  H   H2895     1.0  0.55409  0.18810  0.80290  1.0000
  H   H2896     1.0  0.58381  0.16354  0.82921  1.0000
  H   H2897     1.0  0.58310  0.18262  0.84068  1.0000
  H   H2898     1.0  0.63115  0.17857  0.79480  1.0000
  H   H2899     1.0  0.61542  0.16263  0.81176  1.0000
  H   H2900     1.0  0.61185  0.17177  0.78778  1.0000
  H   H2901     1.0  0.67523  0.30408  0.96639  1.0000
  H   H2902     1.0  0.56925  0.19212  0.76916  1.0000
  H   H2903     1.0  0.61814  0.27735  0.96840  1.0000
  H   H2904     1.0  0.99232  0.06329  0.85247  1.0000
  H   H2905     1.0  0.54453  0.19218  0.84541  1.0000
  H   H2906     1.0  0.55363  0.16568  0.85433  1.0000
  H   H2907     1.0  0.54546  0.17314  0.83271  1.0000
  S   S496      1.0  0.61970  0.23979  0.91510  1.0000
  C   C1708     1.0  0.71338  0.21901  0.86239  1.0000
  H   H2908     1.0  0.71311  0.20255  0.86648  1.0000
  H   H2909     1.0  0.71354  0.23170  0.82142  1.0000
  C   C1709     1.0  0.89769  0.00042  0.86847  1.0000
  C   C1710     1.0  0.67672  0.23019  0.86225  1.0000
  C   C1711     1.0  0.70155  0.22448  0.83234  1.0000
  C   C1712     1.0  0.67121  0.20905  0.86863  1.0000
  C   C1713     1.0  0.70871  0.20121  0.83305  1.0000
  H   H2910     1.0  0.73881  0.23516  0.85408  1.0000
  H   H2911     1.0  0.66488  0.24000  0.85443  1.0000
  H   H2912     1.0  0.68741  0.22993  0.82658  1.0000
  H   H2913     1.0  0.65624  0.20985  0.87880  1.0000
  H   H2914     1.0  0.68214  0.19753  0.87630  1.0000
  H   H2915     1.0  0.66947  0.20399  0.85654  1.0000
  H   H2916     1.0  0.70199  0.19730  0.82307  1.0000
  H   H2917     1.0  0.70421  0.19106  0.84690  1.0000
  H   H2918     1.0  0.72554  0.19711  0.82787  1.0000
  H   H2919     1.0  0.56587  0.21541  0.77635  1.0000
  H   H2920     1.0  0.50620  0.08658  0.80865  1.0000
  H   H2921     1.0  0.71058  0.14935  0.95481  1.0000
  H   H2922     1.0  0.50663  0.07031  0.75595  1.0000
  H   H2923     1.0  0.93625  0.01209  0.77094  1.0000
  C   C1714     1.0  0.60412  0.13580  0.96100  1.0000
  C   C1715     1.0  0.65878  0.30900  0.97040  1.0000
  H   H2924     1.0  0.62352  0.25224  0.96435  1.0000
  H   H2925     1.0  0.59482  0.27597  0.95176  1.0000
  H   H2926     1.0  0.74518  0.27259  0.90485  1.0000
  H   H2927     1.0  0.94639  0.04456  0.75383  1.0000
  Fe  Fe248     1.0  0.62845  0.30422  0.92302  1.0000
  N   N124      1.0  0.89136  0.00963  0.73877  1.0000
  H   H2928     1.0  0.98867  0.00906  0.77208  1.0000
  H   H2929     1.0  0.70065  0.08892  0.94981  1.0000
  H   H2930     1.0  0.87405  0.05927  0.82473  1.0000
  C   C1716     1.0  0.58599  0.25590  0.97984  1.0000
  H   H2931     1.0  0.54932  0.21575  0.81715  1.0000
  C   C1717     1.0  0.57010  0.22413  0.82898  1.0000
  H   H2932     1.0  0.56000  0.23948  0.82921  1.0000
  H   H2933     1.0  0.54159  0.12508  0.98088  1.0000
  C   C1718     1.0  0.63920  0.11826  0.96202  1.0000
  H   H2934     1.0  0.97037  0.01493  0.74969  1.0000
  H   H2935     1.0  0.90524  0.03113  0.74464  1.0000
  H   H2936     1.0  0.89742  0.05552  0.88210  1.0000
  H   H2937     1.0  0.87541  0.99750  0.78835  1.0000
  C   C1719     1.0  0.88613  0.00327  0.77517  1.0000
  C   C1720     1.0  0.93777  0.05927  0.74815  1.0000
  H   H2938     1.0  0.70010  0.13980  0.94069  1.0000
  N   N125      1.0  0.87563  0.03717  0.86607  1.0000
  C   C1721     1.0  0.88082  0.01610  0.87825  1.0000
  C   C1722     1.0  0.86029  0.05072  0.87835  1.0000
  C   C1723     1.0  0.89428  0.04638  0.85741  1.0000
  C   C1724     1.0  0.86717  0.03547  0.85035  1.0000
  C   C1725     1.0  0.62539  0.31713  0.96283  1.0000
  H   H2939     1.0  0.83089  0.05202  0.87179  1.0000
  H   H2940     1.0  0.83441  0.10582  0.98335  1.0000
  C   C1726     1.0  0.86083  0.05572  0.83642  1.0000
  H   H2941     1.0  0.88549  0.01686  0.89097  1.0000
  C   C1727     1.0  0.76195  0.23050  0.95196  1.0000
  H   H2942     1.0  0.85947  0.06718  0.87151  1.0000
  H   H2943     1.0  0.70260  0.06054  0.97309  1.0000
  H   H2944     1.0  0.90488  0.03863  0.84623  1.0000
  H   H2945     1.0  0.72067  0.24618  0.94994  1.0000
  H   H2946     1.0  0.87873  0.02558  0.84144  1.0000
  H   H2947     1.0  0.85422  0.02733  0.85577  1.0000
  H   H2948     1.0  0.70245  0.10575  0.97356  1.0000
  H   H2949     1.0  0.88612  0.01917  0.77531  1.0000
  H   H2950     1.0  0.75943  0.20282  0.97337  1.0000
  C   C1728     1.0  0.50984  0.06963  0.81143  1.0000
  H   H2951     1.0  0.95626  0.99933  0.78322  1.0000
  H   H2952     1.0  0.59526  0.09242  0.97283  1.0000
  H   H2953     1.0  0.86103  0.12839  0.98081  1.0000
  C   C1729     1.0  0.64062  0.25558  0.98227  1.0000
  H   H2954     1.0  0.75314  0.20316  0.95214  1.0000
  C   C1730     1.0  0.55061  0.00504  0.79050  1.0000
  H   H2955     1.0  0.85445  0.06887  0.84327  1.0000
  H   H2956     1.0  0.84844  0.05450  0.83039  1.0000
  N   N126      1.0  0.59930  0.05571  0.81048  1.0000
  C   C1731     1.0  0.60741  0.04006  0.79829  1.0000
  C   C1732     1.0  0.59814  0.07653  0.79734  1.0000
  C   C1733     1.0  0.57817  0.05305  0.82182  1.0000
  C   C1734     1.0  0.61378  0.05191  0.82332  1.0000
  C   C1735     1.0  0.60589  0.01775  0.80841  1.0000
  C   C1736     1.0  0.61860  0.08111  0.78440  1.0000
  C   C1737     1.0  0.56349  0.07170  0.82888  1.0000
  C   C1738     1.0  0.60973  0.06728  0.83593  1.0000
  H   H2957     1.0  0.59933  0.04426  0.78644  1.0000
  H   H2958     1.0  0.62384  0.03965  0.79142  1.0000
  H   H2959     1.0  0.59169  0.08891  0.80514  1.0000
  H   H2960     1.0  0.58728  0.07878  0.78815  1.0000
  H   H2961     1.0  0.56981  0.04890  0.81326  1.0000
  H   H2962     1.0  0.57917  0.04011  0.83436  1.0000
  H   H2963     1.0  0.61367  0.03677  0.83327  1.0000
  H   H2964     1.0  0.63000  0.05043  0.81535  1.0000
  H   H2965     1.0  0.61313  0.00784  0.79804  1.0000
  H   H2966     1.0  0.70862  0.17661  0.97660  1.0000
  H   H2967     1.0  0.58978  0.01593  0.81364  1.0000
  H   H2968     1.0  0.62994  0.08010  0.79263  1.0000
  H   H2969     1.0  0.62507  0.07117  0.77405  1.0000
  H   H2970     1.0  0.61582  0.09703  0.77593  1.0000
  H   H2971     1.0  0.55810  0.08347  0.81695  1.0000
  H   H2972     1.0  0.57020  0.07870  0.83658  1.0000
  H   H2973     1.0  0.54968  0.06681  0.83877  1.0000
  S   S497      1.0  0.98931  0.11698  0.79319  1.0000
  H   H2974     1.0  0.60455  0.08336  0.82899  1.0000
  H   H2975     1.0  0.62433  0.06712  0.83938  1.0000
  N   N127      1.0  0.83748  0.18055  0.85356  1.0000
  C   C1739     1.0  0.82864  0.17939  0.87440  1.0000
  C   C1740     1.0  0.82440  0.19843  0.84274  1.0000
  C   C1741     1.0  0.85916  0.18362  0.84808  1.0000
  C   C1742     1.0  0.83761  0.16066  0.84920  1.0000
  C   C1743     1.0  0.84164  0.16423  0.88800  1.0000
  C   C1744     1.0  0.80312  0.19548  0.84300  1.0000
  C   C1745     1.0  0.86219  0.20268  0.85278  1.0000
  C   C1746     1.0  0.84522  0.15926  0.82820  1.0000
  H   H2976     1.0  0.82534  0.19467  0.87788  1.0000
  H   H2977     1.0  0.81357  0.17489  0.87852  1.0000
  H   H2978     1.0  0.83233  0.20289  0.82771  1.0000
  H   H2979     1.0  0.82163  0.21234  0.84843  1.0000
  H   H2980     1.0  0.86960  0.16995  0.85462  1.0000
  H   H2981     1.0  0.86522  0.18503  0.83258  1.0000
  H   H2982     1.0  0.84787  0.14790  0.85685  1.0000
  H   H2983     1.0  0.82239  0.15631  0.85476  1.0000
  H   H2984     1.0  0.85662  0.16813  0.88611  1.0000
  H   H2985     1.0  0.83328  0.16489  0.90275  1.0000
  H   H2986     1.0  0.84396  0.14824  0.88679  1.0000
  H   H2987     1.0  0.80416  0.18344  0.83554  1.0000
  H   H2988     1.0  0.79397  0.19190  0.85760  1.0000
  H   H2989     1.0  0.79454  0.20996  0.83557  1.0000
  H   H2990     1.0  0.87874  0.20305  0.84853  1.0000
  H   H2991     1.0  0.85734  0.20242  0.86811  1.0000
  H   H2992     1.0  0.85406  0.21703  0.84480  1.0000
  H   H2993     1.0  0.86179  0.15208  0.82519  1.0000
  H   H2994     1.0  0.84281  0.17415  0.81811  1.0000
  H   H2995     1.0  0.83660  0.14972  0.82508  1.0000
  H   H2996     1.0  0.70502  0.23519  0.90517  1.0000
  H   H2997     1.0  0.88974  0.06257  0.85004  1.0000
  C   C1747     1.0  0.90916  0.01350  0.81218  1.0000
  C   C1748     1.0  0.75721  0.22384  0.89857  1.0000
  H   H2998     1.0  0.97415  0.11023  0.83388  1.0000
  H   H2999     1.0  0.62584  0.25395  0.87406  1.0000
  H   H3000     1.0  0.51268  0.04494  0.79828  1.0000
  C   C1749     1.0  0.58140  0.27472  0.96378  1.0000
  C   C1750     1.0  0.94938  0.99884  0.77180  1.0000
  H   H3001     1.0  0.68734  0.24334  0.94904  1.0000
  C   C1751     1.0  0.73738  0.22115  0.90038  1.0000
  H   H3002     1.0  0.86518  0.04895  0.89168  1.0000
  H   H3003     1.0  0.74599  0.20811  0.86155  1.0000
  C   C1752     1.0  0.73974  0.06195  0.97804  1.0000
  H   H3004     1.0  0.70937  0.22374  0.87611  1.0000
  C   C1753     1.0  0.73588  0.22049  0.85337  1.0000
  Fe  Fe249     1.0  0.63280  0.26804  0.90652  1.0000
  S   S498      1.0  0.70265  0.27588  0.91093  1.0000
  S   S499      1.0  0.64560  0.27191  0.92918  1.0000
  C   C1754     1.0  0.70190  0.06494  0.98638  1.0000
  Fe  Fe250     1.0  0.67089  0.28209  0.90582  1.0000
  C   C1755     1.0  0.87879  0.00193  0.75806  1.0000
  H   H3005     1.0  0.71541  0.25516  0.83710  1.0000
  C   C1756     1.0  0.75987  0.24253  0.89993  1.0000
  H   H3006     1.0  0.91382  0.03116  0.87814  1.0000
  H   H3007     1.0  0.57603  0.28923  0.96876  1.0000
  H   H3008     1.0  0.90144  0.99347  0.77609  1.0000
  H   H3009     1.0  0.65395  0.16401  0.96563  1.0000
  H   H3010     1.0  0.69866  0.25848  0.85901  1.0000
  H   H3011     1.0  0.55952  0.00117  0.80117  1.0000
  H   H3012     1.0  0.77507  0.24474  0.89857  1.0000
  H   H3013     1.0  0.72276  0.22337  0.94322  1.0000
  H   H3014     1.0  0.87853  0.03951  0.74565  1.0000
  H   H3015     1.0  0.61409  0.01184  0.82012  1.0000
  C   C1757     1.0  0.91781  0.09275  0.75249  1.0000
  S   S500      1.0  0.61351  0.29977  0.90208  1.0000
  H   H3016     1.0  0.82887  0.05703  0.89417  1.0000
  C   C1758     1.0  0.62044  0.26091  0.97560  1.0000
  C   C1759     1.0  0.72314  0.25581  0.90521  1.0000
  C   C1760     1.0  0.74292  0.25831  0.90346  1.0000
  C   C1761     1.0  0.69633  0.15042  0.95031  1.0000
  H   H3017     1.0  0.59107  0.19923  0.77138  1.0000
  H   H3018     1.0  0.80965  0.12163  0.98330  1.0000
  H   H3019     1.0  0.58606  0.22627  0.82561  1.0000
  C   C1762     1.0  0.50615  0.06167  0.79575  1.0000
  C   C1763     1.0  0.62070  0.13003  0.96988  1.0000
  H   H3020     1.0  0.55923  0.08261  0.97167  1.0000
  C   C1764     1.0  0.68471  0.26908  0.83475  1.0000
  H   H3021     1.0  0.86707  0.00917  0.88390  1.0000
  H   H3022     1.0  0.56906  0.22661  0.80038  1.0000
  C   C1765     1.0  0.72180  0.18430  0.97032  1.0000
  S   S501      1.0  0.65977  0.27552  0.88336  1.0000
  H   H3023     1.0  0.53662  0.04379  0.75469  1.0000
  H   H3024     1.0  0.86256  0.01045  0.75950  1.0000
  H   H3025     1.0  0.62204  0.19469  0.96760  1.0000
  S   S502      1.0  0.61005  0.31893  0.94720  1.0000
  H   H3026     1.0  0.72839  0.24786  0.97697  1.0000
  C   C1766     1.0  0.78447  0.16522  0.97088  1.0000
  H   H3027     1.0  0.69045  0.18270  0.94841  1.0000
  H   H3028     1.0  0.68501  0.14514  0.96301  1.0000
  C   C1767     1.0  0.90675  0.04675  0.87128  1.0000
  H   H3029     1.0  0.68918  0.28417  0.83055  1.0000
  H   H3030     1.0  0.91214  0.00586  0.86169  1.0000
  Fe  Fe251     1.0  0.53208  0.11049  0.74218  1.0000
  H   H3031     1.0  0.91949  0.05466  0.86323  1.0000
  C   C1768     1.0  0.71656  0.09463  0.96886  1.0000
  H   H3032     1.0  0.59103  0.24225  0.97336  1.0000
  C   C1769     1.0  0.72521  0.23250  0.98471  1.0000
  H   H3033     1.0  0.68729  0.24152  0.97313  1.0000
  S   S503      1.0  0.66057  0.11176  0.97222  1.0000
  C   C1770     1.0  0.75092  0.21272  0.96249  1.0000
  H   H3034     1.0  0.64687  0.23885  0.98455  1.0000
  H   H3035     1.0  0.76220  0.23993  0.96153  1.0000
  H   H3036     1.0  0.51795  0.01886  0.75284  1.0000
  H   H3037     1.0  0.72932  0.10261  0.96595  1.0000
  H   H3038     1.0  0.95614  0.00302  0.74162  1.0000
  H   H3039     1.0  0.75512  0.24037  0.94001  1.0000
  H   H3040     1.0  0.75117  0.07169  0.97025  1.0000
  N   N128      1.0  0.71916  0.07534  0.98412  1.0000
  H   H3041     1.0  0.65207  0.26309  0.97098  1.0000
  H   H3042     1.0  0.77812  0.22404  0.94587  1.0000
  H   H3043     1.0  0.53391  0.09879  0.97243  1.0000
  H   H3044     1.0  0.50138  0.06315  0.82566  1.0000
  C   C1771     1.0  0.61635  0.32210  0.98047  1.0000
  H   H3045     1.0  0.61913  0.13473  0.98275  1.0000
  C   C1772     1.0  0.72081  0.19971  0.98206  1.0000
  H   H3046     1.0  0.73615  0.17247  0.97037  1.0000
  C   C1773     1.0  0.96488  0.00050  0.75267  1.0000
  C   C1774     1.0  0.55486  0.11192  0.98048  1.0000
  Fe  Fe252     1.0  0.58590  0.61470  0.18614  1.0000
  S   S504      1.0  0.61364  0.59015  0.17993  1.0000
  S   S505      1.0  0.57519  0.63070  0.21032  1.0000
  Fe  Fe253     1.0  0.56918  0.61294  0.15362  1.0000
  S   S506      1.0  0.59577  0.58886  0.14412  1.0000
  S   S507      1.0  0.54157  0.62388  0.14076  1.0000
  Fe  Fe254     1.0  0.59206  0.57412  0.17502  1.0000
  S   S508      1.0  0.58840  0.54157  0.18838  1.0000
  Fe  Fe255     1.0  0.61496  0.60718  0.14955  1.0000
  S   S509      1.0  0.64591  0.61060  0.13029  1.0000
  S   S510      1.0  0.56431  0.59721  0.18412  1.0000
  S   S511      1.0  0.58847  0.63285  0.15619  1.0000
  C   C1775     1.0  0.52837  0.35579  0.10934  1.0000
  S   S512      1.0  0.91579  0.65116  0.15207  1.0000
  C   C1776     1.0  0.96321  0.54989  0.23139  1.0000
  H   H3047     1.0  0.53526  0.33915  0.11148  1.0000
  H   H3048     1.0  0.66558  0.65840  0.05364  1.0000
  H   H3049     1.0  0.68360  0.34442  0.08770  1.0000
  Fe  Fe256     1.0  0.84961  0.65675  0.08228  1.0000
  H   H3050     1.0  0.91545  0.58790  0.19658  1.0000
  H   H3051     1.0  0.92163  0.52069  0.20482  1.0000
  Fe  Fe257     1.0  0.57217  0.46285  0.14144  1.0000
  S   S513      1.0  0.59058  0.43318  0.15445  1.0000
  S   S514      1.0  0.58252  0.49283  0.13116  1.0000
  Fe  Fe258     1.0  0.53772  0.44323  0.14185  1.0000
  S   S515      1.0  0.55299  0.41170  0.15502  1.0000
  C   C1777     1.0  0.61044  0.61331  0.22402  1.0000
  Fe  Fe259     1.0  0.56051  0.42781  0.17363  1.0000
  S   S516      1.0  0.55299  0.41858  0.20543  1.0000
  Fe  Fe260     1.0  0.58176  0.41963  0.13472  1.0000
  S   S517      1.0  0.60690  0.40068  0.11646  1.0000
  S   S518      1.0  0.54285  0.45867  0.16206  1.0000
  S   S519      1.0  0.56572  0.44997  0.12008  1.0000
  Fe  Fe261     1.0  0.84642  0.61992  0.07033  1.0000
  Fe  Fe262     1.0  0.96992  0.61200  0.18807  1.0000
  C   C1778     1.0  0.88816  0.56223  0.03409  1.0000
  H   H3052     1.0  0.61830  0.47274  0.16755  1.0000
  H   H3053     1.0  0.98175  0.62341  0.23098  1.0000
  H   H3054     1.0  0.66704  0.52169  0.18641  1.0000
  H   H3055     1.0  0.62503  0.34967  0.15430  1.0000
  C   C1779     1.0  0.54431  0.41920  0.09282  1.0000
  C   C1780     1.0  0.65276  0.63461  0.12006  1.0000
  H   H3056     1.0  0.99555  0.48817  0.16328  1.0000
  H   H3057     1.0  0.60778  0.47460  0.22066  1.0000
  C   C1781     1.0  0.50182  0.41967  0.08326  1.0000
  H   H3058     1.0  0.81261  0.60787  0.10870  1.0000
  C   C1782     1.0  0.60189  0.38210  0.10759  1.0000
  C   C1783     1.0  0.58743  0.37032  0.11812  1.0000
  C   C1784     1.0  0.58503  0.35443  0.11129  1.0000
  C   C1785     1.0  0.59706  0.35027  0.09394  1.0000
  C   C1786     1.0  0.61131  0.36223  0.08332  1.0000
  C   C1787     1.0  0.61386  0.37795  0.09024  1.0000
  H   H3059     1.0  0.57837  0.37323  0.13166  1.0000
  H   H3060     1.0  0.57394  0.34522  0.11953  1.0000
  H   H3061     1.0  0.62046  0.35928  0.06983  1.0000
  H   H3062     1.0  0.62516  0.38695  0.08210  1.0000
  S   S520      1.0  0.82666  0.59891  0.07080  1.0000
  H   H3063     1.0  0.53372  0.52630  0.09746  1.0000
  C   C1788     1.0  0.57063  0.42152  0.21684  1.0000
  C   C1789     1.0  0.59024  0.42422  0.20686  1.0000
  C   C1790     1.0  0.93278  0.62417  0.12838  1.0000
  C   C1791     1.0  0.77639  0.60325  0.05189  1.0000
  H   H3064     1.0  0.59516  0.42352  0.19216  1.0000
  C   C1792     1.0  0.60380  0.42725  0.21609  1.0000
  S   S521      1.0  0.74502  0.63320  0.04044  1.0000
  C   C1793     1.0  0.53848  0.36658  0.08944  1.0000
  H   H3065     1.0  0.53807  0.39084  0.05518  1.0000
  H   H3066     1.0  0.77197  0.65408  0.04775  1.0000
  H   H3067     1.0  0.51119  0.40549  0.18848  1.0000
  H   H3068     1.0  0.63827  0.60152  0.23453  1.0000
  H   H3069     1.0  0.51646  0.40967  0.14205  1.0000
  C   C1794     1.0  0.92545  0.61019  0.00642  1.0000
  C   C1795     1.0  0.49629  0.49562  0.16375  1.0000
  C   C1796     1.0  0.58558  0.52863  0.17248  1.0000
  C   C1797     1.0  0.57597  0.51182  0.17925  1.0000
  C   C1798     1.0  0.57508  0.50048  0.16677  1.0000
  C   C1799     1.0  0.58370  0.50604  0.14747  1.0000
  C   C1800     1.0  0.59312  0.52288  0.14075  1.0000
  C   C1801     1.0  0.59416  0.53405  0.15321  1.0000
  H   H3070     1.0  0.56935  0.50751  0.19415  1.0000
  H   H3071     1.0  0.56781  0.48747  0.17199  1.0000
  H   H3072     1.0  0.59983  0.52721  0.12584  1.0000
  H   H3073     1.0  0.60217  0.54648  0.14789  1.0000
  C   C1802     1.0  0.52681  0.60501  0.14805  1.0000
  C   C1803     1.0  0.53420  0.58548  0.15817  1.0000
  C   C1804     1.0  0.52154  0.57120  0.16572  1.0000
  H   H3074     1.0  0.55133  0.59842  0.23388  1.0000
  H   H3075     1.0  0.61617  0.63965  0.18707  1.0000
  C   C1805     1.0  0.64084  0.50731  0.19899  1.0000
  H   H3076     1.0  0.54964  0.58135  0.16030  1.0000
  H   H3077     1.0  0.52722  0.55632  0.17395  1.0000
  H   H3078     1.0  0.54965  0.53826  0.14144  1.0000
  H   H3079     1.0  0.53619  0.50137  0.09478  1.0000
  H   H3080     1.0  0.89961  0.55330  0.00751  1.0000
  H   H3081     1.0  0.94669  0.62131  0.13320  1.0000
  H   H3082     1.0  0.94517  0.60272  0.11009  1.0000
  H   H3083     1.0  0.85678  0.63136  0.02645  1.0000
  S   S522      1.0  0.91309  0.60513  0.09169  1.0000
  C   C1806     1.0  0.56748  0.39006  0.05993  1.0000
  H   H3084     1.0  0.93052  0.55427  0.02816  1.0000
  H   H3085     1.0  0.67398  0.49442  0.19099  1.0000
  C   C1807     1.0  0.51837  0.50571  0.12251  1.0000
  C   C1808     1.0  0.91418  0.61795  0.10829  1.0000
  H   H3086     1.0  0.51172  0.35724  0.11092  1.0000
  H   H3087     1.0  0.61590  0.60535  0.21258  1.0000
  H   H3088     1.0  0.63991  0.45557  0.21166  1.0000
  C   C1809     1.0  0.99370  0.49281  0.21786  1.0000
  H   H3089     1.0  0.94841  0.51740  0.19549  1.0000
  C   C1810     1.0  0.91270  0.59356  0.01605  1.0000
  H   H3090     1.0  0.98379  0.42936  0.20807  1.0000
  C   C1811     1.0  0.54390  0.39668  0.06460  1.0000
  H   H3091     1.0  0.53745  0.42942  0.08112  1.0000
  H   H3092     1.0  0.93088  0.52221  0.18003  1.0000
  H   H3093     1.0  0.54473  0.56604  0.23649  1.0000
  C   C1812     1.0  0.53578  0.51016  0.10518  1.0000
  H   H3094     1.0  0.53012  0.55526  0.13057  1.0000
  H   H3095     1.0  0.76978  0.65342  0.08438  1.0000
  H   H3096     1.0  0.50650  0.50130  0.11798  1.0000
  H   H3097     1.0  0.56093  0.41919  0.08934  1.0000
  H   H3098     1.0  0.81426  0.63480  0.01604  1.0000
  C   C1813     1.0  0.96678  0.54958  0.17516  1.0000
  H   H3099     1.0  0.95330  0.56500  0.14247  1.0000
  C   C1814     1.0  0.80461  0.60922  0.06137  1.0000
  H   H3100     1.0  0.57467  0.39354  0.06976  1.0000
  H   H3101     1.0  0.65713  0.64053  0.01559  1.0000
  C   C1815     1.0  0.95513  0.56385  0.00656  1.0000
  C   C1816     1.0  0.63076  0.48748  0.18249  1.0000
  C   C1817     1.0  0.86007  0.61812  0.00305  1.0000
  C   C1818     1.0  0.69131  0.62465  0.06100  1.0000
  S   S523      1.0  0.94079  0.63489  0.19418  1.0000
  H   H3102     1.0  0.51765  0.64769  0.19659  1.0000
  H   H3103     1.0  0.63331  0.63046  0.09288  1.0000
  H   H3104     1.0  0.55172  0.46371  0.20304  1.0000
  C   C1819     1.0  0.58644  0.56981  0.22858  1.0000
  H   H3105     1.0  0.63155  0.59739  0.07339  1.0000
  C   C1820     1.0  0.94288  0.55702  0.15459  1.0000
  H   H3106     1.0  0.77447  0.61691  0.09819  1.0000
  H   H3107     1.0  0.90963  0.55797  0.16102  1.0000
  H   H3108     1.0  0.65490  0.65013  0.15740  1.0000
  H   H3109     1.0  0.96666  0.54931  0.00606  1.0000
  H   H3110     1.0  0.57362  0.39843  0.04549  1.0000
  H   H3111     1.0  0.53763  0.42644  0.10519  1.0000
  H   H3112     1.0  0.66946  0.61416  0.08534  1.0000
  C   C1821     1.0  0.64616  0.63990  0.16895  1.0000
  C   C1822     1.0  0.93196  0.61375  0.11519  1.0000
  H   H3113     1.0  0.88474  0.65374  0.13301  1.0000
  H   H3114     1.0  0.61917  0.42860  0.20851  1.0000
  H   H3115     1.0  0.50797  0.42765  0.06872  1.0000
  H   H3116     1.0  0.76863  0.59270  0.04991  1.0000
  H   H3117     1.0  0.50262  0.39059  0.10181  1.0000
  H   H3118     1.0  0.93550  0.59723  0.21699  1.0000
  H   H3119     1.0  0.55517  0.36063  0.08826  1.0000
  H   H3120     1.0  0.88354  0.63598  0.10933  1.0000
  C   C1823     1.0  0.54367  0.47442  0.21256  1.0000
  H   H3121     1.0  0.50139  0.62478  0.13658  1.0000
  S   S524      1.0  0.97203  0.61946  0.15687  1.0000
  C   C1824     1.0  0.86336  0.63201  0.01164  1.0000
  C   C1825     1.0  0.63360  0.62601  0.07969  1.0000
  C   C1826     1.0  0.50152  0.57627  0.16296  1.0000
  C   C1827     1.0  0.79660  0.63032  0.05714  1.0000
  C   C1828     1.0  0.79444  0.59576  0.05867  1.0000
  S   S525      1.0  0.87925  0.61470  0.05477  1.0000
  H   H3122     1.0  0.51686  0.46297  0.21667  1.0000
  N   N129      1.0  0.94512  0.55965  0.17305  1.0000
  H   H3123     1.0  0.62252  0.65270  0.12748  1.0000
  H   H3124     1.0  0.53110  0.36120  0.12076  1.0000
  H   H3125     1.0  0.95765  0.57111  0.01689  1.0000
  N   N130      1.0  0.53354  0.38972  0.08496  1.0000
  H   H3126     1.0  0.91464  0.55615  0.18945  1.0000
  C   C1829     1.0  0.91570  0.63843  0.13500  1.0000
  H   H3127     1.0  0.68441  0.62105  0.11030  1.0000
  H   H3128     1.0  0.66119  0.46554  0.19823  1.0000
  H   H3129     1.0  0.50095  0.48202  0.15747  1.0000
  H   H3130     1.0  0.57683  0.56449  0.22224  1.0000
  H   H3131     1.0  0.88467  0.57848  0.00611  1.0000
  H   H3132     1.0  0.91706  0.58205  0.14792  1.0000
  C   C1830     1.0  0.66725  0.34780  0.08709  1.0000
  S   S526      1.0  0.98999  0.63271  0.18669  1.0000
  C   C1831     1.0  0.77828  0.63782  0.05068  1.0000
  H   H3133     1.0  0.75291  0.62124  0.11800  1.0000
  H   H3134     1.0  0.93433  0.54492  0.00801  1.0000
  C   C1832     1.0  0.87526  0.64639  0.00115  1.0000
  H   H3135     1.0  0.96853  0.54891  0.18959  1.0000
  C   C1833     1.0  0.97380  0.49773  0.22844  1.0000
  H   H3136     1.0  0.51529  0.51035  0.22052  1.0000
  C   C1834     1.0  0.93338  0.52609  0.19238  1.0000
  H   H3137     1.0  0.55579  0.38708  0.10092  1.0000
  H   H3138     1.0  0.66975  0.64978  0.02759  1.0000
  C   C1835     1.0  0.54092  0.39697  0.09851  1.0000
  H   H3139     1.0  0.89896  0.55042  0.04186  1.0000
  H   H3140     1.0  0.97811  0.54032  0.22766  1.0000
  H   H3141     1.0  0.98500  0.55882  0.14620  1.0000
  H   H3142     1.0  0.91490  0.58772  0.03083  1.0000
  H   H3143     1.0  0.65469  0.63245  0.18034  1.0000
  H   H3144     1.0  0.80292  0.63982  0.09164  1.0000
  S   S527      1.0  0.85362  0.62349  0.09630  1.0000
  C   C1836     1.0  0.59101  0.62618  0.22625  1.0000
  C   C1837     1.0  0.93093  0.54935  0.18985  1.0000
  H   H3145     1.0  0.70413  0.61193  0.06479  1.0000
  C   C1838     1.0  0.50192  0.41511  0.13788  1.0000
  C   C1839     1.0  0.50707  0.60979  0.14463  1.0000
  N   N131      1.0  0.63273  0.48839  0.20168  1.0000
  H   H3146     1.0  0.67810  0.62345  0.02527  1.0000
  C   C1840     1.0  0.63234  0.60319  0.08539  1.0000
  H   H3147     1.0  0.69453  0.62928  0.04542  1.0000
  H   H3148     1.0  0.53945  0.48964  0.20335  1.0000
  H   H3149     1.0  0.50389  0.42677  0.09388  1.0000
  H   H3150     1.0  0.70725  0.64139  0.00138  1.0000
  H   H3151     1.0  0.61892  0.63458  0.07558  1.0000
  C   C1841     1.0  0.89711  0.56754  0.01258  1.0000
  C   C1842     1.0  0.52456  0.52409  0.14368  1.0000
  H   H3152     1.0  0.53469  0.50899  0.14797  1.0000
  H   H3153     1.0  0.96335  0.51137  0.22313  1.0000
  H   H3154     1.0  0.49757  0.49000  0.20466  1.0000
  C   C1843     1.0  0.56475  0.42168  0.23614  1.0000
  H   H3155     1.0  0.52501  0.49117  0.13149  1.0000
  H   H3156     1.0  0.94210  0.60399  0.00359  1.0000
  H   H3157     1.0  0.64519  0.62741  0.16292  1.0000
  H   H3158     1.0  0.94759  0.54062  0.15382  1.0000
  H   H3159     1.0  0.51523  0.60325  0.20179  1.0000
  H   H3160     1.0  0.73352  0.63195  0.00171  1.0000
  C   C1844     1.0  0.66459  0.63600  0.02783  1.0000
  H   H3161     1.0  0.59977  0.49890  0.20659  1.0000
  C   C1845     1.0  0.63826  0.65296  0.12032  1.0000
  H   H3162     1.0  0.55489  0.47458  0.22047  1.0000
  H   H3163     1.0  0.49954  0.42085  0.20544  1.0000
  H   H3164     1.0  0.65551  0.48195  0.22901  1.0000
  C   C1846     1.0  0.80169  0.61754  0.11820  1.0000
  H   H3165     1.0  0.66682  0.35022  0.07200  1.0000
  H   H3166     1.0  0.80950  0.61600  0.12967  1.0000
  H   H3167     1.0  0.97065  0.53344  0.17369  1.0000
  H   H3168     1.0  0.95858  0.57341  0.99218  1.0000
  H   H3169     1.0  0.64515  0.59341  0.09194  1.0000
  C   C1847     1.0  0.76317  0.64928  0.09976  1.0000
  H   H3170     1.0  0.66233  0.50894  0.17112  1.0000
  C   C1848     1.0  0.49628  0.41134  0.19744  1.0000
  C   C1849     1.0  0.94164  0.58210  0.17299  1.0000
  H   H3171     1.0  0.51925  0.65593  0.17170  1.0000
  C   C1850     1.0  0.98396  0.55957  0.16091  1.0000
  C   C1851     1.0  0.76815  0.62425  0.04810  1.0000
  C   C1852     1.0  0.65196  0.65339  0.06359  1.0000
  S   S528      1.0  0.50702  0.45417  0.13385  1.0000
  Fe  Fe263     1.0  0.88580  0.62195  0.07931  1.0000
  H   H3172     1.0  0.69445  0.65410  0.09317  1.0000
  H   H3173     1.0  0.85144  0.60657  0.01144  1.0000
  H   H3174     1.0  0.93299  0.55183  0.20316  1.0000
  C   C1853     1.0  0.93917  0.58190  0.22513  1.0000
  H   H3175     1.0  0.79805  0.62806  0.00546  1.0000
  H   H3176     1.0  0.55080  0.50537  0.10929  1.0000
  H   H3177     1.0  0.80870  0.64730  0.10984  1.0000
  N   N132      1.0  0.91634  0.57609  0.00645  1.0000
  C   C1854     1.0  0.51573  0.64343  0.18418  1.0000
  H   H3178     1.0  0.53437  0.36062  0.07899  1.0000
  H   H3179     1.0  0.54795  0.53552  0.11915  1.0000
  N   N133      1.0  0.65174  0.63156  0.06433  1.0000
  C   C1855     1.0  0.91972  0.59309  0.18098  1.0000
  C   C1856     1.0  0.76608  0.64827  0.13178  1.0000
  C   C1857     1.0  0.92149  0.56517  0.15011  1.0000
  H   H3180     1.0  0.69192  0.63736  0.06690  1.0000
  C   C1858     1.0  0.80847  0.63858  0.00298  1.0000
  H   H3181     1.0  0.91922  0.60976  0.17802  1.0000
  S   S529      1.0  0.97857  0.57968  0.20381  1.0000
  C   C1859     1.0  0.67092  0.61737  0.06975  1.0000
  H   H3182     1.0  0.60185  0.55983  0.22553  1.0000
  C   C1860     1.0  0.89728  0.63254  0.11463  1.0000
  C   C1861     1.0  0.95883  0.56991  0.22104  1.0000
  H   H3183     1.0  0.89656  0.60207  0.01726  1.0000
  H   H3184     1.0  0.94971  0.61933  0.23149  1.0000
  H   H3185     1.0  0.90792  0.59123  0.17471  1.0000
  C   C1862     1.0  0.62428  0.65116  0.17643  1.0000
  H   H3186     1.0  0.78815  0.61053  0.12401  1.0000
  H   H3187     1.0  0.53038  0.39503  0.11261  1.0000
  H   H3188     1.0  0.65221  0.35494  0.12268  1.0000
  H   H3189     1.0  0.92183  0.56160  0.13653  1.0000
  H   H3190     1.0  0.52731  0.62956  0.18138  1.0000
  H   H3191     1.0  0.94676  0.59099  0.15847  1.0000
  H   H3192     1.0  0.54021  0.41349  0.05968  1.0000
  H   H3193     1.0  0.88297  0.57592  0.04035  1.0000
  H   H3194     1.0  0.63011  0.52117  0.19307  1.0000
  S   S530      1.0  0.83947  0.65341  0.05781  1.0000
  C   C1863     1.0  0.64910  0.62888  0.04604  1.0000
  H   H3195     1.0  0.95105  0.58444  0.18162  1.0000
  H   H3196     1.0  0.80052  0.57945  0.06191  1.0000
  C   C1864     1.0  0.65659  0.32998  0.09868  1.0000
  H   H3197     1.0  0.80422  0.64085  0.05917  1.0000
  H   H3198     1.0  0.64092  0.33443  0.09613  1.0000
  H   H3199     1.0  0.58727  0.58581  0.22119  1.0000
  C   C1865     1.0  0.61168  0.48997  0.21463  1.0000
  H   H3200     1.0  0.61808  0.60140  0.09634  1.0000
  H   H3201     1.0  0.50532  0.38992  0.07792  1.0000
  C   C1866     1.0  0.67308  0.63518  0.11049  1.0000
  H   H3202     1.0  0.67311  0.60220  0.06641  1.0000
  H   H3203     1.0  0.65316  0.65477  0.07752  1.0000
  H   H3204     1.0  0.62943  0.34858  0.12332  1.0000
  N   N134      1.0  0.50917  0.52199  0.13387  1.0000
  C   C1867     1.0  0.60764  0.50033  0.23132  1.0000
  H   H3205     1.0  0.60544  0.47052  0.19174  1.0000
  C   C1868     1.0  0.62069  0.47042  0.18204  1.0000
  H   H3206     1.0  0.77069  0.61990  0.99469  1.0000
  H   H3207     1.0  0.57254  0.37351  0.05984  1.0000
  H   H3208     1.0  0.49752  0.38483  0.14027  1.0000
  C   C1869     1.0  0.51065  0.39648  0.08717  1.0000
  C   C1870     1.0  0.93353  0.55913  0.01248  1.0000
  H   H3209     1.0  0.79364  0.64623  0.14219  1.0000
  H   H3210     1.0  0.63083  0.45517  0.18507  1.0000
  H   H3211     1.0  0.66766  0.45647  0.22827  1.0000
  C   C1871     1.0  0.64692  0.46901  0.20903  1.0000
  H   H3212     1.0  0.60735  0.51698  0.22632  1.0000
  H   H3213     1.0  0.65009  0.61247  0.04677  1.0000
  H   H3214     1.0  0.63341  0.63626  0.04367  1.0000
  C   C1872     1.0  0.59753  0.42847  0.23510  1.0000
  H   H3215     1.0  0.65922  0.36242  0.09140  1.0000
  C   C1873     1.0  0.50288  0.50159  0.22721  1.0000
  H   H3216     1.0  0.76414  0.63227  0.13715  1.0000
  C   C1874     1.0  0.66230  0.50777  0.18609  1.0000
  H   H3217     1.0  0.64598  0.48518  0.17266  1.0000
  C   C1875     1.0  0.79780  0.64002  0.10693  1.0000
  H   H3218     1.0  0.51672  0.52927  0.15707  1.0000
  H   H3219     1.0  0.64161  0.50997  0.21257  1.0000
  C   C1876     1.0  0.62313  0.61122  0.23638  1.0000
  H   H3220     1.0  0.62190  0.50227  0.17576  1.0000
  C   C1877     1.0  0.53876  0.53916  0.13277  1.0000
  S   S531      1.0  0.59336  0.33064  0.08553  1.0000
  H   H3221     1.0  0.92220  0.62092  0.01591  1.0000
  C   C1878     1.0  0.65284  0.46752  0.22768  1.0000
  C   C1879     1.0  0.64409  0.34200  0.12808  1.0000
  H   H3222     1.0  0.87435  0.55589  0.03655  1.0000
  Fe  Fe264     1.0  0.87261  0.64867  0.04373  1.0000
  C   C1880     1.0  0.89798  0.64264  0.12804  1.0000
  C   C1881     1.0  0.50089  0.54238  0.12204  1.0000
  Fe  Fe265     1.0  0.98980  0.64223  0.15597  1.0000
  H   H3223     1.0  0.50357  0.62569  0.22258  1.0000
  H   H3224     1.0  0.61642  0.65557  0.16455  1.0000
  C   C1882     1.0  0.75999  0.62738  0.10313  1.0000
  H   H3225     1.0  0.77046  0.64558  0.15996  1.0000
  C   C1883     1.0  0.77695  0.65262  0.14511  1.0000
  H   H3226     1.0  0.62680  0.64710  0.21082  1.0000
  Fe  Fe266     1.0  0.94455  0.64425  0.16276  1.0000
  C   C1884     1.0  0.52476  0.46665  0.22582  1.0000
  H   H3227     1.0  0.74935  0.62759  0.09442  1.0000
  C   C1885     1.0  0.63932  0.33868  0.14977  1.0000
  H   H3228     1.0  0.65187  0.34150  0.15454  1.0000
  C   C1886     1.0  0.72291  0.64149  0.99253  1.0000
  H   H3229     1.0  0.75016  0.65755  0.13404  1.0000
  C   C1887     1.0  0.67881  0.65388  0.10077  1.0000
  H   H3230     1.0  0.82130  0.63493  0.99104  1.0000
  N   N135      1.0  0.77633  0.65258  0.11108  1.0000
  S   S532      1.0  0.88230  0.65563  0.06680  1.0000
  H   H3231     1.0  0.68380  0.33276  0.11986  1.0000
  H   H3232     1.0  0.98942  0.45864  0.18221  1.0000
  H   H3233     1.0  0.50293  0.57149  0.21276  1.0000
  C   C1888     1.0  0.49924  0.60418  0.20106  1.0000
  H   H3234     1.0  0.72448  0.65763  0.98870  1.0000
  H   H3235     1.0  0.50820  0.49597  0.17074  1.0000
  H   H3236     1.0  0.51322  0.54940  0.11170  1.0000
  H   H3237     1.0  0.64937  0.65559  0.19725  1.0000
  H   H3238     1.0  0.50049  0.60153  0.18691  1.0000
  Fe  Fe267     1.0  0.96105  0.65653  0.19011  1.0000
  H   H3239     1.0  0.98249  0.57555  0.16170  1.0000
  H   H3240     1.0  0.53025  0.45152  0.23469  1.0000
  H   H3241     1.0  0.92088  0.61953  0.99311  1.0000
  C   C1889     1.0  0.99315  0.61003  0.23616  1.0000
  H   H3242     1.0  0.99369  0.42075  0.18652  1.0000
  N   N136      1.0  0.84925  0.42237  0.36038  1.0000
  H   H3243     1.0  0.71913  0.64895  0.39626  1.0000
  H   H3244     1.0  0.76137  0.41703  0.47370  1.0000
  C   C1890     1.0  0.96178  0.54552  0.33229  1.0000
  C   C1891     1.0  0.55864  0.58232  0.28764  1.0000
  H   H3245     1.0  0.61724  0.35694  0.36154  1.0000
  H   H3246     1.0  0.67699  0.65631  0.43823  1.0000
  H   H3247     1.0  0.70995  0.62002  0.41963  1.0000
  C   C1892     1.0  0.70840  0.38716  0.45669  1.0000
  Fe  Fe268     1.0  0.60061  0.63420  0.33298  1.0000
  S   S533      1.0  0.62106  0.60632  0.32279  1.0000
  C   C1893     1.0  0.71041  0.35223  0.47481  1.0000
  Fe  Fe269     1.0  0.56754  0.63579  0.31273  1.0000
  S   S534      1.0  0.58513  0.60855  0.30104  1.0000
  C   C1894     1.0  0.64876  0.65109  0.42363  1.0000
  Fe  Fe270     1.0  0.59223  0.59448  0.32944  1.0000
  S   S535      1.0  0.58869  0.56177  0.34209  1.0000
  Fe  Fe271     1.0  0.61229  0.62245  0.29491  1.0000
  S   S536      1.0  0.63223  0.61983  0.26621  1.0000
  S   S537      1.0  0.57229  0.62078  0.34198  1.0000
  H   H3248     1.0  0.94792  0.63617  0.24658  1.0000
  Fe  Fe272     1.0  0.86269  0.36090  0.45426  1.0000
  S   S538      1.0  0.86457  0.38321  0.42631  1.0000
  N   N137      1.0  0.66986  0.34724  0.36031  1.0000
  Fe  Fe273     1.0  0.85333  0.39392  0.47636  1.0000
  S   S539      1.0  0.85427  0.41918  0.45043  1.0000
  H   H3249     1.0  0.51872  0.49942  0.30878  1.0000
  Fe  Fe274     1.0  0.83686  0.40235  0.44121  1.0000
  S   S540      1.0  0.80861  0.41888  0.43040  1.0000
  Fe  Fe275     1.0  0.88199  0.39781  0.43801  1.0000
  S   S541      1.0  0.91013  0.40810  0.41889  1.0000
  S   S542      1.0  0.83347  0.37889  0.46814  1.0000
  S   S543      1.0  0.88260  0.37372  0.46498  1.0000
  Fe  Fe276     1.0  0.75269  0.37925  0.38337  1.0000
  S   S544      1.0  0.73759  0.36254  0.41149  1.0000
  S   S545      1.0  0.78677  0.37557  0.37775  1.0000
  Fe  Fe277     1.0  0.71276  0.39721  0.36990  1.0000
  S   S546      1.0  0.70120  0.41629  0.34385  1.0000
  Fe  Fe278     1.0  0.71385  0.39172  0.41111  1.0000
  S   S547      1.0  0.73027  0.40908  0.38398  1.0000
  S   S548      1.0  0.73692  0.36874  0.36675  1.0000
  Fe  Fe279     1.0  0.59059  0.48046  0.28976  1.0000
  S   S549      1.0  0.61688  0.45364  0.28787  1.0000
  S   S550      1.0  0.59737  0.51210  0.28056  1.0000
  Fe  Fe280     1.0  0.55880  0.45400  0.30086  1.0000
  S   S551      1.0  0.58234  0.42479  0.29999  1.0000
  S   S552      1.0  0.52450  0.45792  0.30869  1.0000
  Fe  Fe281     1.0  0.59853  0.43770  0.31464  1.0000
  H   H3250     1.0  0.65052  0.33791  0.34753  1.0000
  Fe  Fe282     1.0  0.59860  0.44325  0.27337  1.0000
  H   H3251     1.0  0.68607  0.62285  0.43607  1.0000
  S   S553      1.0  0.57354  0.46557  0.31774  1.0000
  S   S554      1.0  0.57370  0.47143  0.27306  1.0000
  S   S555      1.0  0.97442  0.45413  0.27655  1.0000
  S   S556      1.0  0.91949  0.48819  0.29454  1.0000
  Fe  Fe283     1.0  0.92667  0.51853  0.29188  1.0000
  S   S557      1.0  0.91240  0.54677  0.27290  1.0000
  H   H3252     1.0  0.81873  0.43332  0.35465  1.0000
  S   S558      1.0  0.88945  0.47439  0.34683  1.0000
  H   H3253     1.0  0.86116  0.33044  0.39504  1.0000
  H   H3254     1.0  0.66582  0.37759  0.34223  1.0000
  N   N138      1.0  0.78584  0.33191  0.46569  1.0000
  C   C1895     1.0  0.67596  0.41698  0.34318  1.0000
  C   C1896     1.0  0.66133  0.41251  0.35979  1.0000
  C   C1897     1.0  0.63564  0.41861  0.34139  1.0000
  C   C1898     1.0  0.65028  0.42304  0.32477  1.0000
  C   C1899     1.0  0.67038  0.42231  0.32567  1.0000
  H   H3255     1.0  0.64617  0.42688  0.31121  1.0000
  H   H3256     1.0  0.68169  0.42570  0.31277  1.0000
  C   C1900     1.0  0.90407  0.42571  0.39859  1.0000
  C   C1901     1.0  0.88469  0.43854  0.39932  1.0000
  C   C1902     1.0  0.88030  0.45340  0.38330  1.0000
  C   C1903     1.0  0.89517  0.45526  0.36643  1.0000
  C   C1904     1.0  0.91431  0.44197  0.36551  1.0000
  C   C1905     1.0  0.91884  0.42734  0.38164  1.0000
  H   H3257     1.0  0.87324  0.43739  0.41235  1.0000
  H   H3258     1.0  0.86546  0.46366  0.38408  1.0000
  H   H3259     1.0  0.92560  0.44286  0.35237  1.0000
  H   H3260     1.0  0.93374  0.41719  0.38096  1.0000
  C   C1906     1.0  0.80196  0.40562  0.41717  1.0000
  C   C1907     1.0  0.78457  0.41435  0.40960  1.0000
  C   C1908     1.0  0.77970  0.40482  0.39783  1.0000
  C   C1909     1.0  0.79225  0.38662  0.39348  1.0000
  C   C1910     1.0  0.80943  0.37756  0.40141  1.0000
  C   C1911     1.0  0.81417  0.38698  0.41341  1.0000
  H   H3261     1.0  0.77504  0.42871  0.41254  1.0000
  H   H3262     1.0  0.76657  0.41201  0.39164  1.0000
  H   H3263     1.0  0.81906  0.36332  0.39828  1.0000
  H   H3264     1.0  0.82738  0.37994  0.41953  1.0000
  H   H3265     1.0  0.53524  0.56908  0.28508  1.0000
  C   C1912     1.0  0.98122  0.46810  0.25344  1.0000
  H   H3266     1.0  0.52055  0.53262  0.29115  1.0000
  H   H3267     1.0  0.96677  0.54787  0.29172  1.0000
  C   C1913     1.0  0.51553  0.50239  0.32317  1.0000
  H   H3268     1.0  0.91137  0.46591  0.39293  1.0000
  H   H3269     1.0  0.79138  0.33463  0.40718  1.0000
  C   C1914     1.0  0.51311  0.44341  0.30039  1.0000
  C   C1915     1.0  0.52470  0.43053  0.28819  1.0000
  C   C1916     1.0  0.78644  0.35076  0.44986  1.0000
  H   H3270     1.0  0.57519  0.58217  0.28259  1.0000
  H   H3271     1.0  0.54113  0.42885  0.28409  1.0000
  C   C1917     1.0  0.52201  0.63209  0.31000  1.0000
  C   C1918     1.0  0.92440  0.57430  0.24048  1.0000
  H   H3272     1.0  0.88663  0.39719  0.38704  1.0000
  H   H3273     1.0  0.64113  0.46199  0.24007  1.0000
  H   H3274     1.0  0.82484  0.44148  0.39096  1.0000
  C   C1919     1.0  0.52731  0.61297  0.32176  1.0000
  C   C1920     1.0  0.92938  0.55474  0.25173  1.0000
  H   H3275     1.0  0.62853  0.36861  0.37321  1.0000
  H   H3276     1.0  0.93621  0.49494  0.40917  1.0000
  H   H3277     1.0  0.54085  0.60931  0.32745  1.0000
  C   C1921     1.0  0.59076  0.54817  0.32495  1.0000
  C   C1922     1.0  0.58217  0.53080  0.33002  1.0000
  C   C1923     1.0  0.58443  0.51935  0.31659  1.0000
  C   C1924     1.0  0.59494  0.52548  0.29797  1.0000
  C   C1925     1.0  0.60357  0.54277  0.29295  1.0000
  C   C1926     1.0  0.60164  0.55398  0.30643  1.0000
  H   H3278     1.0  0.57395  0.52612  0.34439  1.0000
  H   H3279     1.0  0.57811  0.50581  0.32068  1.0000
  H   H3280     1.0  0.61196  0.54747  0.27865  1.0000
  H   H3281     1.0  0.60882  0.56699  0.30252  1.0000
  C   C1927     1.0  0.64246  0.65866  0.34236  1.0000
  C   C1928     1.0  0.51485  0.59866  0.32656  1.0000
  H   H3282     1.0  0.67221  0.60511  0.42335  1.0000
  C   C1929     1.0  0.69806  0.36612  0.33838  1.0000
  H   H3283     1.0  0.52206  0.62046  0.25043  1.0000
  C   C1930     1.0  0.50442  0.63664  0.30267  1.0000
  C   C1931     1.0  0.80094  0.33524  0.33333  1.0000
  H   H3284     1.0  0.94702  0.54148  0.33549  1.0000
  H   H3285     1.0  0.67479  0.35782  0.32974  1.0000
  C   C1932     1.0  0.65813  0.34472  0.39649  1.0000
  H   H3286     1.0  0.83002  0.38885  0.35690  1.0000
  H   H3287     1.0  0.68379  0.35684  0.37781  1.0000
  C   C1933     1.0  0.79529  0.42645  0.47963  1.0000
  H   H3288     1.0  0.53531  0.49131  0.24271  1.0000
  H   H3289     1.0  0.79852  0.34611  0.48086  1.0000
  H   H3290     1.0  0.66541  0.40875  0.37335  1.0000
  H   H3291     1.0  0.52383  0.40984  0.27180  1.0000
  H   H3292     1.0  0.80859  0.34958  0.35171  1.0000
  H   H3293     1.0  0.81761  0.33657  0.38062  1.0000
  H   H3294     1.0  0.94510  0.45704  0.36999  1.0000
  H   H3295     1.0  0.89119  0.41118  0.36324  1.0000
  H   H3296     1.0  0.96802  0.50784  0.37616  1.0000
  H   H3297     1.0  0.80188  0.44839  0.38244  1.0000
  C   C1934     1.0  0.94850  0.54229  0.24666  1.0000
  C   C1935     1.0  0.85847  0.41318  0.37755  1.0000
  N   N139      1.0  0.68783  0.64735  0.41112  1.0000
  H   H3298     1.0  0.69159  0.64423  0.37269  1.0000
  H   H3299     1.0  0.91448  0.45338  0.42778  1.0000
  C   C1936     1.0  0.96643  0.58043  0.28318  1.0000
  H   H3300     1.0  0.97523  0.55605  0.26680  1.0000
  H   H3301     1.0  0.94891  0.48213  0.36134  1.0000
  H   H3302     1.0  0.85702  0.45122  0.35824  1.0000
  H   H3303     1.0  0.66506  0.42049  0.47389  1.0000
  C   C1937     1.0  0.58411  0.63640  0.24113  1.0000
  H   H3304     1.0  0.76579  0.37541  0.46356  1.0000
  S   S559      1.0  0.69410  0.38248  0.39719  1.0000
  H   H3305     1.0  0.95991  0.44902  0.40793  1.0000
  H   H3306     1.0  0.70045  0.37834  0.32538  1.0000
  H   H3307     1.0  0.55537  0.53039  0.27001  1.0000
  C   C1938     1.0  0.54858  0.59536  0.24958  1.0000
  H   H3308     1.0  0.53065  0.52546  0.32689  1.0000
  H   H3309     1.0  0.51889  0.58405  0.33596  1.0000
  C   C1939     1.0  0.98204  0.57130  0.32556  1.0000
  H   H3310     1.0  0.71003  0.35238  0.33586  1.0000
  H   H3311     1.0  0.62992  0.40985  0.37180  1.0000
  H   H3312     1.0  0.85275  0.44470  0.32073  1.0000
  H   H3313     1.0  0.57320  0.42615  0.25996  1.0000
  H   H3314     1.0  0.97267  0.62904  0.26156  1.0000
  H   H3315     1.0  0.52167  0.49513  0.27499  1.0000
  H   H3316     1.0  0.81124  0.41912  0.48119  1.0000
  C   C1940     1.0  0.68544  0.32734  0.36170  1.0000
  H   H3317     1.0  0.59126  0.64234  0.26485  1.0000
  H   H3318     1.0  0.94908  0.57749  0.33203  1.0000
  C   C1941     1.0  0.64124  0.41320  0.35889  1.0000
  C   C1942     1.0  0.84953  0.45342  0.33185  1.0000
  H   H3319     1.0  0.54988  0.59833  0.28502  1.0000
  H   H3320     1.0  0.71510  0.40792  0.46954  1.0000
  C   C1943     1.0  0.93070  0.45339  0.42691  1.0000
  C   C1944     1.0  0.84617  0.38708  0.35765  1.0000
  C   C1945     1.0  0.64954  0.34329  0.36039  1.0000
  H   H3321     1.0  0.70035  0.37164  0.34992  1.0000
  N   N140      1.0  0.96639  0.59873  0.26680  1.0000
  H   H3322     1.0  0.71683  0.64855  0.36466  1.0000
  H   H3323     1.0  0.93159  0.46632  0.43233  1.0000
  H   H3324     1.0  0.95202  0.52684  0.25454  1.0000
  C   C1946     1.0  0.78571  0.33817  0.48338  1.0000
  C   C1947     1.0  0.55462  0.53724  0.25503  1.0000
  H   H3325     1.0  0.83291  0.45981  0.33572  1.0000
  H   H3326     1.0  0.54480  0.52943  0.25128  1.0000
  Fe  Fe284     1.0  0.95454  0.50109  0.32004  1.0000
  H   H3327     1.0  0.89284  0.49846  0.37933  1.0000
  C   C1948     1.0  0.85374  0.40726  0.34808  1.0000
  H   H3328     1.0  0.63353  0.37398  0.34766  1.0000
  H   H3329     1.0  0.95377  0.58366  0.29536  1.0000
  H   H3330     1.0  0.94087  0.44055  0.40228  1.0000
  C   C1949     1.0  0.69313  0.62505  0.42065  1.0000
  H   H3331     1.0  0.90949  0.58392  0.24420  1.0000
  H   H3332     1.0  0.77975  0.45793  0.46817  1.0000
  C   C1950     1.0  0.96295  0.56585  0.33039  1.0000
  C   C1951     1.0  0.70836  0.65861  0.42909  1.0000
  C   C1952     1.0  0.95131  0.50829  0.38101  1.0000
  S   S560      1.0  0.59417  0.65132  0.30435  1.0000
  H   H3333     1.0  0.93299  0.60541  0.27385  1.0000
  S   S561      1.0  0.92129  0.51611  0.32311  1.0000
  H   H3334     1.0  0.98136  0.46020  0.35559  1.0000
  C   C1953     1.0  0.94601  0.60408  0.26143  1.0000
  H   H3335     1.0  0.54056  0.49942  0.33684  1.0000
  H   H3336     1.0  0.85780  0.42521  0.38491  1.0000
  H   H3337     1.0  0.54613  0.50902  0.31168  1.0000
  C   C1954     1.0  0.68624  0.60964  0.41356  1.0000
  C   C1955     1.0  0.96769  0.48562  0.24638  1.0000
  H   H3338     1.0  0.94871  0.61339  0.30155  1.0000
  H   H3339     1.0  0.76887  0.38050  0.43861  1.0000
  C   C1956     1.0  0.98355  0.59279  0.25062  1.0000
  H   H3340     1.0  0.82266  0.46045  0.36922  1.0000
  H   H3341     1.0  0.78560  0.34134  0.36030  1.0000
  H   H3342     1.0  0.86151  0.34568  0.42098  1.0000
  C   C1957     1.0  0.94722  0.48930  0.39694  1.0000
  H   H3343     1.0  0.65534  0.44716  0.47248  1.0000
  H   H3344     1.0  0.91192  0.51169  0.37791  1.0000
  C   C1958     1.0  0.53403  0.50968  0.32480  1.0000
  C   C1959     1.0  0.70698  0.36702  0.45847  1.0000
  C   C1960     1.0  0.82639  0.42857  0.36679  1.0000
  H   H3345     1.0  0.93652  0.43899  0.43653  1.0000
  S   S562      1.0  0.94956  0.46936  0.32510  1.0000
  C   C1961     1.0  0.70361  0.65267  0.39327  1.0000
  S   S563      1.0  0.70357  0.40582  0.43654  1.0000
  H   H3346     1.0  0.85713  0.46668  0.32542  1.0000
  Fe  Fe285     1.0  0.91664  0.48463  0.32559  1.0000
  H   H3347     1.0  0.51568  0.48699  0.33275  1.0000
  C   C1962     1.0  0.76736  0.36826  0.45167  1.0000
  C   C1963     1.0  0.90962  0.49680  0.37724  1.0000
  C   C1964     1.0  0.71365  0.39240  0.47111  1.0000
  H   H3348     1.0  0.70899  0.33672  0.47626  1.0000
  H   H3349     1.0  0.58664  0.57827  0.25353  1.0000
  H   H3350     1.0  0.87032  0.40362  0.34134  1.0000
  C   C1965     1.0  0.81883  0.44573  0.37793  1.0000
  C   C1966     1.0  0.70602  0.64186  0.37728  1.0000
  H   H3351     1.0  0.50127  0.55510  0.28654  1.0000
  Fe  Fe286     1.0  0.71957  0.35473  0.39501  1.0000
  S   S564      1.0  0.96044  0.50652  0.28866  1.0000
  C   C1967     1.0  0.94365  0.45346  0.40665  1.0000
  C   C1968     1.0  0.51492  0.41979  0.28126  1.0000
  H   H3352     1.0  0.85599  0.37474  0.35048  1.0000
  H   H3353     1.0  0.84630  0.41409  0.33583  1.0000
  C   C1969     1.0  0.59667  0.63415  0.25353  1.0000
  H   H3354     1.0  0.57011  0.53377  0.24598  1.0000
  C   C1970     1.0  0.91715  0.47929  0.39298  1.0000
  H   H3355     1.0  0.70284  0.36293  0.44740  1.0000
  C   C1971     1.0  0.54547  0.56045  0.25166  1.0000
  S   S565      1.0  0.53718  0.65034  0.30463  1.0000
  H   H3356     1.0  0.64228  0.35313  0.40114  1.0000
  H   H3357     1.0  0.80438  0.44909  0.45431  1.0000
  H   H3358     1.0  0.84940  0.40264  0.38841  1.0000
  S   S566      1.0  0.61024  0.41978  0.34087  1.0000
  Fe  Fe287     1.0  0.95292  0.47590  0.29379  1.0000
  H   H3359     1.0  0.81508  0.32636  0.32595  1.0000
  C   C1972     1.0  0.55185  0.56841  0.27886  1.0000
  H   H3360     1.0  0.96183  0.48241  0.40179  1.0000
  S   S567      1.0  0.97862  0.50494  0.33271  1.0000
  H   H3361     1.0  0.97849  0.44514  0.37909  1.0000
  H   H3362     1.0  0.55586  0.57658  0.30323  1.0000
  C   C1973     1.0  0.63142  0.36190  0.36077  1.0000
  C   C1974     1.0  0.96411  0.56056  0.27938  1.0000
  H   H3363     1.0  0.50299  0.54609  0.32020  1.0000
  H   H3364     1.0  0.87517  0.43583  0.34365  1.0000
  H   H3365     1.0  0.97842  0.58473  0.24246  1.0000
  C   C1975     1.0  0.67625  0.36235  0.34227  1.0000
  N   N141      1.0  0.93988  0.47322  0.39211  1.0000
  H   H3366     1.0  0.79262  0.41869  0.46987  1.0000
  H   H3367     1.0  0.80299  0.45631  0.47556  1.0000
  H   H3368     1.0  0.88267  0.38725  0.36926  1.0000
  H   H3369     1.0  0.52131  0.60221  0.27231  1.0000
  C   C1976     1.0  0.85843  0.44060  0.34911  1.0000
  H   H3370     1.0  0.82003  0.41524  0.37605  1.0000
  H   H3371     1.0  0.55738  0.60507  0.25232  1.0000
  C   C1977     1.0  0.95251  0.62488  0.28837  1.0000
  H   H3372     1.0  0.98421  0.61081  0.27892  1.0000
  H   H3373     1.0  0.58614  0.55247  0.25741  1.0000
  C   C1978     1.0  0.97000  0.61585  0.27333  1.0000
  H   H3374     1.0  0.77786  0.33319  0.39083  1.0000
  H   H3375     1.0  0.94507  0.51060  0.36847  1.0000
  H   H3376     1.0  0.52918  0.56223  0.25932  1.0000
  C   C1979     1.0  0.66834  0.35613  0.37685  1.0000
  H   H3377     1.0  0.93855  0.63263  0.28277  1.0000
  H   H3378     1.0  0.94832  0.56176  0.27806  1.0000
  N   N142      1.0  0.64470  0.48501  0.32951  1.0000
  C   C1980     1.0  0.63866  0.48203  0.31284  1.0000
  C   C1981     1.0  0.63381  0.47216  0.34704  1.0000
  C   C1982     1.0  0.66762  0.47756  0.32707  1.0000
  C   C1983     1.0  0.63862  0.50752  0.32952  1.0000
  C   C1984     1.0  0.64961  0.49227  0.29308  1.0000
  C   C1985     1.0  0.61023  0.47768  0.35112  1.0000
  C   C1986     1.0  0.67637  0.47122  0.34503  1.0000
  C   C1987     1.0  0.64047  0.51415  0.34675  1.0000
  H   H3379     1.0  0.64127  0.46545  0.31312  1.0000
  H   H3380     1.0  0.62205  0.48811  0.31340  1.0000
  H   H3381     1.0  0.63817  0.47249  0.35997  1.0000
  H   H3382     1.0  0.63858  0.45581  0.34620  1.0000
  H   H3383     1.0  0.67287  0.46381  0.32076  1.0000
  H   H3384     1.0  0.67580  0.48932  0.31693  1.0000
  H   H3385     1.0  0.64794  0.51633  0.31706  1.0000
  H   H3386     1.0  0.62282  0.51400  0.32738  1.0000
  H   H3387     1.0  0.64579  0.50919  0.29076  1.0000
  H   H3388     1.0  0.66643  0.48662  0.29039  1.0000
  H   H3389     1.0  0.64412  0.48845  0.28222  1.0000
  H   H3390     1.0  0.60417  0.49391  0.35203  1.0000
  H   H3391     1.0  0.60410  0.47406  0.34060  1.0000
  H   H3392     1.0  0.60417  0.46819  0.36502  1.0000
  H   H3393     1.0  0.67172  0.48326  0.35322  1.0000
  H   H3394     1.0  0.69336  0.46791  0.34085  1.0000
  H   H3395     1.0  0.67213  0.45682  0.35427  1.0000
  H   H3396     1.0  0.65591  0.51721  0.34468  1.0000
  H   H3397     1.0  0.63685  0.50330  0.36035  1.0000
  H   H3398     1.0  0.62898  0.52852  0.34842  1.0000
  H   H3399     1.0  0.50034  0.65141  0.29352  1.0000
  C   C1988     1.0  0.52295  0.48296  0.25101  1.0000
  H   H3400     1.0  0.69818  0.59531  0.41391  1.0000
  H   H3401     1.0  0.80006  0.35708  0.44848  1.0000
  H   H3402     1.0  0.65965  0.37221  0.37474  1.0000
  C   C1989     1.0  0.97455  0.46089  0.37063  1.0000
  H   H3403     1.0  0.91628  0.49350  0.36301  1.0000
  H   H3404     1.0  0.84732  0.38148  0.37261  1.0000
  H   H3405     1.0  0.49924  0.48630  0.27717  1.0000
  H   H3406     1.0  0.49623  0.53081  0.28798  1.0000
  C   C1990     1.0  0.62446  0.65862  0.35641  1.0000
  C   C1991     1.0  0.57906  0.56794  0.25016  1.0000
  H   H3407     1.0  0.51581  0.59653  0.25240  1.0000
  H   H3408     1.0  0.49767  0.46012  0.26348  1.0000
  C   C1992     1.0  0.95121  0.46869  0.37306  1.0000
  H   H3409     1.0  0.78857  0.34732  0.43589  1.0000
  H   H3410     1.0  0.78751  0.32913  0.33391  1.0000
  H   H3411     1.0  0.66555  0.64533  0.39650  1.0000
  H   H3412     1.0  0.56906  0.64628  0.24302  1.0000
  H   H3413     1.0  0.90867  0.48397  0.40647  1.0000
  C   C1993     1.0  0.88100  0.40161  0.37376  1.0000
  N   N143      1.0  0.55623  0.57304  0.25754  1.0000
  H   H3414     1.0  0.55953  0.55250  0.28449  1.0000
  H   H3415     1.0  0.53084  0.46765  0.25803  1.0000
  H   H3416     1.0  0.94398  0.59133  0.25650  1.0000
  H   H3417     1.0  0.78861  0.38767  0.48312  1.0000
  H   H3418     1.0  0.50349  0.51042  0.26135  1.0000
  C   C1994     1.0  0.80178  0.33630  0.35321  1.0000
  C   C1995     1.0  0.51084  0.49444  0.26688  1.0000
  H   H3419     1.0  0.75326  0.33321  0.47656  1.0000
  H   H3420     1.0  0.71619  0.64254  0.43369  1.0000
  H   H3421     1.0  0.84274  0.33948  0.34158  1.0000
  H   H3422     1.0  0.75313  0.36316  0.45303  1.0000
  H   H3423     1.0  0.94460  0.52237  0.38668  1.0000
  C   C1996     1.0  0.97969  0.53046  0.33024  1.0000
  H   H3424     1.0  0.68377  0.61470  0.39899  1.0000
  H   H3425     1.0  0.71286  0.62533  0.38113  1.0000
  H   H3426     1.0  0.66653  0.34459  0.40712  1.0000
  H   H3427     1.0  0.95253  0.48992  0.25482  1.0000
  S   S568      1.0  0.98327  0.59715  0.32078  1.0000
  H   H3428     1.0  0.61866  0.49317  0.24058  1.0000
  H   H3429     1.0  0.98089  0.57675  0.28825  1.0000
  H   H3430     1.0  0.65119  0.63586  0.43330  1.0000
  H   H3431     1.0  0.79948  0.35093  0.32425  1.0000
  S   S569      1.0  0.60364  0.64948  0.35497  1.0000
  C   C1997     1.0  0.52560  0.60380  0.25676  1.0000
  C   C1998     1.0  0.57797  0.42568  0.24515  1.0000
  C   C1999     1.0  0.61628  0.62177  0.25108  1.0000
  C   C2000     1.0  0.79534  0.44885  0.46902  1.0000
  S   S570      1.0  0.61430  0.43370  0.24594  1.0000
  H   H3432     1.0  0.54988  0.41889  0.24409  1.0000
  C   C2001     1.0  0.66693  0.65356  0.40655  1.0000
  H   H3433     1.0  0.73608  0.42613  0.48560  1.0000
  H   H3434     1.0  0.64439  0.65205  0.33041  1.0000
  C   C2002     1.0  0.50383  0.53878  0.29403  1.0000
  H   H3435     1.0  0.98188  0.47130  0.37408  1.0000
  C   C2003     1.0  0.49720  0.60326  0.31942  1.0000
  H   H3436     1.0  0.95750  0.63668  0.29239  1.0000
  H   H3437     1.0  0.63476  0.65289  0.41842  1.0000
  H   H3438     1.0  0.59221  0.49899  0.24016  1.0000
  C   C2004     1.0  0.94242  0.62312  0.24549  1.0000
  H   H3439     1.0  0.92571  0.62883  0.24641  1.0000
  H   H3440     1.0  0.75029  0.44399  0.46967  1.0000
  S   S571      1.0  0.86398  0.32726  0.46020  1.0000
  C   C2005     1.0  0.86262  0.32945  0.42349  1.0000
  C   C2006     1.0  0.66328  0.43307  0.48099  1.0000
  H   H3441     1.0  0.64511  0.33073  0.37247  1.0000
  H   H3442     1.0  0.65809  0.32858  0.39745  1.0000
  H   H3443     1.0  0.76602  0.33032  0.43871  1.0000
  H   H3444     1.0  0.69570  0.32626  0.33137  1.0000
  H   H3445     1.0  0.67859  0.43553  0.48027  1.0000
  C   C2007     1.0  0.75168  0.42950  0.48058  1.0000
  H   H3446     1.0  0.50177  0.52393  0.35072  1.0000
  H   H3447     1.0  0.70020  0.32954  0.36307  1.0000
  H   H3448     1.0  0.84982  0.32844  0.36432  1.0000
  N   N144      1.0  0.51067  0.48061  0.23833  1.0000
  Fe  Fe288     1.0  0.93666  0.42848  0.69429  1.0000
  S   S572      1.0  0.91024  0.45120  0.70649  1.0000
  S   S573      1.0  0.93545  0.40310  0.68172  1.0000
  Fe  Fe289     1.0  0.96814  0.44891  0.69814  1.0000
  S   S574      1.0  0.94484  0.47379  0.71037  1.0000
  H   H3449     1.0  0.88316  0.32827  0.60723  1.0000
  Fe  Fe290     1.0  0.92885  0.44841  0.72745  1.0000
  H   H3450     1.0  0.79615  0.36472  0.63582  1.0000
  Fe  Fe291     1.0  0.92821  0.47471  0.68856  1.0000
  S   S575      1.0  0.91185  0.50337  0.67196  1.0000
  S   S576      1.0  0.95375  0.42320  0.71707  1.0000
  S   S577      1.0  0.95313  0.45236  0.67448  1.0000
  C   C2008     1.0  0.87784  0.39118  0.51506  1.0000
  C   C2009     1.0  0.51152  0.41836  0.64944  1.0000
  C   C2010     1.0  0.65092  0.63020  0.67547  1.0000
  C   C2011     1.0  0.88071  0.39158  0.54642  1.0000
  Fe  Fe292     1.0  0.75046  0.35847  0.55257  1.0000
  H   H3451     1.0  0.50714  0.35694  0.56352  1.0000
  C   C2012     1.0  0.89873  0.33227  0.67130  1.0000
  S   S578      1.0  0.51137  0.43512  0.67853  1.0000
  H   H3452     1.0  0.97105  0.47984  0.62895  1.0000
  C   C2013     1.0  0.97955  0.60180  0.68065  1.0000
  C   C2014     1.0  0.59344  0.60592  0.72432  1.0000
  H   H3453     1.0  0.65652  0.62877  0.68828  1.0000
  C   C2015     1.0  0.51675  0.60240  0.73560  1.0000
  H   H3454     1.0  0.63703  0.65261  0.65398  1.0000
  C   C2016     1.0  0.66881  0.37173  0.52215  1.0000
  H   H3455     1.0  0.83141  0.40863  0.54157  1.0000
  H   H3456     1.0  0.96631  0.55765  0.72177  1.0000
  Fe  Fe293     1.0  0.59483  0.63577  0.64448  1.0000
  S   S579      1.0  0.61307  0.60660  0.65904  1.0000
  H   H3457     1.0  0.64701  0.39125  0.50573  1.0000
  S   S580      1.0  0.57114  0.58797  0.66976  1.0000
  Fe  Fe294     1.0  0.58478  0.60532  0.68222  1.0000
  Fe  Fe295     1.0  0.59784  0.59149  0.64537  1.0000
  S   S581      1.0  0.61527  0.56344  0.63423  1.0000
  S   S582      1.0  0.58156  0.62080  0.62906  1.0000
  Fe  Fe296     1.0  0.85777  0.39891  0.62892  1.0000
  S   S583      1.0  0.88246  0.37278  0.62008  1.0000
  S   S584      1.0  0.85768  0.41866  0.64806  1.0000
  Fe  Fe297     1.0  0.82789  0.39218  0.60967  1.0000
  S   S585      1.0  0.84980  0.36531  0.59949  1.0000
  S   S586      1.0  0.79554  0.40277  0.60569  1.0000
  Fe  Fe298     1.0  0.85695  0.35587  0.62811  1.0000
  Fe  Fe299     1.0  0.87309  0.38472  0.59212  1.0000
  S   S587      1.0  0.89500  0.38550  0.56385  1.0000
  S   S588      1.0  0.83297  0.38097  0.63912  1.0000
  S   S589      1.0  0.85060  0.41249  0.60024  1.0000
  S   S590      1.0  0.72892  0.37833  0.53445  1.0000
  S   S591      1.0  0.68533  0.40764  0.56680  1.0000
  H   H3458     1.0  0.82288  0.34688  0.52077  1.0000
  C   C2017     1.0  0.65025  0.42922  0.50139  1.0000
  Fe  Fe300     1.0  0.58068  0.43184  0.63215  1.0000
  S   S592      1.0  0.57222  0.41427  0.66200  1.0000
  S   S593      1.0  0.59271  0.41293  0.60992  1.0000
  Fe  Fe301     1.0  0.56656  0.47289  0.64392  1.0000
  S   S594      1.0  0.55761  0.45840  0.67467  1.0000
  S   S595      1.0  0.55666  0.50715  0.63611  1.0000
  Fe  Fe302     1.0  0.58687  0.43542  0.66906  1.0000
  S   S596      1.0  0.61152  0.42245  0.68569  1.0000
  Fe  Fe303     1.0  0.54375  0.43888  0.66451  1.0000
  S   S597      1.0  0.59723  0.45160  0.63894  1.0000
  S   S598      1.0  0.55090  0.45473  0.63409  1.0000
  C   C2018     1.0  0.61055  0.43233  0.70504  1.0000
  C   C2019     1.0  0.59255  0.43576  0.71885  1.0000
  C   C2020     1.0  0.62856  0.43621  0.70687  1.0000
  S   S599      1.0  0.84050  0.40128  0.50488  1.0000
  H   H3459     1.0  0.64253  0.43342  0.69634  1.0000
  H   H3460     1.0  0.63536  0.42726  0.50010  1.0000
  H   H3461     1.0  0.68604  0.40084  0.52766  1.0000
  H   H3462     1.0  0.78232  0.41536  0.53947  1.0000
  H   H3463     1.0  0.61244  0.46987  0.67424  1.0000
  H   H3464     1.0  0.90772  0.55768  0.69859  1.0000
  H   H3465     1.0  0.65103  0.43807  0.61898  1.0000
  H   H3466     1.0  0.54706  0.63497  0.71812  1.0000
  C   C2021     1.0  0.65964  0.40875  0.57881  1.0000
  C   C2022     1.0  0.64804  0.42707  0.58386  1.0000
  C   C2023     1.0  0.62753  0.42843  0.59364  1.0000
  C   C2024     1.0  0.61836  0.41164  0.59786  1.0000
  C   C2025     1.0  0.62985  0.39343  0.59246  1.0000
  C   C2026     1.0  0.65058  0.39184  0.58331  1.0000
  H   H3467     1.0  0.65498  0.44021  0.58038  1.0000
  H   H3468     1.0  0.61870  0.44255  0.59765  1.0000
  H   H3469     1.0  0.62280  0.38039  0.59578  1.0000
  H   H3470     1.0  0.65944  0.37763  0.57957  1.0000
  C   C2027     1.0  0.78619  0.37499  0.56158  1.0000
  C   C2028     1.0  0.76927  0.38520  0.57298  1.0000
  C   C2029     1.0  0.77214  0.39436  0.58618  1.0000
  C   C2030     1.0  0.79194  0.39354  0.58774  1.0000
  C   C2031     1.0  0.80875  0.38464  0.57538  1.0000
  C   C2032     1.0  0.58430  0.53868  0.70284  1.0000
  H   H3471     1.0  0.75401  0.38601  0.57175  1.0000
  H   H3472     1.0  0.75906  0.40169  0.59542  1.0000
  H   H3473     1.0  0.82396  0.38500  0.57578  1.0000
  N   N145      1.0  0.78063  0.42352  0.49862  1.0000
  C   C2033     1.0  0.75854  0.43233  0.49743  1.0000
  H   H3474     1.0  0.69744  0.43220  0.52099  1.0000
  H   H3475     1.0  0.66994  0.35875  0.51575  1.0000
  H   H3476     1.0  0.87525  0.37308  0.66463  1.0000
  H   H3477     1.0  0.80647  0.34981  0.60881  1.0000
  H   H3478     1.0  0.85252  0.40254  0.56478  1.0000
  H   H3479     1.0  0.64980  0.41607  0.66039  1.0000
  C   C2034     1.0  0.59923  0.54818  0.63336  1.0000
  C   C2035     1.0  0.57816  0.55582  0.63534  1.0000
  C   C2036     1.0  0.56538  0.54330  0.63530  1.0000
  C   C2037     1.0  0.57354  0.52298  0.63361  1.0000
  C   C2038     1.0  0.59466  0.51542  0.63125  1.0000
  C   C2039     1.0  0.60750  0.52805  0.63108  1.0000
  H   H3480     1.0  0.57172  0.57142  0.63676  1.0000
  H   H3481     1.0  0.54905  0.54927  0.63702  1.0000
  H   H3482     1.0  0.60107  0.49983  0.62971  1.0000
  H   H3483     1.0  0.62381  0.52215  0.62940  1.0000
  C   C2040     1.0  0.52570  0.52542  0.60383  1.0000
  S   S600      1.0  0.69582  0.34950  0.56059  1.0000
  C   C2041     1.0  0.64272  0.39922  0.63714  1.0000
  H   H3484     1.0  0.78298  0.45122  0.50520  1.0000
  H   H3485     1.0  0.87225  0.35977  0.71909  1.0000
  H   H3486     1.0  0.62456  0.38794  0.66524  1.0000
  H   H3487     1.0  0.83496  0.36226  0.68283  1.0000
  C   C2042     1.0  0.62916  0.38480  0.65090  1.0000
  H   H3488     1.0  0.90776  0.53378  0.69467  1.0000
  H   H3489     1.0  0.52901  0.59370  0.69281  1.0000
  C   C2043     1.0  0.67586  0.37480  0.64086  1.0000
  H   H3490     1.0  0.64255  0.44695  0.72340  1.0000
  C   C2044     1.0  0.52364  0.60071  0.63663  1.0000
  C   C2045     1.0  0.91396  0.34382  0.65583  1.0000
  H   H3491     1.0  0.80309  0.43002  0.51007  1.0000
  H   H3492     1.0  0.62290  0.59643  0.70684  1.0000
  S   S601      1.0  0.57999  0.59575  0.71388  1.0000
  H   H3493     1.0  0.53198  0.59357  0.72960  1.0000
  H   H3494     1.0  0.63956  0.62050  0.67875  1.0000
  H   H3495     1.0  0.81897  0.36852  0.55284  1.0000
  C   C2046     1.0  0.64578  0.41075  0.53458  1.0000
  N   N146      1.0  0.50805  0.61855  0.72015  1.0000
  H   H3496     1.0  0.67653  0.44176  0.60951  1.0000
  H   H3497     1.0  0.90606  0.34361  0.69916  1.0000
  C   C2047     1.0  0.84773  0.40281  0.53781  1.0000
  C   C2048     1.0  0.95465  0.60162  0.71051  1.0000
  C   C2049     1.0  0.94296  0.59206  0.70460  1.0000
  C   C2050     1.0  0.94929  0.58793  0.68649  1.0000
  H   H3498     1.0  0.90622  0.38193  0.52469  1.0000
  H   H3499     1.0  0.54009  0.59886  0.63359  1.0000
  H   H3500     1.0  0.94028  0.58060  0.68180  1.0000
  H   H3501     1.0  0.51247  0.36285  0.58326  1.0000
  C   C2051     1.0  0.91390  0.40764  0.67228  1.0000
  C   C2052     1.0  0.91550  0.40000  0.65646  1.0000
  C   C2053     1.0  0.89831  0.40336  0.64884  1.0000
  C   C2054     1.0  0.87944  0.41406  0.65723  1.0000
  C   C2055     1.0  0.87785  0.42168  0.67304  1.0000
  C   C2056     1.0  0.89507  0.41853  0.68053  1.0000
  H   H3502     1.0  0.93010  0.39163  0.65002  1.0000
  H   H3503     1.0  0.89969  0.39782  0.63640  1.0000
  H   H3504     1.0  0.86324  0.42996  0.67956  1.0000
  H   H3505     1.0  0.89368  0.42419  0.69289  1.0000
  C   C2057     1.0  0.92856  0.51914  0.65752  1.0000
  C   C2058     1.0  0.92607  0.52877  0.63917  1.0000
  C   C2059     1.0  0.93988  0.54057  0.62701  1.0000
  C   C2060     1.0  0.50927  0.35079  0.57826  1.0000
  H   H3506     1.0  0.89173  0.37430  0.71129  1.0000
  C   C2061     1.0  0.94434  0.52210  0.66403  1.0000
  H   H3507     1.0  0.91376  0.52675  0.63416  1.0000
  H   H3508     1.0  0.93829  0.54747  0.61261  1.0000
  C   C2062     1.0  0.88124  0.36839  0.70634  1.0000
  H   H3509     1.0  0.94619  0.51483  0.67828  1.0000
  H   H3510     1.0  0.59529  0.54904  0.69635  1.0000
  H   H3511     1.0  0.61687  0.56224  0.73473  1.0000
  H   H3512     1.0  0.82295  0.33689  0.62428  1.0000
  H   H3513     1.0  0.53197  0.53316  0.68301  1.0000
  H   H3514     1.0  0.64653  0.44357  0.50660  1.0000
  H   H3515     1.0  0.57867  0.43249  0.71763  1.0000
  C   C2063     1.0  0.77562  0.43069  0.53179  1.0000
  C   C2064     1.0  0.50223  0.41080  0.63921  1.0000
  C   C2065     1.0  0.49989  0.60797  0.70964  1.0000
  C   C2066     1.0  0.49997  0.42549  0.66557  1.0000
  H   H3516     1.0  0.77839  0.44191  0.53831  1.0000
  H   H3517     1.0  0.75884  0.43248  0.53410  1.0000
  C   C2067     1.0  0.50314  0.35504  0.62090  1.0000
  H   H3518     1.0  0.72183  0.38147  0.49825  1.0000
  H   H3519     1.0  0.67544  0.40698  0.61017  1.0000
  H   H3520     1.0  0.61831  0.51952  0.73058  1.0000
  C   C2068     1.0  0.79229  0.34968  0.63774  1.0000
  H   H3521     1.0  0.52565  0.49566  0.62234  1.0000
  H   H3522     1.0  0.96950  0.53747  0.65711  1.0000
  C   C2069     1.0  0.92415  0.53206  0.71556  1.0000
  H   H3523     1.0  0.51250  0.52468  0.64430  1.0000
  C   C2070     1.0  0.86616  0.34363  0.55104  1.0000
  H   H3524     1.0  0.93633  0.47052  0.62346  1.0000
  H   H3525     1.0  0.77620  0.35288  0.63637  1.0000
  C   C2071     1.0  0.78632  0.43436  0.51066  1.0000
  C   C2072     1.0  0.61469  0.60371  0.71850  1.0000
  H   H3526     1.0  0.88485  0.38795  0.50122  1.0000
  C   C2073     1.0  0.71550  0.35746  0.48931  1.0000
  C   C2074     1.0  0.67522  0.41022  0.62384  1.0000
  H   H3527     1.0  0.56900  0.54791  0.70123  1.0000
  C   C2075     1.0  0.77397  0.33515  0.60450  1.0000
  C   C2076     1.0  0.51120  0.61344  0.64863  1.0000
  H   H3528     1.0  0.57568  0.65613  0.69928  1.0000
  H   H3529     1.0  0.63631  0.36845  0.65138  1.0000
  H   H3530     1.0  0.53747  0.49557  0.71814  1.0000
  N   N147      1.0  0.57667  0.50585  0.69811  1.0000
  C   C2077     1.0  0.58939  0.48537  0.69466  1.0000
  C   C2078     1.0  0.56644  0.50261  0.71886  1.0000
  H   H3531     1.0  0.66389  0.36659  0.62019  1.0000
  C   C2079     1.0  0.56146  0.51312  0.68558  1.0000
  C   C2080     1.0  0.60190  0.48503  0.67434  1.0000
  C   C2081     1.0  0.55027  0.48913  0.72556  1.0000
  C   C2082     1.0  0.51473  0.59095  0.62797  1.0000
  C   C2083     1.0  0.54574  0.53317  0.68776  1.0000
  H   H3532     1.0  0.96885  0.48787  0.64977  1.0000
  H   H3533     1.0  0.57966  0.47402  0.69787  1.0000
  H   H3534     1.0  0.96266  0.53329  0.72179  1.0000
  H   H3535     1.0  0.98191  0.61392  0.70314  1.0000
  H   H3536     1.0  0.51979  0.49826  0.60042  1.0000
  H   H3537     1.0  0.97820  0.50311  0.62705  1.0000
  H   H3538     1.0  0.56963  0.51592  0.67057  1.0000
  H   H3539     1.0  0.55322  0.50104  0.68656  1.0000
  H   H3540     1.0  0.75706  0.33989  0.60862  1.0000
  H   H3541     1.0  0.59174  0.48667  0.66476  1.0000
  H   H3542     1.0  0.79380  0.34114  0.65222  1.0000
  H   H3543     1.0  0.51920  0.63765  0.69304  1.0000
  H   H3544     1.0  0.64191  0.60801  0.72411  1.0000
  C   C2084     1.0  0.52439  0.62888  0.70625  1.0000
  H   H3545     1.0  0.61500  0.41865  0.52829  1.0000
  C   C2085     1.0  0.66288  0.40299  0.65815  1.0000
  S   S602      1.0  0.72779  0.35994  0.58003  1.0000
  H   H3546     1.0  0.85420  0.54488  0.71521  1.0000
  H   H3547     1.0  0.87394  0.53885  0.69596  1.0000
  H   H3548     1.0  0.64382  0.39735  0.62276  1.0000
  H   H3549     1.0  0.50344  0.37122  0.61388  1.0000
  H   H3550     1.0  0.92403  0.53960  0.72673  1.0000
  C   C2086     1.0  0.66162  0.38656  0.67679  1.0000
  H   H3551     1.0  0.60340  0.65326  0.67184  1.0000
  H   H3552     1.0  0.67675  0.40886  0.65687  1.0000
  H   H3553     1.0  0.62515  0.39134  0.53464  1.0000
  H   H3554     1.0  0.87620  0.50578  0.71337  1.0000
  C   C2087     1.0  0.80713  0.33873  0.62249  1.0000
  C   C2088     1.0  0.80589  0.37543  0.56228  1.0000
  C   C2089     1.0  0.62440  0.40647  0.53723  1.0000
  H   H3555     1.0  0.67286  0.64949  0.59681  1.0000
  C   C2090     1.0  0.88128  0.55737  0.73109  1.0000
  H   H3556     1.0  0.61615  0.40626  0.55217  1.0000
  H   H3557     1.0  0.64069  0.64090  0.61858  1.0000
  H   H3558     1.0  0.51007  0.46665  0.62663  1.0000
  C   C2091     1.0  0.51635  0.50614  0.61228  1.0000
  H   H3559     1.0  0.54256  0.52058  0.59930  1.0000
  C   C2092     1.0  0.86927  0.54826  0.70684  1.0000
  H   H3560     1.0  0.52290  0.53514  0.61403  1.0000
  H   H3561     1.0  0.78682  0.32751  0.51308  1.0000
  C   C2093     1.0  0.62858  0.44386  0.72218  1.0000
  H   H3562     1.0  0.86138  0.33713  0.71128  1.0000
  H   H3563     1.0  0.55214  0.54663  0.67886  1.0000
  H   H3564     1.0  0.51862  0.57648  0.71406  1.0000
  H   H3565     1.0  0.85794  0.58131  0.70582  1.0000
  C   C2094     1.0  0.59105  0.52045  0.69304  1.0000
  H   H3566     1.0  0.52225  0.40206  0.73564  1.0000
  H   H3567     1.0  0.89662  0.33077  0.52356  1.0000
  H   H3568     1.0  0.98922  0.48984  0.66945  1.0000
  H   H3569     1.0  0.93777  0.44717  0.64090  1.0000
  H   H3570     1.0  0.81047  0.33286  0.58176  1.0000
  C   C2095     1.0  0.67870  0.36635  0.62319  1.0000
  H   H3571     1.0  0.64307  0.42555  0.53876  1.0000
  S   S603      1.0  0.71972  0.33852  0.50952  1.0000
  C   C2096     1.0  0.95583  0.54336  0.63334  1.0000
  C   C2097     1.0  0.85418  0.33226  0.50821  1.0000
  H   H3572     1.0  0.84566  0.36714  0.69996  1.0000
  H   H3573     1.0  0.88531  0.34904  0.50617  1.0000
  H   H3574     1.0  0.69159  0.40732  0.62458  1.0000
  H   H3575     1.0  0.51114  0.42248  0.71939  1.0000
  H   H3576     1.0  0.92608  0.34586  0.66173  1.0000
  H   H3577     1.0  0.49646  0.40293  0.71143  1.0000
  C   C2098     1.0  0.99282  0.53229  0.72511  1.0000
  H   H3578     1.0  0.51134  0.40516  0.62682  1.0000
  C   C2099     1.0  0.66160  0.39197  0.50866  1.0000
  H   H3579     1.0  0.59436  0.52702  0.67751  1.0000
  H   H3580     1.0  0.85530  0.57299  0.68642  1.0000
  S   S604      1.0  0.97386  0.55658  0.61701  1.0000
  H   H3581     1.0  0.55690  0.47311  0.72421  1.0000
  H   H3582     1.0  0.85067  0.35789  0.52835  1.0000
  H   H3583     1.0  0.90256  0.36567  0.68069  1.0000
  H   H3584     1.0  0.65806  0.36941  0.53609  1.0000
  C   C2100     1.0  0.68169  0.43342  0.51944  1.0000
  C   C2101     1.0  0.87268  0.32961  0.70043  1.0000
  H   H3585     1.0  0.68692  0.35008  0.62574  1.0000
  H   H3586     1.0  0.68430  0.37063  0.52409  1.0000
  C   C2102     1.0  0.96764  0.59261  0.67460  1.0000
  H   H3587     1.0  0.83294  0.33488  0.58822  1.0000
  H   H3588     1.0  0.62389  0.63737  0.58374  1.0000
  S   S605      1.0  0.56797  0.63575  0.66912  1.0000
  C   C2103     1.0  0.85968  0.39933  0.55099  1.0000
  H   H3589     1.0  0.77331  0.39866  0.52216  1.0000
  H   H3590     1.0  0.86513  0.35307  0.66309  1.0000
  H   H3591     1.0  0.63373  0.41497  0.63772  1.0000
  C   C2104     1.0  0.53289  0.64328  0.71302  1.0000
  S   S606      1.0  0.74504  0.32924  0.55017  1.0000
  H   H3592     1.0  0.53787  0.61727  0.70133  1.0000
  C   C2105     1.0  0.51148  0.41725  0.73458  1.0000
  H   H3593     1.0  0.61479  0.38773  0.64592  1.0000
  N   N148      1.0  0.89175  0.47611  0.62831  1.0000
  C   C2106     1.0  0.90837  0.45772  0.63295  1.0000
  C   C2107     1.0  0.87360  0.46865  0.62753  1.0000
  C   C2108     1.0  0.88508  0.48866  0.64316  1.0000
  C   C2109     1.0  0.89999  0.48930  0.60969  1.0000
  C   C2110     1.0  0.92749  0.46205  0.63645  1.0000
  C   C2111     1.0  0.87626  0.45920  0.61054  1.0000
  C   C2112     1.0  0.87858  0.47690  0.66370  1.0000
  C   C2113     1.0  0.88478  0.50863  0.60222  1.0000
  H   H3594     1.0  0.90235  0.44662  0.64561  1.0000
  H   H3595     1.0  0.91395  0.44916  0.62144  1.0000
  H   H3596     1.0  0.85953  0.48094  0.62789  1.0000
  H   H3597     1.0  0.86956  0.45679  0.64040  1.0000
  H   H3598     1.0  0.89726  0.49648  0.64267  1.0000
  H   H3599     1.0  0.87184  0.50134  0.64027  1.0000
  H   H3600     1.0  0.91299  0.49506  0.61077  1.0000
  H   H3601     1.0  0.90698  0.48035  0.59847  1.0000
  H   H3602     1.0  0.67121  0.43699  0.53267  1.0000
  H   H3603     1.0  0.92375  0.47029  0.64799  1.0000
  C   C2114     1.0  0.97278  0.60676  0.69842  1.0000
  H   H3604     1.0  0.86216  0.45373  0.61199  1.0000
  H   H3605     1.0  0.87826  0.47053  0.59691  1.0000
  H   H3606     1.0  0.88904  0.44565  0.61013  1.0000
  H   H3607     1.0  0.87360  0.48783  0.67319  1.0000
  H   H3608     1.0  0.89145  0.46514  0.66863  1.0000
  H   H3609     1.0  0.86548  0.46976  0.66561  1.0000
  H   H3610     1.0  0.88501  0.52176  0.60780  1.0000
  H   H3611     1.0  0.86885  0.50654  0.60572  1.0000
  H   H3612     1.0  0.88907  0.51262  0.58652  1.0000
  C   C2115     1.0  0.84695  0.36885  0.68474  1.0000
  C   C2116     1.0  0.90577  0.54187  0.70608  1.0000
  N   N149      1.0  0.88297  0.34461  0.68449  1.0000
  C   C2117     1.0  0.77958  0.38669  0.49780  1.0000
  H   H3613     1.0  0.54010  0.53491  0.70254  1.0000
  N   N150      1.0  0.66386  0.39649  0.64031  1.0000
  C   C2118     1.0  0.85668  0.39844  0.51999  1.0000
  H   H3614     1.0  0.66657  0.43891  0.63436  1.0000
  S   S607      1.0  0.78305  0.36092  0.54700  1.0000
  H   H3615     1.0  0.69142  0.37341  0.64309  1.0000
  H   H3616     1.0  0.69174  0.41036  0.50294  1.0000
  Fe  Fe304     1.0  0.70537  0.37740  0.56182  1.0000
  C   C2119     1.0  0.66661  0.43348  0.62185  1.0000
  H   H3617     1.0  0.60621  0.51222  0.69639  1.0000
  C   C2120     1.0  0.86561  0.57081  0.69606  1.0000
  Fe  Fe305     1.0  0.72121  0.34902  0.53459  1.0000
  H   H3618     1.0  0.79953  0.39512  0.51039  1.0000
  C   C2121     1.0  0.51482  0.58952  0.70234  1.0000
  C   C2122     1.0  0.63515  0.64144  0.57038  1.0000
  H   H3619     1.0  0.57817  0.49568  0.72766  1.0000
  H   H3620     1.0  0.50740  0.58414  0.69385  1.0000
  C   C2123     1.0  0.59269  0.44304  0.73447  1.0000
  C   C2124     1.0  0.88761  0.50380  0.72185  1.0000
  H   H3621     1.0  0.67881  0.44640  0.50741  1.0000
  C   C2125     1.0  0.78368  0.40107  0.50797  1.0000
  H   H3622     1.0  0.61118  0.65075  0.55489  1.0000
  H   H3623     1.0  0.52768  0.41847  0.64490  1.0000
  H   H3624     1.0  0.52012  0.53491  0.59108  1.0000
  H   H3625     1.0  0.66871  0.36387  0.65301  1.0000
  C   C2126     1.0  0.89420  0.35509  0.69224  1.0000
  C   C2127     1.0  0.83095  0.33310  0.51498  1.0000
  N   N151      1.0  0.86612  0.32789  0.52338  1.0000
  H   H3626     1.0  0.61146  0.49672  0.66866  1.0000
  C   C2128     1.0  0.68032  0.41297  0.51606  1.0000
  H   H3627     1.0  0.65332  0.39918  0.54541  1.0000
  N   N152      1.0  0.88482  0.54225  0.71898  1.0000
  H   H3628     1.0  0.74819  0.42594  0.51068  1.0000
  Fe  Fe306     1.0  0.55610  0.61852  0.65500  1.0000
  H   H3629     1.0  0.60037  0.47907  0.70420  1.0000
  H   H3630     1.0  0.53676  0.65604  0.70095  1.0000
  S   S608      1.0  0.52190  0.62695  0.65859  1.0000
  H   H3631     1.0  0.84035  0.33753  0.54507  1.0000
  H   H3632     1.0  0.78419  0.37068  0.50553  1.0000
  H   H3633     1.0  0.50540  0.35308  0.63537  1.0000
  H   H3634     1.0  0.77954  0.34949  0.60062  1.0000
  N   N153      1.0  0.65947  0.41124  0.51516  1.0000
  H   H3635     1.0  0.90633  0.35891  0.64866  1.0000
  H   H3636     1.0  0.85625  0.35536  0.55893  1.0000
  H   H3637     1.0  0.52438  0.58150  0.61830  1.0000
  S   S609      1.0  0.92120  0.58383  0.71996  1.0000
  H   H3638     1.0  0.55842  0.51723  0.72315  1.0000
  H   H3639     1.0  0.93836  0.53384  0.70460  1.0000
  H   H3640     1.0  0.67655  0.37569  0.67720  1.0000
  H   H3641     1.0  0.64961  0.37786  0.67940  1.0000
  C   C2129     1.0  0.95768  0.53467  0.65204  1.0000
  H   H3642     1.0  0.67289  0.39178  0.49497  1.0000
  C   C2130     1.0  0.62452  0.65670  0.55500  1.0000
  H   H3643     1.0  0.92175  0.33470  0.64489  1.0000
  C   C2131     1.0  0.60750  0.65439  0.68472  1.0000
  H   H3644     1.0  0.85597  0.34714  0.49818  1.0000
  C   C2132     1.0  0.88991  0.38786  0.52829  1.0000
  C   C2133     1.0  0.86823  0.35999  0.67340  1.0000
  H   H3645     1.0  0.52199  0.65078  0.72402  1.0000
  H   H3646     1.0  0.61115  0.63845  0.69277  1.0000
  H   H3647     1.0  0.68824  0.37446  0.61047  1.0000
  H   H3648     1.0  0.64698  0.64730  0.57336  1.0000
  C   C2134     1.0  0.62542  0.61020  0.72828  1.0000
  H   H3649     1.0  0.53496  0.43523  0.72724  1.0000
  H   H3650     1.0  0.84281  0.38554  0.67879  1.0000
  C   C2135     1.0  0.88308  0.52163  0.73181  1.0000
  H   H3651     1.0  0.82470  0.33430  0.50259  1.0000
  H   H3652     1.0  0.76304  0.38916  0.49826  1.0000
  H   H3653     1.0  0.64281  0.62697  0.56558  1.0000
  H   H3654     1.0  0.87129  0.38210  0.69942  1.0000
  C   C2136     1.0  0.62640  0.53102  0.73117  1.0000
  H   H3655     1.0  0.90313  0.50173  0.71271  1.0000
  H   H3656     1.0  0.88372  0.57268  0.72244  1.0000
  H   H3657     1.0  0.88680  0.48932  0.73272  1.0000
  H   H3658     1.0  0.94978  0.60497  0.72443  1.0000
  H   H3659     1.0  0.88000  0.57533  0.68720  1.0000
  H   H3660     1.0  0.92520  0.51548  0.72145  1.0000
  H   H3661     1.0  0.65797  0.39418  0.68882  1.0000
  H   H3662     1.0  0.66417  0.62380  0.66508  1.0000
  H   H3663     1.0  0.63313  0.53838  0.71649  1.0000
  C   C2137     1.0  0.64245  0.65265  0.66654  1.0000
  H   H3664     1.0  0.51628  0.34472  0.61377  1.0000
  C   C2138     1.0  0.64206  0.65671  0.61320  1.0000
  C   C2139     1.0  0.97389  0.54337  0.71678  1.0000
  H   H3665     1.0  0.58466  0.53346  0.71806  1.0000
  H   H3666     1.0  0.77780  0.32846  0.59189  1.0000
  H   H3667     1.0  0.97251  0.58914  0.66073  1.0000
  C   C2140     1.0  0.88692  0.33260  0.51357  1.0000
  H   H3668     1.0  0.52346  0.33868  0.57735  1.0000
  C   C2141     1.0  0.97865  0.48734  0.63550  1.0000
  H   H3669     1.0  0.50010  0.49340  0.64927  1.0000
  H   H3670     1.0  0.99001  0.57548  0.72373  1.0000
  H   H3671     1.0  0.86883  0.32933  0.56179  1.0000
  H   H3672     1.0  0.63200  0.64850  0.70712  1.0000
  C   C2142     1.0  0.61074  0.44714  0.73611  1.0000
  H   H3673     1.0  0.88061  0.34902  0.54430  1.0000
  C   C2143     1.0  0.85496  0.34202  0.53664  1.0000
  H   H3674     1.0  0.97754  0.54653  0.70111  1.0000
  H   H3675     1.0  0.85056  0.32641  0.68572  1.0000
  Fe  Fe307     1.0  0.72065  0.33211  0.57623  1.0000
  H   H3676     1.0  0.63511  0.65534  0.54123  1.0000
  H   H3677     1.0  0.75499  0.44914  0.49649  1.0000
  H   H3678     1.0  0.59714  0.55062  0.73624  1.0000
  H   H3679     1.0  0.77136  0.34930  0.48754  1.0000
  C   C2144     1.0  0.49588  0.52505  0.64839  1.0000
  H   H3680     1.0  0.99476  0.51312  0.67018  1.0000
  C   C2145     1.0  0.71741  0.37749  0.48734  1.0000
  Fe  Fe308     1.0  0.90221  0.58976  0.78880  1.0000
  S   S610      1.0  0.92959  0.59662  0.76590  1.0000
  S   S611      1.0  0.87893  0.61293  0.80377  1.0000
  Fe  Fe309     1.0  0.91138  0.54512  0.78646  1.0000
  C   C2146     1.0  0.74297  0.62412  0.94490  1.0000
  S   S612      1.0  0.89864  0.51684  0.80040  1.0000
  Fe  Fe310     1.0  0.94584  0.56647  0.78063  1.0000
  H   H3681     1.0  0.75036  0.60946  0.84027  1.0000
  H   H3682     1.0  0.68856  0.63581  0.81907  1.0000
  H   H3683     1.0  0.78741  0.63071  0.97395  1.0000
  S   S613      1.0  0.91922  0.56108  0.80476  1.0000
  C   C2147     1.0  0.61156  0.54763  0.74112  1.0000
  H   H3684     1.0  0.71172  0.64063  0.96888  1.0000
  H   H3685     1.0  0.98092  0.42334  0.75550  1.0000
  H   H3686     1.0  0.67521  0.63171  0.84277  1.0000
  S   S614      1.0  0.61479  0.54517  0.82360  1.0000
  C   C2148     1.0  0.74705  0.61742  0.82619  1.0000
  H   H3687     1.0  0.50667  0.59109  0.74236  1.0000
  H   H3688     1.0  0.72998  0.63355  0.93824  1.0000
  H   H3689     1.0  0.69646  0.59803  0.82002  1.0000
  H   H3690     1.0  0.59947  0.33361  0.87085  1.0000
  H   H3691     1.0  0.74818  0.63366  0.82329  1.0000
  H   H3692     1.0  0.92825  0.48396  0.74611  1.0000
  Fe  Fe311     1.0  0.61392  0.61788  0.78803  1.0000
  H   H3693     1.0  0.51352  0.53027  0.79301  1.0000
  C   C2149     1.0  0.88271  0.64775  0.98169  1.0000
  H   H3694     1.0  0.54228  0.59433  0.85154  1.0000
  H   H3695     1.0  0.94739  0.48120  0.79526  1.0000
  H   H3696     1.0  0.78898  0.56492  0.90937  1.0000
  C   C2150     1.0  0.77385  0.62418  0.89571  1.0000
  S   S615      1.0  0.89885  0.61997  0.87824  1.0000
  H   H3697     1.0  0.72313  0.61653  0.98149  1.0000
  H   H3698     1.0  0.71082  0.59097  0.85537  1.0000
  Fe  Fe312     1.0  0.58488  0.45309  0.77963  1.0000
  S   S616      1.0  0.56687  0.42856  0.78656  1.0000
  H   H3699     1.0  0.62277  0.53534  0.78544  1.0000
  Fe  Fe313     1.0  0.55641  0.47527  0.80958  1.0000
  S   S617      1.0  0.53604  0.45273  0.81895  1.0000
  S   S618      1.0  0.54533  0.50439  0.82025  1.0000
  Fe  Fe314     1.0  0.56522  0.42874  0.81680  1.0000
  S   S619      1.0  0.56486  0.40108  0.84120  1.0000
  Fe  Fe315     1.0  0.53967  0.45461  0.78821  1.0000
  S   S620      1.0  0.58553  0.45140  0.80975  1.0000
  S   S621      1.0  0.55787  0.47898  0.77893  1.0000
  C   C2151     1.0  0.53551  0.59848  0.80799  1.0000
  S   S622      1.0  0.62839  0.62572  0.75690  1.0000
  H   H3700     1.0  0.62251  0.35153  0.88851  1.0000
  C   C2152     1.0  0.65017  0.65560  0.87105  1.0000
  S   S623      1.0  0.53912  0.62965  0.82183  1.0000
  H   H3701     1.0  0.92256  0.51196  0.76278  1.0000
  C   C2153     1.0  0.68433  0.60502  0.83079  1.0000
  S   S624      1.0  0.64245  0.32953  0.85198  1.0000
  S   S625      1.0  0.83934  0.63043  0.89856  1.0000
  H   H3702     1.0  0.56093  0.52718  0.86042  1.0000
  H   H3703     1.0  0.56243  0.36932  0.91245  1.0000
  S   S626      1.0  0.63230  0.59729  0.80896  1.0000
  N   N154      1.0  0.60735  0.54300  0.76240  1.0000
  H   H3704     1.0  0.96156  0.48315  0.76253  1.0000
  H   H3705     1.0  0.62082  0.50000  0.76041  1.0000
  S   S627      1.0  0.59060  0.59854  0.79573  1.0000
  H   H3706     1.0  0.75968  0.60545  0.97717  1.0000
  C   C2154     1.0  0.62057  0.34875  0.84818  1.0000
  C   C2155     1.0  0.60129  0.34713  0.85979  1.0000
  C   C2156     1.0  0.58426  0.36303  0.85703  1.0000
  C   C2157     1.0  0.58638  0.38082  0.84289  1.0000
  C   C2158     1.0  0.60559  0.38233  0.83106  1.0000
  C   C2159     1.0  0.62261  0.36625  0.83363  1.0000
  H   H3707     1.0  0.56276  0.55911  0.88067  1.0000
  H   H3708     1.0  0.56936  0.36166  0.86602  1.0000
  H   H3709     1.0  0.60735  0.39594  0.82005  1.0000
  H   H3710     1.0  0.63747  0.36756  0.82454  1.0000
  C   C2160     1.0  0.58293  0.61480  0.73975  1.0000
  Fe  Fe316     1.0  0.87155  0.62086  0.90260  1.0000
  H   H3711     1.0  0.53659  0.61324  0.87786  1.0000
  C   C2161     1.0  0.52212  0.55837  0.88936  1.0000
  N   N155      1.0  0.74471  0.63304  0.96040  1.0000
  C   C2162     1.0  0.74027  0.60175  0.95050  1.0000
  C   C2163     1.0  0.59542  0.53377  0.82297  1.0000
  C   C2164     1.0  0.59944  0.51267  0.82410  1.0000
  C   C2165     1.0  0.58416  0.50342  0.82325  1.0000
  C   C2166     1.0  0.56479  0.51529  0.82143  1.0000
  C   C2167     1.0  0.56081  0.53634  0.82032  1.0000
  C   C2168     1.0  0.57610  0.54560  0.82104  1.0000
  H   H3712     1.0  0.61441  0.50346  0.82556  1.0000
  H   H3713     1.0  0.58734  0.48713  0.82415  1.0000
  H   H3714     1.0  0.54589  0.54546  0.81870  1.0000
  H   H3715     1.0  0.57304  0.56186  0.82008  1.0000
  C   C2169     1.0  0.91825  0.48338  0.75990  1.0000
  C   C2170     1.0  0.88564  0.61683  0.82316  1.0000
  C   C2171     1.0  0.87136  0.62914  0.83478  1.0000
  C   C2172     1.0  0.87547  0.63052  0.85154  1.0000
  C   C2173     1.0  0.89402  0.61988  0.85658  1.0000
  C   C2174     1.0  0.90873  0.60848  0.84443  1.0000
  C   C2175     1.0  0.90449  0.60681  0.82783  1.0000
  H   H3716     1.0  0.63809  0.62810  0.88219  1.0000
  C   C2176     1.0  0.50389  0.59551  0.80221  1.0000
  H   H3717     1.0  0.92323  0.60045  0.84812  1.0000
  H   H3718     1.0  0.91578  0.59765  0.81875  1.0000
  H   H3719     1.0  0.72748  0.59912  0.82454  1.0000
  C   C2177     1.0  0.97417  0.52300  0.80153  1.0000
  H   H3720     1.0  0.58555  0.52564  0.76251  1.0000
  H   H3721     1.0  0.88938  0.45261  0.79368  1.0000
  C   C2178     1.0  0.70878  0.60663  0.85757  1.0000
  H   H3722     1.0  0.68818  0.62402  0.87857  1.0000
  H   H3723     1.0  0.95799  0.52808  0.80179  1.0000
  H   H3724     1.0  0.97225  0.49148  0.81364  1.0000
  C   C2179     1.0  0.54212  0.59643  0.87946  1.0000
  H   H3725     1.0  0.98536  0.48914  0.75026  1.0000
  H   H3726     1.0  0.53861  0.56706  0.84079  1.0000
  H   H3727     1.0  0.52169  0.51469  0.77599  1.0000
  H   H3728     1.0  0.50756  0.49463  0.80642  1.0000
  H   H3729     1.0  0.59995  0.32731  0.98435  1.0000
  C   C2180     1.0  0.90259  0.49809  0.78756  1.0000
  C   C2181     1.0  0.89323  0.48136  0.79614  1.0000
  H   H3730     1.0  0.76276  0.64536  0.98211  1.0000
  H   H3731     1.0  0.58533  0.62857  0.76113  1.0000
  C   C2182     1.0  0.70846  0.64278  0.84242  1.0000
  H   H3732     1.0  0.88361  0.48043  0.81021  1.0000
  C   C2183     1.0  0.97100  0.43881  0.75504  1.0000
  H   H3733     1.0  0.76725  0.65322  0.92356  1.0000
  H   H3734     1.0  0.50559  0.39421  0.76879  1.0000
  H   H3735     1.0  0.76977  0.64068  0.89173  1.0000
  C   C2184     1.0  0.52866  0.56151  0.85460  1.0000
  H   H3736     1.0  0.93363  0.59086  0.97957  1.0000
  S   S628      1.0  0.51354  0.46240  0.77372  1.0000
  H   H3737     1.0  0.95829  0.43913  0.74869  1.0000
  Fe  Fe317     1.0  0.83408  0.60291  0.92163  1.0000
  S   S629      1.0  0.58855  0.59747  0.83980  1.0000
  C   C2185     1.0  0.64252  0.37269  0.87457  1.0000
  H   H3738     1.0  0.56997  0.56836  0.75173  1.0000
  H   H3739     1.0  0.72511  0.60009  0.95980  1.0000
  S   S630      1.0  0.61138  0.45705  0.75494  1.0000
  C   C2186     1.0  0.98703  0.53705  0.79458  1.0000
  C   C2187     1.0  0.91515  0.49914  0.76939  1.0000
  H   H3740     1.0  0.63767  0.52522  0.76588  1.0000
  C   C2188     1.0  0.86798  0.61901  0.98375  1.0000
  C   C2189     1.0  0.62653  0.53895  0.76968  1.0000
  C   C2190     1.0  0.99211  0.42564  0.78764  1.0000
  H   H3741     1.0  0.59249  0.56042  0.78403  1.0000
  H   H3742     1.0  0.97449  0.49432  0.77345  1.0000
  C   C2191     1.0  0.50472  0.62404  0.81442  1.0000
  H   H3743     1.0  0.77613  0.61619  0.95657  1.0000
  N   N156      1.0  0.97702  0.44584  0.78468  1.0000
  H   H3744     1.0  0.94933  0.45654  0.77364  1.0000
  Fe  Fe318     1.0  0.85842  0.61107  0.94542  1.0000
  C   C2192     1.0  0.61488  0.61889  0.74388  1.0000
  C   C2193     1.0  0.79003  0.61467  0.90500  1.0000
  C   C2194     1.0  0.63826  0.55653  0.76318  1.0000
  H   H3745     1.0  0.51775  0.59788  0.86638  1.0000
  C   C2195     1.0  0.72515  0.63251  0.97534  1.0000
  H   H3746     1.0  0.53101  0.55430  0.90060  1.0000
  C   C2196     1.0  0.53365  0.58906  0.86617  1.0000
  H   H3747     1.0  0.90837  0.56260  0.97589  1.0000
  H   H3748     1.0  0.68220  0.59367  0.84439  1.0000
  Fe  Fe319     1.0  0.61231  0.61695  0.82911  1.0000
  H   H3749     1.0  0.92663  0.57513  0.95836  1.0000
  C   C2197     1.0  0.69019  0.60958  0.87413  1.0000
  C   C2198     1.0  0.72609  0.61548  0.82441  1.0000
  H   H3750     1.0  0.86135  0.54926  0.75904  1.0000
  C   C2199     1.0  0.50641  0.57027  0.85246  1.0000
  C   C2200     1.0  0.89648  0.46563  0.78677  1.0000
  C   C2201     1.0  0.97663  0.48321  0.76459  1.0000
  H   H3751     1.0  0.94096  0.46944  0.81958  1.0000
  C   C2202     1.0  0.61015  0.50344  0.77354  1.0000
  C   C2203     1.0  0.68862  0.62479  0.83295  1.0000
  H   H3752     1.0  0.55907  0.59367  0.87558  1.0000
  C   C2204     1.0  0.57099  0.56632  0.76653  1.0000
  H   H3753     1.0  0.53078  0.54475  0.85623  1.0000
  H   H3754     1.0  0.50479  0.56697  0.83940  1.0000
  H   H3755     1.0  0.52768  0.59632  0.76127  1.0000
  H   H3756     1.0  0.93359  0.46055  0.80304  1.0000
  S   S631      1.0  0.97751  0.56257  0.78460  1.0000
  H   H3757     1.0  0.56291  0.58099  0.77081  1.0000
  S   S632      1.0  0.82514  0.61960  0.94497  1.0000
  C   C2205     1.0  0.79552  0.59329  0.90986  1.0000
  H   H3758     1.0  0.50197  0.58711  0.85074  1.0000
  H   H3759     1.0  0.96245  0.43607  0.81407  1.0000
  S   S633      1.0  0.59576  0.63922  0.80734  1.0000
  C   C2206     1.0  0.77115  0.62989  0.98030  1.0000
  H   H3760     1.0  0.65491  0.36169  0.88099  1.0000
  C   C2207     1.0  0.63387  0.64180  0.85381  1.0000
  S   S634      1.0  0.81630  0.58100  0.92047  1.0000
  H   H3761     1.0  0.72152  0.64172  0.84870  1.0000
  S   S635      1.0  0.89198  0.57332  0.77244  1.0000
  H   H3762     1.0  0.55142  0.59239  0.80802  1.0000
  S   S636      1.0  0.86681  0.59183  0.92394  1.0000
  C   C2208     1.0  0.57511  0.37725  0.90426  1.0000
  H   H3763     1.0  0.67585  0.60875  0.87094  1.0000
  C   C2209     1.0  0.96198  0.44311  0.77500  1.0000
  H   H3764     1.0  0.56694  0.56192  0.85586  1.0000
  C   C2210     1.0  0.98226  0.50227  0.80815  1.0000
  H   H3765     1.0  0.50458  0.61508  0.76119  1.0000
  H   H3766     1.0  0.86413  0.63945  0.86071  1.0000
  S   S637      1.0  0.86598  0.59968  0.97404  1.0000
  H   H3767     1.0  0.55242  0.52492  0.88577  1.0000
  S   S638      1.0  0.62376  0.62135  0.85294  1.0000
  C   C2211     1.0  0.96624  0.45028  0.80390  1.0000
  C   C2212     1.0  0.59665  0.52521  0.77087  1.0000
  H   H3768     1.0  0.53239  0.57401  0.79736  1.0000
  Fe  Fe320     1.0  0.60733  0.57962  0.81813  1.0000
  H   H3769     1.0  0.51116  0.44680  0.74055  1.0000
  C   C2213     1.0  0.52565  0.61656  0.81411  1.0000
  C   C2214     1.0  0.52467  0.58799  0.80210  1.0000
  N   N157      1.0  0.61289  0.37585  0.90386  1.0000
  C   C2215     1.0  0.62823  0.36584  0.91625  1.0000
  C   C2216     1.0  0.62131  0.36837  0.88570  1.0000
  C   C2217     1.0  0.59335  0.36845  0.91395  1.0000
  C   C2218     1.0  0.60961  0.39880  0.90076  1.0000
  C   C2219     1.0  0.62242  0.37060  0.93612  1.0000
  H   H3770     1.0  0.72404  0.62376  0.80993  1.0000
  C   C2220     1.0  0.55707  0.55588  0.86962  1.0000
  C   C2221     1.0  0.60182  0.41189  0.88284  1.0000
  H   H3771     1.0  0.63144  0.34890  0.91830  1.0000
  H   H3772     1.0  0.64318  0.37040  0.90946  1.0000
  H   H3773     1.0  0.60009  0.49213  0.77849  1.0000
  C   C2222     1.0  0.74644  0.65497  0.95151  1.0000
  H   H3774     1.0  0.59620  0.35145  0.91642  1.0000
  H   H3775     1.0  0.58755  0.37213  0.92814  1.0000
  H   H3776     1.0  0.59879  0.40416  0.91322  1.0000
  H   H3777     1.0  0.62430  0.40310  0.89963  1.0000
  H   H3778     1.0  0.63586  0.36417  0.94278  1.0000
  H   H3779     1.0  0.61823  0.38724  0.93565  1.0000
  H   H3780     1.0  0.61003  0.36302  0.94568  1.0000
  H   H3781     1.0  0.64529  0.37042  0.85999  1.0000
  C   C2223     1.0  0.76303  0.62037  0.96825  1.0000
  H   H3782     1.0  0.97648  0.45541  0.80990  1.0000
  H   H3783     1.0  0.79814  0.62388  0.90846  1.0000
  H   H3784     1.0  0.98396  0.41275  0.79442  1.0000
  H   H3785     1.0  0.59190  0.42651  0.88603  1.0000
  H   H3786     1.0  0.59259  0.40501  0.87747  1.0000
  H   H3787     1.0  0.61474  0.41637  0.87125  1.0000
  N   N158      1.0  0.85225  0.57238  0.86044  1.0000
  C   C2224     1.0  0.83922  0.59022  0.84949  1.0000
  C   C2225     1.0  0.86963  0.56314  0.84616  1.0000
  C   C2226     1.0  0.86044  0.58040  0.87297  1.0000
  C   C2227     1.0  0.83886  0.55758  0.87225  1.0000
  C   C2228     1.0  0.82183  0.60365  0.86127  1.0000
  C   C2229     1.0  0.86348  0.55507  0.83188  1.0000
  C   C2230     1.0  0.88100  0.56836  0.87817  1.0000
  C   C2231     1.0  0.84926  0.53762  0.88403  1.0000
  H   H3788     1.0  0.84889  0.60050  0.83908  1.0000
  H   H3789     1.0  0.83170  0.58494  0.84101  1.0000
  H   H3790     1.0  0.88042  0.55023  0.85294  1.0000
  H   H3791     1.0  0.87909  0.57464  0.83780  1.0000
  H   H3792     1.0  0.86294  0.59608  0.86617  1.0000
  H   H3793     1.0  0.84909  0.58188  0.88646  1.0000
  H   H3794     1.0  0.82649  0.56492  0.88276  1.0000
  H   H3795     1.0  0.83025  0.55373  0.86374  1.0000
  H   H3796     1.0  0.80950  0.59536  0.86944  1.0000
  H   H3797     1.0  0.82721  0.60956  0.87085  1.0000
  H   H3798     1.0  0.81479  0.61720  0.85153  1.0000
  H   H3799     1.0  0.85375  0.54366  0.83889  1.0000
  H   H3800     1.0  0.85605  0.56768  0.82167  1.0000
  H   H3801     1.0  0.87758  0.54722  0.82334  1.0000
  H   H3802     1.0  0.88426  0.57535  0.88830  1.0000
  H   H3803     1.0  0.89389  0.56953  0.86561  1.0000
  H   H3804     1.0  0.88091  0.55213  0.88499  1.0000
  H   H3805     1.0  0.85025  0.54005  0.89768  1.0000
  H   H3806     1.0  0.86457  0.53086  0.87654  1.0000
  H   H3807     1.0  0.84006  0.52581  0.88703  1.0000
  H   H3808     1.0  0.98589  0.55777  0.74543  1.0000
  C   C2232     1.0  0.59360  0.62148  0.74936  1.0000
  H   H3809     1.0  0.74095  0.59689  0.93744  1.0000
  C   C2233     1.0  0.76882  0.59091  0.89612  1.0000
  H   H3810     1.0  0.72237  0.60609  0.86282  1.0000
  H   H3811     1.0  0.51820  0.54380  0.88951  1.0000
  C   C2234     1.0  0.76331  0.61225  0.89124  1.0000
  Fe  Fe321     1.0  0.83352  0.64629  0.92225  1.0000
  H   H3812     1.0  0.50799  0.43007  0.80748  1.0000
  H   H3813     1.0  0.90715  0.59638  0.98148  1.0000
  Fe  Fe322     1.0  0.57356  0.61810  0.81659  1.0000
  H   H3814     1.0  0.75688  0.62433  0.93340  1.0000
  S   S639      1.0  0.74347  0.62356  0.87924  1.0000
  H   H3815     1.0  0.71583  0.65610  0.81139  1.0000
  H   H3816     1.0  0.52785  0.42502  0.75199  1.0000
  S   S640      1.0  0.86632  0.63915  0.92448  1.0000
  C   C2235     1.0  0.50799  0.52229  0.78515  1.0000
  H   H3817     1.0  0.69492  0.64783  0.85326  1.0000
  N   N159      1.0  0.70798  0.62244  0.83933  1.0000
  H   H3818     1.0  0.57873  0.37468  0.88980  1.0000
  S   S641      1.0  0.93970  0.54774  0.76372  1.0000
  C   C2236     1.0  0.78476  0.58144  0.90561  1.0000
  H   H3819     1.0  0.69281  0.59701  0.88659  1.0000
  H   H3820     1.0  0.59935  0.57570  0.76114  1.0000
  S   S642      1.0  0.91350  0.44566  0.75815  1.0000
  H   H3821     1.0  0.57827  0.52652  0.87399  1.0000
  H   H3822     1.0  0.61091  0.37486  0.87579  1.0000
  H   H3823     1.0  0.62944  0.57008  0.76909  1.0000
  H   H3824     1.0  0.75274  0.59105  0.95696  1.0000
  H   H3825     1.0  0.57884  0.44560  0.74517  1.0000
  C   C2237     1.0  0.94600  0.46635  0.80513  1.0000
  C   C2238     1.0  0.90897  0.46654  0.76866  1.0000
  C   C2239     1.0  0.87895  0.63412  0.97295  1.0000
  H   H3826     1.0  0.97943  0.45052  0.74543  1.0000
  H   H3827     1.0  0.61878  0.50061  0.78471  1.0000
  C   C2240     1.0  0.59329  0.56168  0.76883  1.0000
  H   H3828     1.0  0.64379  0.38853  0.87340  1.0000
  H   H3829     1.0  0.95419  0.43043  0.78376  1.0000
  H   H3830     1.0  0.56915  0.39374  0.90419  1.0000
  H   H3831     1.0  0.66973  0.60890  0.82597  1.0000
  H   H3832     1.0  0.53743  0.58903  0.89453  1.0000
  H   H3833     1.0  0.85683  0.63705  0.83113  1.0000
  H   H3834     1.0  0.93544  0.55459  0.97647  1.0000
  H   H3835     1.0  0.58739  0.52634  0.78527  1.0000
  H   H3836     1.0  0.76068  0.58169  0.89266  1.0000
  C   C2241     1.0  0.98884  0.46210  0.77300  1.0000
  C   C2242     1.0  0.56206  0.53231  0.87267  1.0000
  H   H3837     1.0  0.65252  0.55127  0.76866  1.0000
  S   S643      1.0  0.69259  0.65628  0.89838  1.0000
  N   N160      1.0  0.53486  0.56633  0.87027  1.0000
  H   H3838     1.0  0.88529  0.63472  0.95805  1.0000
  H   H3839     1.0  0.56252  0.55448  0.77586  1.0000
  C   C2243     1.0  0.51953  0.60961  0.75213  1.0000
  C   C2244     1.0  0.64035  0.64073  0.87020  1.0000
  C   C2245     1.0  0.92278  0.56782  0.97363  1.0000
  H   H3840     1.0  0.75931  0.61031  0.81551  1.0000
  H   H3841     1.0  0.65520  0.65448  0.88371  1.0000
  H   H3842     1.0  0.56654  0.61631  0.74448  1.0000
  H   H3843     1.0  0.52883  0.62139  0.74759  1.0000
  H   H3844     1.0  0.78018  0.65031  0.94220  1.0000
  H   H3845     1.0  0.89177  0.65897  0.97347  1.0000
  H   H3846     1.0  0.64285  0.56110  0.74758  1.0000
  Fe  Fe323     1.0  0.92103  0.57750  0.75094  1.0000
  C   C2246     1.0  0.50190  0.57277  0.89655  1.0000
  H   H3847     1.0  0.50465  0.58574  0.90065  1.0000
  Fe  Fe324     1.0  0.72591  0.65406  0.88514  1.0000
  C   C2247     1.0  0.86040  0.56011  0.74521  1.0000
  H   H3848     1.0  0.85597  0.57600  0.74743  1.0000
  C   C2248     1.0  0.63672  0.65829  0.83843  1.0000
  H   H3849     1.0  0.98658  0.52629  0.74035  1.0000
  H   H3850     1.0  0.89319  0.51747  0.74196  1.0000
  C   C2249     1.0  0.52171  0.43199  0.73900  1.0000
  H   H3851     1.0  0.49868  0.53373  0.77569  1.0000
  H   H3852     1.0  0.49560  0.56249  0.86420  1.0000
  H   H3853     1.0  0.54354  0.48843  0.74085  1.0000
  H   H3854     1.0  0.84780  0.55801  0.74013  1.0000
  H   H3855     1.0  0.86739  0.52202  0.74085  1.0000
  H   H3856     1.0  0.89293  0.55275  0.73986  1.0000
  H   H3857     1.0  0.49603  0.51171  0.83141  1.0000
  C   C2250     1.0  0.49636  0.50586  0.79856  1.0000
  H   H3858     1.0  0.49745  0.41990  0.77156  1.0000
  H   H3859     1.0  0.49700  0.63795  0.81927  1.0000
  H   H3860     1.0  0.63177  0.65930  0.82575  1.0000
  C   C2251     1.0  0.76626  0.65812  0.93660  1.0000
  C   C2252     1.0  0.92006  0.58379  0.98527  1.0000
  H   H3861     1.0  0.63970  0.52321  0.73762  1.0000
  H   H3862     1.0  0.52073  0.94649  0.13710  1.0000
  H   H3863     1.0  0.72245  0.78883  0.00838  1.0000
  H   H3864     1.0  0.86985  0.74130  0.13287  1.0000
  H   H3865     1.0  0.63772  0.66768  0.22613  1.0000
  H   H3866     1.0  0.90739  0.87943  0.06929  1.0000
  S   S644      1.0  0.83024  0.68021  0.09858  1.0000
  H   H3867     1.0  0.51087  0.91119  0.18337  1.0000
  H   H3868     1.0  0.93321  0.82310  0.07020  1.0000
  H   H3869     1.0  0.97341  0.96007  0.12917  1.0000
  C   C2253     1.0  0.89668  0.98134  0.13247  1.0000
  H   H3870     1.0  0.62413  0.96057  0.18654  1.0000
  C   C2254     1.0  0.52002  0.89856  0.15865  1.0000
  H   H3871     1.0  0.97297  0.90184  0.18217  1.0000
  S   S645      1.0  0.73038  0.67803  0.06753  1.0000
  H   H3872     1.0  0.57924  0.95890  0.15299  1.0000
  Fe  Fe325     1.0  0.71215  0.70663  0.02090  1.0000
  S   S646      1.0  0.70893  0.72278  0.04386  1.0000
  H   H3873     1.0  0.72041  0.76534  0.02424  1.0000
  Fe  Fe326     1.0  0.74069  0.70498  0.04588  1.0000
  S   S647      1.0  0.76977  0.71578  0.04203  1.0000
  Fe  Fe327     1.0  0.69872  0.69449  0.06357  1.0000
  S   S648      1.0  0.67070  0.69574  0.08760  1.0000
  S   S649      1.0  0.74445  0.69088  0.02150  1.0000
  S   S650      1.0  0.69929  0.68004  0.04017  1.0000
  Fe  Fe328     1.0  0.85621  0.77859  0.07331  1.0000
  S   S651      1.0  0.82861  0.79847  0.08775  1.0000
  S   S652      1.0  0.87602  0.75084  0.08759  1.0000
  Fe  Fe329     1.0  0.84983  0.80058  0.03370  1.0000
  S   S653      1.0  0.82204  0.82265  0.04508  1.0000
  H   H3874     1.0  0.86198  0.71534  0.00285  1.0000
  Fe  Fe330     1.0  0.84046  0.82404  0.06504  1.0000
  S   S654      1.0  0.84341  0.85468  0.06844  1.0000
  Fe  Fe331     1.0  0.81308  0.79493  0.06645  1.0000
  S   S655      1.0  0.78145  0.78760  0.07253  1.0000
  S   S656      1.0  0.86901  0.80397  0.05178  1.0000
  S   S657      1.0  0.84000  0.77317  0.05407  1.0000
  H   H3875     1.0  0.91233  0.79451  0.11786  1.0000
  S   S658      1.0  0.91595  0.87761  0.15499  1.0000
  C   C2255     1.0  0.81025  0.67617  0.01614  1.0000
  Fe  Fe332     1.0  0.93406  0.89999  0.13497  1.0000
  S   S659      1.0  0.96852  0.89154  0.12754  1.0000
  Fe  Fe333     1.0  0.89271  0.89024  0.13674  1.0000
  S   S660      1.0  0.87954  0.86479  0.13374  1.0000
  H   H3876     1.0  0.93510  0.87005  0.08570  1.0000
  C   C2256     1.0  0.86322  0.70201  0.15692  1.0000
  S   S661      1.0  0.91270  0.91044  0.11506  1.0000
  H   H3877     1.0  0.95754  0.85203  0.12834  1.0000
  C   C2257     1.0  0.78507  0.68359  0.08418  1.0000
  C   C2258     1.0  0.99314  0.91846  0.19810  1.0000
  Fe  Fe334     1.0  0.89675  0.93379  0.13289  1.0000
  H   H3878     1.0  0.92233  0.72647  0.11923  1.0000
  S   S662      1.0  0.91951  0.92444  0.15124  1.0000
  C   C2259     1.0  0.97912  0.90900  0.13284  1.0000
  C   C2260     1.0  0.97073  0.92999  0.12887  1.0000
  C   C2261     1.0  0.97988  0.94384  0.13243  1.0000
  C   C2262     1.0  0.75208  0.76683  0.01085  1.0000
  H   H3879     1.0  0.90403  0.72339  0.10858  1.0000
  H   H3880     1.0  0.64505  0.89843  0.20033  1.0000
  H   H3881     1.0  0.54844  0.96338  0.14286  1.0000
  H   H3882     1.0  0.90592  0.68037  0.03123  1.0000
  H   H3883     1.0  0.75320  0.76384  0.02579  1.0000
  C   C2263     1.0  0.85321  0.85743  0.08677  1.0000
  C   C2264     1.0  0.85624  0.84140  0.10236  1.0000
  C   C2265     1.0  0.86369  0.84422  0.11683  1.0000
  C   C2266     1.0  0.86871  0.86289  0.11570  1.0000
  C   C2267     1.0  0.86578  0.87892  0.10007  1.0000
  C   C2268     1.0  0.85791  0.87623  0.08576  1.0000
  H   H3884     1.0  0.85251  0.82694  0.10340  1.0000
  H   H3885     1.0  0.86570  0.83178  0.12894  1.0000
  H   H3886     1.0  0.86949  0.89338  0.09903  1.0000
  H   H3887     1.0  0.85550  0.88876  0.07380  1.0000
  H   H3888     1.0  0.89329  0.70857  0.16942  1.0000
  C   C2269     1.0  0.77236  0.73479  0.05206  1.0000
  C   C2270     1.0  0.79167  0.73952  0.04777  1.0000
  C   C2271     1.0  0.79458  0.75550  0.05405  1.0000
  C   C2272     1.0  0.77824  0.76689  0.06494  1.0000
  C   C2273     1.0  0.75883  0.76199  0.06945  1.0000
  C   C2274     1.0  0.75587  0.74595  0.06306  1.0000
  H   H3889     1.0  0.80434  0.73106  0.03913  1.0000
  H   H3890     1.0  0.80941  0.75919  0.05011  1.0000
  H   H3891     1.0  0.74604  0.77072  0.07784  1.0000
  H   H3892     1.0  0.74084  0.74249  0.06640  1.0000
  C   C2275     1.0  0.66425  0.67220  0.10070  1.0000
  H   H3893     1.0  0.50157  0.97346  0.17846  1.0000
  H   H3894     1.0  0.91146  0.69085  0.15716  1.0000
  H   H3895     1.0  0.95740  0.93562  0.12270  1.0000
  H   H3896     1.0  0.93062  0.91794  0.20575  1.0000
  H   H3897     1.0  0.90427  0.83159  0.11721  1.0000
  H   H3898     1.0  0.63267  0.68584  0.11051  1.0000
  H   H3899     1.0  0.74562  0.79476  0.03290  1.0000
  H   H3900     1.0  0.74854  0.82060  0.02355  1.0000
  C   C2276     1.0  0.89393  0.75607  0.12954  1.0000
  C   C2277     1.0  0.72922  0.77231  0.01032  1.0000
  C   C2278     1.0  0.91287  0.69397  0.02425  1.0000
  Fe  Fe335     1.0  0.89966  0.90301  0.16995  1.0000
  H   H3901     1.0  0.87461  0.70915  0.12685  1.0000
  C   C2279     1.0  0.68908  0.69368  0.98854  1.0000
  H   H3902     1.0  0.88941  0.68746  0.13927  1.0000
  S   S663      1.0  0.89706  0.89484  0.20151  1.0000
  C   C2280     1.0  0.97362  0.92970  0.20972  1.0000
  C   C2281     1.0  0.62057  0.93259  0.20762  1.0000
  C   C2282     1.0  0.88975  0.91529  0.21291  1.0000
  C   C2283     1.0  0.90508  0.70748  0.15614  1.0000
  C   C2284     1.0  0.95203  0.83011  0.08677  1.0000
  N   N161      1.0  0.87981  0.72168  0.01930  1.0000
  C   C2285     1.0  0.57521  0.97086  0.16074  1.0000
  H   H3903     1.0  0.64215  0.69753  0.14086  1.0000
  H   H3904     1.0  0.88834  0.75081  0.04603  1.0000
  H   H3905     1.0  0.52114  0.90337  0.14317  1.0000
  C   C2286     1.0  0.92218  0.71699  0.15722  1.0000
  H   H3906     1.0  0.96820  0.93919  0.17266  1.0000
  H   H3907     1.0  0.95104  0.89052  0.18970  1.0000
  C   C2287     1.0  0.88124  0.93495  0.20394  1.0000
  C   C2288     1.0  0.84313  0.69926  0.09699  1.0000
  C   C2289     1.0  0.86449  0.69513  0.09389  1.0000
  C   C2290     1.0  0.87467  0.71092  0.09123  1.0000
  C   C2291     1.0  0.86345  0.73081  0.09184  1.0000
  C   C2292     1.0  0.84209  0.73482  0.09536  1.0000
  C   C2293     1.0  0.83193  0.71904  0.09801  1.0000
  H   H3908     1.0  0.87316  0.67974  0.09375  1.0000
  H   H3909     1.0  0.89120  0.70773  0.08856  1.0000
  H   H3910     1.0  0.83332  0.75014  0.09592  1.0000
  H   H3911     1.0  0.81541  0.72233  0.10033  1.0000
  H   H3912     1.0  0.85390  0.71720  0.15898  1.0000
  H   H3913     1.0  0.96185  0.81729  0.09497  1.0000
  C   C2294     1.0  0.89541  0.98763  0.16283  1.0000
  H   H3914     1.0  0.76183  0.68471  0.10969  1.0000
  S   S664      1.0  0.96246  0.66815  0.15903  1.0000
  H   H3915     1.0  0.63341  0.95869  0.20688  1.0000
  C   C2295     1.0  0.56876  0.98116  0.19028  1.0000
  H   H3916     1.0  0.91639  0.73301  0.15874  1.0000
  S   S665      1.0  0.95485  0.67525  0.21173  1.0000
  C   C2296     1.0  0.50724  0.96386  0.16777  1.0000
  H   H3917     1.0  0.65083  0.67905  0.16865  1.0000
  C   C2297     1.0  0.79556  0.69843  0.98970  1.0000
  H   H3918     1.0  0.93539  0.71582  0.14505  1.0000
  H   H3919     1.0  0.56517  0.89550  0.19010  1.0000
  H   H3920     1.0  0.61646  0.70826  0.15189  1.0000
  H   H3921     1.0  0.86853  0.69312  0.16999  1.0000
  Fe  Fe336     1.0  0.55662  0.93877  0.22235  1.0000
  C   C2298     1.0  0.89275  0.91181  0.23126  1.0000
  H   H3922     1.0  0.74235  0.81000  0.99846  1.0000
  H   H3923     1.0  0.60481  0.93997  0.21396  1.0000
  C   C2299     1.0  0.60774  0.89129  0.22300  1.0000
  N   N162      1.0  0.53137  0.92932  0.16276  1.0000
  C   C2300     1.0  0.87522  0.95098  0.21352  1.0000
  H   H3924     1.0  0.82194  0.82323  0.00805  1.0000
  C   C2301     1.0  0.55111  0.91602  0.16747  1.0000
  C   C2302     1.0  0.53516  0.93828  0.14182  1.0000
  H   H3925     1.0  0.95643  0.83065  0.05672  1.0000
  H   H3926     1.0  0.77344  0.68549  0.07599  1.0000
  C   C2303     1.0  0.54955  0.90344  0.18801  1.0000
  C   C2304     1.0  0.55084  0.95225  0.13409  1.0000
  H   H3927     1.0  0.92258  0.94989  0.21151  1.0000
  C   C2305     1.0  0.94920  0.82205  0.07064  1.0000
  H   H3928     1.0  0.53712  0.95229  0.17416  1.0000
  H   H3929     1.0  0.92767  0.94625  0.17822  1.0000
  H   H3930     1.0  0.55829  0.90524  0.15786  1.0000
  H   H3931     1.0  0.56258  0.92552  0.16497  1.0000
  H   H3932     1.0  0.54122  0.92594  0.13378  1.0000
  C   C2306     1.0  0.86654  0.72865  0.00489  1.0000
  H   H3933     1.0  0.95001  0.91483  0.17392  1.0000
  N   N163      1.0  0.93292  0.83872  0.09986  1.0000
  H   H3934     1.0  0.91510  0.70057  0.03508  1.0000
  H   H3935     1.0  0.62053  0.88001  0.21676  1.0000
  H   H3936     1.0  0.85208  0.73926  0.00972  1.0000
  H   H3937     1.0  0.75788  0.75145  0.00745  1.0000
  H   H3938     1.0  0.92827  0.68826  0.01597  1.0000
  H   H3939     1.0  0.54055  0.89146  0.19114  1.0000
  H   H3940     1.0  0.54299  0.91324  0.19848  1.0000
  H   H3941     1.0  0.56678  0.94321  0.13262  1.0000
  H   H3942     1.0  0.77073  0.80108  0.02602  1.0000
  H   H3943     1.0  0.64803  0.94374  0.18944  1.0000
  N   N164      1.0  0.95418  0.93451  0.20264  1.0000
  H   H3944     1.0  0.91130  0.86746  0.10142  1.0000
  H   H3945     1.0  0.90984  0.82572  0.09507  1.0000
  H   H3946     1.0  0.93308  0.68763  0.12928  1.0000
  C   C2307     1.0  0.95728  0.94775  0.18295  1.0000
  H   H3947     1.0  0.96440  0.96060  0.18224  1.0000
  C   C2308     1.0  0.58549  0.68119  0.17904  1.0000
  H   H3948     1.0  0.50058  0.92685  0.16396  1.0000
  S   S666      1.0  0.87502  0.91451  0.15324  1.0000
  C   C2309     1.0  0.95612  0.90522  0.18635  1.0000
  H   H3949     1.0  0.91007  0.71984  0.00089  1.0000
  C   C2310     1.0  0.93863  0.83981  0.11746  1.0000
  C   C2311     1.0  0.95332  0.85406  0.11466  1.0000
  C   C2312     1.0  0.92483  0.80279  0.11520  1.0000
  H   H3950     1.0  0.92468  0.84487  0.12805  1.0000
  H   H3951     1.0  0.94612  0.82447  0.12458  1.0000
  H   H3952     1.0  0.94590  0.87042  0.11076  1.0000
  H   H3953     1.0  0.96777  0.85049  0.10424  1.0000
  H   H3954     1.0  0.93816  0.79528  0.10569  1.0000
  H   H3955     1.0  0.92845  0.80080  0.12909  1.0000
  H   H3956     1.0  0.89702  0.75813  0.11395  1.0000
  S   S667      1.0  0.57444  0.94018  0.19246  1.0000
  H   H3957     1.0  0.97189  0.91985  0.22423  1.0000
  C   C2313     1.0  0.94753  0.91516  0.20367  1.0000
  C   C2314     1.0  0.57296  0.96575  0.18036  1.0000
  H   H3958     1.0  0.85293  0.69355  0.15467  1.0000
  H   H3959     1.0  0.96164  0.84178  0.08000  1.0000
  H   H3960     1.0  0.87898  0.93768  0.18975  1.0000
  H   H3961     1.0  0.78739  0.67831  0.11278  1.0000
  S   S668      1.0  0.52353  0.95368  0.23019  1.0000
  C   C2315     1.0  0.91435  0.86296  0.07367  1.0000
  C   C2316     1.0  0.64403  0.67171  0.11071  1.0000
  C   C2317     1.0  0.82450  0.81728  0.99566  1.0000
  S   S669      1.0  0.70749  0.72260  0.99165  1.0000
  H   H3962     1.0  0.88379  0.96352  0.15922  1.0000
  H   H3963     1.0  0.67231  0.87527  0.21479  1.0000
  H   H3964     1.0  0.76778  0.81305  0.99235  1.0000
  C   C2318     1.0  0.91717  0.82550  0.10640  1.0000
  H   H3965     1.0  0.92615  0.85892  0.06129  1.0000
  H   H3966     1.0  0.81374  0.74982  0.00067  1.0000
  N   N165      1.0  0.80783  0.67734  0.99652  1.0000
  C   C2319     1.0  0.93771  0.95728  0.17515  1.0000
  H   H3967     1.0  0.91059  0.73521  0.03413  1.0000
  C   C2320     1.0  0.92494  0.69569  0.11771  1.0000
  N   N166      1.0  0.89565  0.71656  0.13909  1.0000
  C   C2321     1.0  0.62831  0.69391  0.15167  1.0000
  H   H3968     1.0  0.86823  0.96611  0.20670  1.0000
  H   H3969     1.0  0.63583  0.68500  0.05742  1.0000
  S   S670      1.0  0.86162  0.79584  0.00375  1.0000
  H   H3970     1.0  0.63159  0.69824  0.17746  1.0000
  C   C2322     1.0  0.89136  0.97618  0.15218  1.0000
  C   C2323     1.0  0.86889  0.70836  0.03646  1.0000
  H   H3971     1.0  0.79100  0.74079  0.00420  1.0000
  H   H3972     1.0  0.56736  0.97731  0.20541  1.0000
  H   H3973     1.0  0.53403  0.88744  0.16183  1.0000
  C   C2324     1.0  0.84886  0.71936  0.04762  1.0000
  H   H3974     1.0  0.86783  0.75141  0.02666  1.0000
  C   C2325     1.0  0.89379  0.73717  0.03964  1.0000
  C   C2326     1.0  0.57140  0.99147  0.15123  1.0000
  H   H3975     1.0  0.61843  0.92615  0.19650  1.0000
  H   H3976     1.0  0.87851  0.70062  0.04696  1.0000
  H   H3977     1.0  0.86541  0.69566  0.03239  1.0000
  H   H3978     1.0  0.51821  0.93918  0.18921  1.0000
  S   S671      1.0  0.89066  0.96745  0.11925  1.0000
  S   S672      1.0  0.50891  0.98726  0.11579  1.0000
  H   H3979     1.0  0.58999  0.69036  0.16467  1.0000
  H   H3980     1.0  0.72660  0.76618  0.99924  1.0000
  H   H3981     1.0  0.95712  0.80574  0.07168  1.0000
  C   C2327     1.0  0.84273  0.80366  0.99029  1.0000
  H   H3982     1.0  0.83804  0.72865  0.03872  1.0000
  H   H3983     1.0  0.84099  0.70777  0.05831  1.0000
  H   H3984     1.0  0.85203  0.72914  0.05539  1.0000
  N   N167      1.0  0.76523  0.78151  0.99815  1.0000
  C   C2328     1.0  0.51498  0.91706  0.16785  1.0000
  H   H3985     1.0  0.79597  0.78557  0.99498  1.0000
  C   C2329     1.0  0.97807  0.67026  0.21861  1.0000
  H   H3986     1.0  0.89040  0.72423  0.05150  1.0000
  H   H3987     1.0  0.50721  0.89029  0.16451  1.0000
  C   C2330     1.0  0.92357  0.86022  0.09081  1.0000
  H   H3988     1.0  0.94098  0.96233  0.21327  1.0000
  C   C2331     1.0  0.63395  0.68489  0.17115  1.0000
  H   H3989     1.0  0.87625  0.73959  0.15452  1.0000
  H   H3990     1.0  0.63132  0.66974  0.04405  1.0000
  H   H3991     1.0  0.88356  0.77043  0.13295  1.0000
  H   H3992     1.0  0.59893  0.69364  0.19465  1.0000
  H   H3993     1.0  0.62309  0.68335  0.14642  1.0000
  C   C2332     1.0  0.88128  0.70346  0.13959  1.0000
  C   C2333     1.0  0.91154  0.71662  0.12080  1.0000
  C   C2334     1.0  0.52420  0.94575  0.17407  1.0000
  H   H3994     1.0  0.90173  0.85478  0.07692  1.0000
  H   H3995     1.0  0.91606  0.68571  0.11567  1.0000
  C   C2335     1.0  0.88312  0.73800  0.13966  1.0000
  C   C2336     1.0  0.63248  0.94972  0.19719  1.0000
  H   H3996     1.0  0.58327  0.66626  0.17826  1.0000
  H   H3997     1.0  0.90837  0.75452  0.13372  1.0000
  C   C2337     1.0  0.87813  0.94747  0.23189  1.0000
  H   H3998     1.0  0.93686  0.69815  0.10452  1.0000
  H   H3999     1.0  0.66574  0.88703  0.23442  1.0000
  H   H4000     1.0  0.97705  0.94407  0.21077  1.0000
  C   C2338     1.0  0.79874  0.75367  0.99661  1.0000
  H   H4001     1.0  0.54865  0.96181  0.12003  1.0000
  H   H4002     1.0  0.92812  0.70834  0.17008  1.0000
  C   C2339     1.0  0.88266  0.74048  0.02366  1.0000
  C   C2340     1.0  0.75560  0.80454  0.02231  1.0000
  H   H4003     1.0  0.79503  0.67758  0.02618  1.0000
  H   H4004     1.0  0.68219  0.69241  0.00342  1.0000
  H   H4005     1.0  0.79964  0.67406  0.07817  1.0000
  H   H4006     1.0  0.78574  0.77163  0.01754  1.0000
  H   H4007     1.0  0.83737  0.68914  0.01159  1.0000
  C   C2341     1.0  0.90007  0.70945  0.01065  1.0000
  H   H4008     1.0  0.89771  0.70019  0.00179  1.0000
  H   H4009     1.0  0.89101  0.98367  0.17810  1.0000
  C   C2342     1.0  0.78641  0.77394  0.00224  1.0000
  C   C2343     1.0  0.82074  0.69229  0.01796  1.0000
  H   H4010     1.0  0.57021  0.68941  0.18551  1.0000
  H   H4011     1.0  0.83882  0.65994  0.99017  1.0000
  C   C2344     1.0  0.75752  0.80279  0.00189  1.0000
  H   H4012     1.0  0.79581  0.83463  0.98878  1.0000
  H   H4013     1.0  0.66076  0.91218  0.20442  1.0000
  H   H4014     1.0  0.81358  0.70812  0.01190  1.0000
  H   H4015     1.0  0.78406  0.70409  0.00172  1.0000
  H   H4016     1.0  0.59654  0.88251  0.23318  1.0000
  N   N168      1.0  0.63020  0.91584  0.22210  1.0000
  C   C2345     1.0  0.93770  0.94694  0.21528  1.0000
  C   C2346     1.0  0.77721  0.67502  0.10540  1.0000
  C   C2347     1.0  0.62921  0.67556  0.21472  1.0000
  H   H4017     1.0  0.77434  0.66930  0.14421  1.0000
  H   H4018     1.0  0.89156  0.74949  0.01102  1.0000
  H   H4019     1.0  0.59985  0.90168  0.21190  1.0000
  H   H4020     1.0  0.94187  0.96277  0.15956  1.0000
  C   C2348     1.0  0.64878  0.90307  0.21178  1.0000
  H   H4021     1.0  0.92892  0.97078  0.18112  1.0000
  Fe  Fe337     1.0  0.73160  0.66570  0.04272  1.0000
  H   H4022     1.0  0.51316  0.97386  0.15422  1.0000
  H   H4023     1.0  0.81917  0.69147  0.03320  1.0000
  H   H4024     1.0  0.78801  0.69905  0.08227  1.0000
  H   H4025     1.0  0.95120  0.90322  0.21625  1.0000
  H   H4026     1.0  0.65007  0.93187  0.22791  1.0000
  S   S673      1.0  0.88120  0.66204  0.01265  1.0000
  C   C2349     1.0  0.65927  0.88350  0.22409  1.0000
  C   C2350     1.0  0.61463  0.90325  0.23373  1.0000
  H   H4027     1.0  0.61903  0.66781  0.06897  1.0000
  H   H4028     1.0  0.59402  0.66872  0.20551  1.0000
  H   H4029     1.0  0.63513  0.68961  0.20718  1.0000
  C   C2351     1.0  0.63330  0.66964  0.05816  1.0000
  C   C2352     1.0  0.63684  0.92437  0.23523  1.0000
  H   H4030     1.0  0.99272  0.90220  0.19995  1.0000
  H   H4031     1.0  0.64892  0.87274  0.23158  1.0000
  C   C2353     1.0  0.60045  0.67838  0.19176  1.0000
  H   H4032     1.0  0.61291  0.67961  0.22194  1.0000
  H   H4033     1.0  0.78206  0.66248  0.00914  1.0000
  H   H4034     1.0  0.81946  0.66114  0.02188  1.0000
  C   C2354     1.0  0.79656  0.66090  0.99821  1.0000
  N   N169      1.0  0.62268  0.66905  0.18477  1.0000
  H   H4035     1.0  0.74774  0.65949  0.10222  1.0000
  C   C2355     1.0  0.93413  0.93733  0.23668  1.0000
  C   C2356     1.0  0.63251  0.66079  0.20167  1.0000
  Fe  Fe338     1.0  0.59024  0.87256  0.39674  1.0000
  S   S674      1.0  0.61039  0.87861  0.36794  1.0000
  S   S675      1.0  0.56859  0.85129  0.40480  1.0000
  Fe  Fe339     1.0  0.60288  0.90391  0.40988  1.0000
  S   S676      1.0  0.62394  0.91309  0.38202  1.0000
  S   S677      1.0  0.59776  0.91922  0.43396  1.0000
  Fe  Fe340     1.0  0.59907  0.91170  0.36907  1.0000
  S   S678      1.0  0.58779  0.93625  0.34544  1.0000
  Fe  Fe341     1.0  0.63344  0.87938  0.38330  1.0000
  S   S679      1.0  0.66625  0.86446  0.37406  1.0000
  S   S680      1.0  0.57697  0.90566  0.39689  1.0000
  S   S681      1.0  0.61424  0.87010  0.41221  1.0000
  Fe  Fe342     1.0  0.63539  0.74560  0.39372  1.0000
  S   S682      1.0  0.60260  0.76066  0.39335  1.0000
  H   H4036     1.0  0.63259  0.88592  0.43215  1.0000
  Fe  Fe343     1.0  0.79907  0.83931  0.39662  1.0000
  S   S683      1.0  0.78424  0.85681  0.41968  1.0000
  S   S684      1.0  0.82701  0.84480  0.37350  1.0000
  Fe  Fe344     1.0  0.77080  0.80875  0.41231  1.0000
  S   S685      1.0  0.75376  0.82405  0.43613  1.0000
  S   S686      1.0  0.76386  0.77849  0.41323  1.0000
  Fe  Fe345     1.0  0.75500  0.85339  0.41472  1.0000
  S   S687      1.0  0.72558  0.87683  0.41805  1.0000
  Fe  Fe346     1.0  0.78429  0.82584  0.43920  1.0000
  S   S688      1.0  0.78764  0.81323  0.46937  1.0000
  S   S689      1.0  0.76975  0.83799  0.39021  1.0000
  S   S690      1.0  0.80148  0.80851  0.41666  1.0000
  Fe  Fe347     1.0  0.86167  0.94805  0.31534  1.0000
  S   S691      1.0  0.88410  0.93227  0.29326  1.0000
  S   S692      1.0  0.83434  0.93699  0.33607  1.0000
  H   H4037     1.0  0.84491  0.90321  0.30881  1.0000
  C   C2357     1.0  0.58026  0.72318  0.38231  1.0000
  H   H4038     1.0  0.78604  0.79495  0.34841  1.0000
  Fe  Fe348     1.0  0.90633  0.94751  0.29823  1.0000
  S   S693      1.0  0.93946  0.93297  0.29721  1.0000
  H   H4039     1.0  0.70556  0.66634  0.44091  1.0000
  S   S694      1.0  0.88466  0.96090  0.32216  1.0000
  H   H4040     1.0  0.61087  0.93047  0.25892  1.0000
  H   H4041     1.0  0.52700  0.87292  0.33462  1.0000
  N   N170      1.0  0.74200  0.86850  0.48284  1.0000
  Fe  Fe349     1.0  0.56031  0.92016  0.26272  1.0000
  C   C2358     1.0  0.97371  0.91707  0.36877  1.0000
  S   S695      1.0  0.58345  0.89991  0.27924  1.0000
  H   H4042     1.0  0.61655  0.71997  0.31962  1.0000
  C   C2359     1.0  0.63859  0.83136  0.45070  1.0000
  Fe  Fe350     1.0  0.53294  0.96172  0.25293  1.0000
  H   H4043     1.0  0.67409  0.77894  0.43056  1.0000
  H   H4044     1.0  0.52929  0.86865  0.38998  1.0000
  H   H4045     1.0  0.60317  0.74015  0.36477  1.0000
  H   H4046     1.0  0.79333  0.77314  0.44726  1.0000
  S   S696      1.0  0.55293  0.90831  0.24119  1.0000
  C   C2360     1.0  0.63253  0.95364  0.44255  1.0000
  H   H4047     1.0  0.80979  0.79434  0.32333  1.0000
  C   C2361     1.0  0.95364  0.95147  0.29426  1.0000
  C   C2362     1.0  0.94380  0.97125  0.29673  1.0000
  H   H4048     1.0  0.63016  0.74592  0.32805  1.0000
  C   C2363     1.0  0.97667  0.97951  0.29318  1.0000
  C   C2364     1.0  0.79731  0.82525  0.48174  1.0000
  H   H4049     1.0  0.71858  0.66680  0.41700  1.0000
  H   H4050     1.0  0.92729  0.97553  0.29989  1.0000
  C   C2365     1.0  0.80902  0.82376  0.34079  1.0000
  H   H4051     1.0  0.83879  0.79010  0.38471  1.0000
  H   H4052     1.0  0.59058  0.69441  0.35651  1.0000
  C   C2366     1.0  0.96147  0.91287  0.34223  1.0000
  H   H4053     1.0  0.54393  0.91769  0.36083  1.0000
  H   H4054     1.0  0.55664  0.84632  0.37200  1.0000
  H   H4055     1.0  0.64774  0.83896  0.45545  1.0000
  H   H4056     1.0  0.62480  0.95147  0.45776  1.0000
  H   H4057     1.0  0.52056  0.91068  0.32028  1.0000
  H   H4058     1.0  0.96443  0.66765  0.24828  1.0000
  C   C2367     1.0  0.82933  0.87045  0.36376  1.0000
  C   C2368     1.0  0.81271  0.88655  0.36710  1.0000
  C   C2369     1.0  0.81464  0.90686  0.35870  1.0000
  C   C2370     1.0  0.83323  0.91125  0.34708  1.0000
  C   C2371     1.0  0.84999  0.89517  0.34396  1.0000
  C   C2372     1.0  0.84795  0.87480  0.35211  1.0000
  H   H4059     1.0  0.79830  0.88336  0.37604  1.0000
  H   H4060     1.0  0.80165  0.91924  0.36121  1.0000
  H   H4061     1.0  0.86442  0.89842  0.33514  1.0000
  H   H4062     1.0  0.86088  0.86238  0.34955  1.0000
  S   S697      1.0  0.66586  0.70049  0.44800  1.0000
  H   H4063     1.0  0.89004  0.92535  0.25455  1.0000
  C   C2373     1.0  0.80692  0.84176  0.47267  1.0000
  H   H4064     1.0  0.74621  0.87033  0.45274  1.0000
  C   C2374     1.0  0.68436  0.74411  0.46131  1.0000
  Fe  Fe351     1.0  0.67997  0.74832  0.38373  1.0000
  H   H4065     1.0  0.58391  0.72554  0.39490  1.0000
  H   H4066     1.0  0.80923  0.84710  0.45749  1.0000
  C   C2375     1.0  0.82185  0.78061  0.32621  1.0000
  C   C2376     1.0  0.71655  0.77411  0.38351  1.0000
  C   C2377     1.0  0.72228  0.75836  0.39842  1.0000
  C   C2378     1.0  0.73665  0.76000  0.40758  1.0000
  C   C2379     1.0  0.74484  0.77765  0.40230  1.0000
  C   C2380     1.0  0.73848  0.79376  0.38790  1.0000
  C   C2381     1.0  0.72468  0.79181  0.37828  1.0000
  H   H4067     1.0  0.71602  0.74472  0.40257  1.0000
  H   H4068     1.0  0.74147  0.74751  0.41874  1.0000
  H   H4069     1.0  0.74441  0.80758  0.38393  1.0000
  H   H4070     1.0  0.72003  0.80417  0.36693  1.0000
  C   C2382     1.0  0.58841  0.92729  0.32567  1.0000
  C   C2383     1.0  0.57471  0.93798  0.31395  1.0000
  C   C2384     1.0  0.57362  0.92999  0.29918  1.0000
  C   C2385     1.0  0.58623  0.91127  0.29616  1.0000
  C   C2386     1.0  0.60058  0.90106  0.30730  1.0000
  C   C2387     1.0  0.60172  0.90910  0.32200  1.0000
  H   H4071     1.0  0.56452  0.95215  0.31664  1.0000
  H   H4072     1.0  0.56263  0.93805  0.29051  1.0000
  H   H4073     1.0  0.61056  0.88672  0.30483  1.0000
  H   H4074     1.0  0.61286  0.90121  0.33050  1.0000
  C   C2388     1.0  0.57909  0.82613  0.40185  1.0000
  C   C2389     1.0  0.56565  0.81334  0.40444  1.0000
  C   C2390     1.0  0.57317  0.79338  0.40170  1.0000
  C   C2391     1.0  0.59423  0.78582  0.39678  1.0000
  C   C2392     1.0  0.60787  0.79845  0.39436  1.0000
  C   C2393     1.0  0.60026  0.81875  0.39673  1.0000
  H   H4075     1.0  0.54933  0.81891  0.40854  1.0000
  H   H4076     1.0  0.56261  0.78366  0.40363  1.0000
  H   H4077     1.0  0.62418  0.79271  0.39037  1.0000
  H   H4078     1.0  0.61070  0.82865  0.39459  1.0000
  C   C2394     1.0  0.68259  0.86819  0.38620  1.0000
  C   C2395     1.0  0.70376  0.86320  0.37954  1.0000
  C   C2396     1.0  0.71699  0.86592  0.38926  1.0000
  C   C2397     1.0  0.70912  0.87309  0.40595  1.0000
  C   C2398     1.0  0.68795  0.87755  0.41288  1.0000
  C   C2399     1.0  0.67468  0.87543  0.40283  1.0000
  H   H4079     1.0  0.70992  0.85755  0.36667  1.0000
  H   H4080     1.0  0.73321  0.86302  0.38350  1.0000
  H   H4081     1.0  0.68186  0.88259  0.42601  1.0000
  H   H4082     1.0  0.65836  0.87927  0.40788  1.0000
  H   H4083     1.0  0.77060  0.76664  0.36334  1.0000
  C   C2400     1.0  0.63030  0.89068  0.44509  1.0000
  S   S698      1.0  0.69932  0.77223  0.37113  1.0000
  H   H4084     1.0  0.81954  0.82058  0.32744  1.0000
  H   H4085     1.0  0.87100  0.88031  0.29171  1.0000
  C   C2401     1.0  0.54359  0.85479  0.36523  1.0000
  H   H4086     1.0  0.53985  0.84361  0.35927  1.0000
  H   H4087     1.0  0.62011  0.89222  0.24605  1.0000
  C   C2402     1.0  0.53164  0.88361  0.34050  1.0000
  H   H4088     1.0  0.67198  0.94345  0.38179  1.0000
  H   H4089     1.0  0.85806  0.88549  0.27305  1.0000
  H   H4090     1.0  0.56805  0.71333  0.35705  1.0000
  H   H4091     1.0  0.80270  0.92090  0.27275  1.0000
  H   H4092     1.0  0.64095  0.77100  0.44322  1.0000
  C   C2403     1.0  0.52561  0.85976  0.38170  1.0000
  N   N171      1.0  0.97270  0.92499  0.34820  1.0000
  C   C2404     1.0  0.99430  0.92229  0.33637  1.0000
  H   H4093     1.0  0.94662  0.93802  0.24286  1.0000
  C   C2405     1.0  0.81828  0.91170  0.27397  1.0000
  H   H4094     1.0  0.59847  0.92522  0.46998  1.0000
  H   H4095     1.0  0.71023  0.87188  0.46679  1.0000
  C   C2406     1.0  0.67104  0.71553  0.46074  1.0000
  Fe  Fe352     1.0  0.52062  0.92413  0.25120  1.0000
  C   C2407     1.0  0.67731  0.74097  0.48094  1.0000
  H   H4096     1.0  0.75425  0.77789  0.45252  1.0000
  H   H4097     1.0  0.81684  0.89540  0.27796  1.0000
  H   H4098     1.0  0.65209  0.84352  0.42172  1.0000
  H   H4099     1.0  0.61137  0.71325  0.36991  1.0000
  C   C2408     1.0  0.58138  0.70598  0.32995  1.0000
  C   C2409     1.0  0.70043  0.93672  0.43301  1.0000
  C   C2410     1.0  0.68210  0.81545  0.43741  1.0000
  H   H4100     1.0  0.83200  0.90326  0.24670  1.0000
  H   H4101     1.0  0.96111  0.95211  0.32880  1.0000
  H   H4102     1.0  0.94035  0.93035  0.37915  1.0000
  H   H4103     1.0  0.71272  0.80834  0.41963  1.0000
  H   H4104     1.0  0.68788  0.91256  0.43083  1.0000
  H   H4105     1.0  0.68371  0.83176  0.43263  1.0000
  H   H4106     1.0  0.78433  0.75163  0.44672  1.0000
  H   H4107     1.0  0.55490  0.74522  0.35120  1.0000
  H   H4108     1.0  0.65835  0.91411  0.42001  1.0000
  H   H4109     1.0  0.97626  0.90006  0.37258  1.0000
  H   H4110     1.0  0.63722  0.96932  0.40514  1.0000
  C   C2411     1.0  0.54158  0.90191  0.36784  1.0000
  N   N172      1.0  0.66705  0.81176  0.42819  1.0000
  H   H4111     1.0  0.64841  0.72294  0.32461  1.0000
  C   C2412     1.0  0.95515  0.92543  0.38347  1.0000
  H   H4112     1.0  0.96434  0.97757  0.34568  1.0000
  S   S699      1.0  0.65924  0.74522  0.36691  1.0000
  C   C2413     1.0  0.67684  0.81322  0.40749  1.0000
  H   H4113     1.0  0.95823  0.93814  0.38780  1.0000
  H   H4114     1.0  0.63763  0.79195  0.42354  1.0000
  H   H4115     1.0  0.80578  0.78007  0.39126  1.0000
  H   H4116     1.0  0.62874  0.79578  0.44727  1.0000
  H   H4117     1.0  0.54406  0.89889  0.38238  1.0000
  H   H4118     1.0  0.67143  0.97138  0.41922  1.0000
  H   H4119     1.0  0.62310  0.84138  0.45121  1.0000
  H   H4120     1.0  0.67165  0.66781  0.33261  1.0000
  H   H4121     1.0  0.66148  0.92166  0.38509  1.0000
  C   C2414     1.0  0.65467  0.94119  0.44085  1.0000
  C   C2415     1.0  0.68859  0.92861  0.42305  1.0000
  H   H4122     1.0  0.54117  0.91337  0.32860  1.0000
  S   S700      1.0  0.87001  0.96764  0.24373  1.0000
  H   H4123     1.0  0.91986  0.94630  0.24404  1.0000
  C   C2416     1.0  0.83380  0.93593  0.28231  1.0000
  H   H4124     1.0  0.71217  0.80295  0.44424  1.0000
  Fe  Fe353     1.0  0.87701  0.98816  0.29911  1.0000
  H   H4125     1.0  0.85156  0.77037  0.37134  1.0000
  H   H4126     1.0  0.84115  0.76381  0.39619  1.0000
  H   H4127     1.0  0.63505  0.68349  0.38464  1.0000
  H   H4128     1.0  0.69877  0.92746  0.40898  1.0000
  H   H4129     1.0  0.57448  0.72025  0.32095  1.0000
  H   H4130     1.0  0.83901  0.93871  0.29391  1.0000
  Fe  Fe354     1.0  0.66759  0.71141  0.37851  1.0000
  C   C2417     1.0  0.63737  0.67647  0.37293  1.0000
  C   C2418     1.0  0.83174  0.91549  0.25367  1.0000
  C   C2419     1.0  0.62474  0.90347  0.47850  1.0000
  H   H4131     1.0  0.80627  0.81396  0.37081  1.0000
  H   H4132     1.0  0.69409  0.93438  0.44848  1.0000
  C   C2420     1.0  0.84066  0.89930  0.29727  1.0000
  H   H4133     1.0  0.64284  0.91178  0.24638  1.0000
  C   C2421     1.0  0.79118  0.78616  0.36151  1.0000
  C   C2422     1.0  0.61719  0.71819  0.33458  1.0000
  C   C2423     1.0  0.82815  0.77636  0.34532  1.0000
  C   C2424     1.0  0.56534  0.75602  0.34509  1.0000
  C   C2425     1.0  0.70966  0.88664  0.47006  1.0000
  H   H4134     1.0  0.79410  0.89397  0.30687  1.0000
  H   H4135     1.0  0.67230  0.81520  0.37976  1.0000
  H   H4136     1.0  0.81106  0.95383  0.26509  1.0000
  H   H4137     1.0  0.79283  0.75208  0.46722  1.0000
  H   H4138     1.0  0.81710  0.76712  0.32492  1.0000
  H   H4139     1.0  0.65682  0.86931  0.45331  1.0000
  H   H4140     1.0  0.78197  0.90766  0.32531  1.0000
  C   C2426     1.0  0.64393  0.88130  0.45708  1.0000
  H   H4141     1.0  0.52294  0.84515  0.39169  1.0000
  C   C2427     1.0  0.80679  0.92065  0.30511  1.0000
  H   H4142     1.0  0.92998  0.93194  0.34631  1.0000
  C   C2428     1.0  0.64114  0.88765  0.47378  1.0000
  C   C2429     1.0  0.97858  0.66576  0.23777  1.0000
  H   H4143     1.0  0.64556  0.66324  0.43162  1.0000
  H   H4144     1.0  0.67654  0.81273  0.45305  1.0000
  H   H4145     1.0  0.77269  0.89339  0.46282  1.0000
  H   H4146     1.0  0.65627  0.97776  0.38494  1.0000
  H   H4147     1.0  0.70390  0.78596  0.43521  1.0000
  H   H4148     1.0  0.79285  0.82539  0.34039  1.0000
  C   C2430     1.0  0.97453  0.96217  0.34614  1.0000
  C   C2431     1.0  0.88724  0.92797  0.24062  1.0000
  C   C2432     1.0  0.78618  0.76482  0.36562  1.0000
  H   H4149     1.0  0.57744  0.70742  0.38609  1.0000
  H   H4150     1.0  0.56555  0.76386  0.35600  1.0000
  H   H4151     1.0  0.73213  0.80270  0.47587  1.0000
  H   H4152     1.0  0.80762  0.96144  0.28709  1.0000
  N   N173      1.0  0.82510  0.91683  0.28915  1.0000
  C   C2433     1.0  0.65135  0.97539  0.40057  1.0000
  H   H4153     1.0  0.71648  0.92785  0.43114  1.0000
  H   H4154     1.0  0.86901  0.90489  0.27644  1.0000
  H   H4155     1.0  0.51771  0.88892  0.35068  1.0000
  H   H4156     1.0  0.82081  0.86430  0.47638  1.0000
  H   H4157     1.0  0.83128  0.75940  0.35040  1.0000
  H   H4158     1.0  0.69052  0.80074  0.40555  1.0000
  H   H4159     1.0  0.73671  0.84267  0.47497  1.0000
  C   C2434     1.0  0.68767  0.66022  0.42437  1.0000
  C   C2435     1.0  0.75460  0.87165  0.46283  1.0000
  C   C2436     1.0  0.81347  0.85147  0.48337  1.0000
  H   H4160     1.0  0.59615  0.69859  0.32190  1.0000
  H   H4161     1.0  0.81752  0.75799  0.38184  1.0000
  C   C2437     1.0  0.81778  0.77443  0.37953  1.0000
  N   N174      1.0  0.59622  0.72507  0.34634  1.0000
  C   C2438     1.0  0.58372  0.70954  0.34847  1.0000
  C   C2439     1.0  0.58721  0.74607  0.33612  1.0000
  H   H4162     1.0  0.63205  0.97026  0.43733  1.0000
  C   C2440     1.0  0.66928  0.96241  0.41003  1.0000
  H   H4163     1.0  0.59674  0.75708  0.33495  1.0000
  H   H4164     1.0  0.58784  0.74654  0.32111  1.0000
  H   H4165     1.0  0.98800  0.96400  0.33428  1.0000
  H   H4166     1.0  0.83544  0.78268  0.31450  1.0000
  H   H4167     1.0  0.77053  0.89260  0.44010  1.0000
  H   H4168     1.0  0.68180  0.67669  0.41860  1.0000
  Fe  Fe355     1.0  0.87629  0.96189  0.27269  1.0000
  H   H4169     1.0  0.51105  0.86741  0.37721  1.0000
  H   H4170     1.0  0.63757  0.72646  0.34798  1.0000
  H   H4171     1.0  0.68253  0.82767  0.40135  1.0000
  H   H4172     1.0  0.93431  0.90931  0.36534  1.0000
  C   C2441     1.0  0.70390  0.80223  0.43385  1.0000
  C   C2442     1.0  0.78451  0.76138  0.45607  1.0000
  H   H4173     1.0  0.79699  0.75506  0.35623  1.0000
  C   C2443     1.0  0.66249  0.79074  0.43743  1.0000
  H   H4174     1.0  0.68614  0.73453  0.43596  1.0000
  H   H4175     1.0  0.83431  0.88528  0.30371  1.0000
  H   H4176     1.0  0.78579  0.75681  0.38061  1.0000
  H   H4177     1.0  0.82782  0.96791  0.26762  1.0000
  H   H4178     1.0  0.62305  0.70161  0.33970  1.0000
  H   H4179     1.0  0.66102  0.79627  0.39740  1.0000
  Fe  Fe356     1.0  0.66447  0.71725  0.41793  1.0000
  S   S701      1.0  0.65517  0.75142  0.40974  1.0000
  S   S702      1.0  0.64222  0.71156  0.40432  1.0000
  S   S703      1.0  0.52762  0.93314  0.27473  1.0000
  S   S704      1.0  0.69085  0.71436  0.39291  1.0000
  H   H4180     1.0  0.79430  0.93279  0.29979  1.0000
  H   H4181     1.0  0.81044  0.83899  0.34167  1.0000
  H   H4182     1.0  0.78082  0.79414  0.37263  1.0000
  C   C2444     1.0  0.64125  0.78751  0.43768  1.0000
  C   C2445     1.0  0.81901  0.95574  0.27514  1.0000
  C   C2446     1.0  0.97503  0.94601  0.29054  1.0000
  C   C2447     1.0  0.86069  0.89242  0.28353  1.0000
  H   H4183     1.0  0.52539  0.90185  0.36934  1.0000
  H   H4184     1.0  0.96758  0.89616  0.34645  1.0000
  H   H4185     1.0  0.68332  0.96178  0.39846  1.0000
  N   N175      1.0  0.66746  0.94104  0.42112  1.0000
  C   C2448     1.0  0.98652  0.95998  0.29008  1.0000
  H   H4186     1.0  0.94715  0.95095  0.35206  1.0000
  H   H4187     1.0  0.84320  0.78075  0.34228  1.0000
  H   H4188     1.0  0.84774  0.93446  0.27092  1.0000
  H   H4189     1.0  0.72084  0.77162  0.47397  1.0000
  C   C2449     1.0  0.63400  0.72925  0.33393  1.0000
  S   S705      1.0  0.90037  0.97563  0.27578  1.0000
  H   H4190     1.0  0.80639  0.89138  0.32606  1.0000
  C   C2450     1.0  0.79696  0.90216  0.31626  1.0000
  H   H4191     1.0  0.68548  0.91795  0.39066  1.0000
  H   H4192     1.0  0.66419  0.66992  0.39908  1.0000
  C   C2451     1.0  0.65518  0.67694  0.35872  1.0000
  H   H4193     1.0  0.70125  0.95298  0.42687  1.0000
  C   C2452     1.0  0.66364  0.81194  0.39467  1.0000
  C   C2453     1.0  0.68097  0.73168  0.45118  1.0000
  H   H4194     1.0  0.69241  0.75629  0.45388  1.0000
  H   H4195     1.0  0.74505  0.74462  0.46113  1.0000
  C   C2454     1.0  0.59868  0.72570  0.36547  1.0000
  C   C2455     1.0  0.61112  0.91290  0.46641  1.0000
  C   C2456     1.0  0.95533  0.98530  0.29604  1.0000
  S   S706      1.0  0.85224  0.97664  0.29421  1.0000
  H   H4196     1.0  0.55832  0.76751  0.33389  1.0000
  H   H4197     1.0  0.74906  0.90551  0.45471  1.0000
  N   N176      1.0  0.54947  0.87259  0.34972  1.0000
  C   C2457     1.0  0.56642  0.86391  0.33474  1.0000
  C   C2458     1.0  0.55744  0.88637  0.35703  1.0000
  C   C2459     1.0  0.58591  0.85036  0.34124  1.0000
  C   C2460     1.0  0.53529  0.90239  0.32436  1.0000
  H   H4198     1.0  0.56080  0.85467  0.32806  1.0000
  H   H4199     1.0  0.57170  0.87638  0.32305  1.0000
  H   H4200     1.0  0.56784  0.87707  0.36656  1.0000
  H   H4201     1.0  0.56726  0.89538  0.34523  1.0000
  H   H4202     1.0  0.58320  0.83543  0.35051  1.0000
  H   H4203     1.0  0.59779  0.84687  0.32861  1.0000
  H   H4204     1.0  0.59251  0.85815  0.34836  1.0000
  H   H4205     1.0  0.95319  0.91323  0.39655  1.0000
  H   H4206     1.0  0.66162  0.94770  0.44884  1.0000
  H   H4207     1.0  0.63711  0.81662  0.46083  1.0000
  C   C2461     1.0  0.83860  0.77487  0.38282  1.0000
  H   H4208     1.0  0.57101  0.69512  0.33352  1.0000
  C   C2462     1.0  0.81529  0.80792  0.35810  1.0000
  H   H4209     1.0  0.69347  0.89313  0.47597  1.0000
  H   H4210     1.0  0.76392  0.78600  0.46776  1.0000
  H   H4211     1.0  0.63614  0.82651  0.42454  1.0000
  C   C2463     1.0  0.64832  0.82863  0.43028  1.0000
  H   H4212     1.0  0.62335  0.94852  0.43555  1.0000
  H   H4213     1.0  0.76852  0.85917  0.46167  1.0000
  H   H4214     1.0  0.56612  0.73443  0.37993  1.0000
  H   H4215     1.0  0.65401  0.92523  0.44896  1.0000
  H   H4216     1.0  0.98269  0.93078  0.28849  1.0000
  C   C2464     1.0  0.76258  0.77207  0.46424  1.0000
  H   H4217     1.0  0.84788  0.91545  0.25267  1.0000
  C   C2465     1.0  0.76195  0.89207  0.45496  1.0000
  H   H4218     1.0  0.71430  0.89773  0.45682  1.0000
  H   H4219     1.0  0.96394  0.91645  0.32653  1.0000
  H   H4220     1.0  0.64250  0.93667  0.41117  1.0000
  C   C2466     1.0  0.65876  0.92994  0.41159  1.0000
  C   C2467     1.0  0.75048  0.74024  0.47460  1.0000
  S   S707      1.0  0.67423  0.68911  0.35941  1.0000
  N   N177      1.0  0.81311  0.78628  0.36057  1.0000
  H   H4221     1.0  0.83145  0.80847  0.35698  1.0000
  H   H4222     1.0  0.81081  0.92655  0.31564  1.0000
  C   C2468     1.0  0.61399  0.90658  0.44962  1.0000
  H   H4223     1.0  0.66371  0.78630  0.45251  1.0000
  H   H4224     1.0  0.64909  0.82345  0.39533  1.0000
  H   H4225     1.0  0.98721  0.92086  0.37127  1.0000
  C   C2469     1.0  0.62004  0.93906  0.24619  1.0000
  H   H4226     1.0  0.93218  0.92133  0.23985  1.0000
  H   H4227     1.0  0.54580  0.89786  0.31150  1.0000
  H   H4228     1.0  0.70032  0.66947  0.38724  1.0000
  C   C2470     1.0  0.67026  0.92838  0.39117  1.0000
  H   H4229     1.0  0.76619  0.73076  0.47154  1.0000
  H   H4230     1.0  0.60836  0.66717  0.38283  1.0000
  S   S708      1.0  0.56639  0.94964  0.24307  1.0000
  C   C2471     1.0  0.65785  0.66764  0.34362  1.0000
  N   N178      1.0  0.75067  0.75907  0.48079  1.0000
  C   C2472     1.0  0.96293  0.94743  0.34364  1.0000
  C   C2473     1.0  0.66504  0.71154  0.48056  1.0000
  H   H4231     1.0  0.82489  0.93000  0.24483  1.0000
  H   H4232     1.0  0.99422  0.99191  0.24528  1.0000
  C   C2474     1.0  0.93817  0.91582  0.34996  1.0000
  H   H4233     1.0  0.97945  0.95715  0.35978  1.0000
  H   H4234     1.0  0.64703  0.99089  0.40367  1.0000
  H   H4235     1.0  0.93208  0.90715  0.34315  1.0000
  H   H4236     1.0  0.62727  0.94883  0.25067  1.0000
  C   C2475     1.0  0.72267  0.88474  0.48428  1.0000
  H   H4237     1.0  0.73997  0.71155  0.48363  1.0000
  C   C2476     1.0  0.72872  0.77038  0.48540  1.0000
  H   H4238     1.0  0.60050  0.91323  0.24010  1.0000
  H   H4239     1.0  0.89957  0.89664  0.23813  1.0000
  H   H4240     1.0  0.72642  0.89995  0.48192  1.0000
  C   C2477     1.0  0.62221  0.66722  0.37185  1.0000
  H   H4241     1.0  0.99440  0.92954  0.32125  1.0000
  H   H4242     1.0  0.60963  0.94992  0.23748  1.0000
  C   C2478     1.0  0.59350  0.85655  0.50011  1.0000
  H   H4243     1.0  0.63145  0.78016  0.51366  1.0000
  C   C2479     1.0  0.60156  0.97924  0.55886  1.0000
  H   H4244     1.0  0.93807  0.86754  0.62396  1.0000
  C   C2480     1.0  0.61823  0.81299  0.51026  1.0000
  C   C2481     1.0  0.64263  0.82780  0.51851  1.0000
  Fe  Fe357     1.0  0.63490  0.92866  0.52893  1.0000
  S   S709      1.0  0.66087  0.92318  0.50426  1.0000
  S   S710      1.0  0.61142  0.95776  0.53106  1.0000
  Fe  Fe358     1.0  0.64761  0.88709  0.55343  1.0000
  S   S711      1.0  0.67504  0.87764  0.53144  1.0000
  S   S712      1.0  0.63743  0.86859  0.58246  1.0000
  Fe  Fe359     1.0  0.67976  0.90951  0.52611  1.0000
  S   S713      1.0  0.71160  0.91469  0.51911  1.0000
  Fe  Fe360     1.0  0.65415  0.89187  0.51133  1.0000
  H   H4245     1.0  0.91924  0.85504  0.62320  1.0000
  S   S714      1.0  0.65445  0.91756  0.55031  1.0000
  S   S715      1.0  0.62602  0.89855  0.53379  1.0000
  S   S716      1.0  0.62907  0.78317  0.57515  1.0000
  Fe  Fe361     1.0  0.77696  0.86070  0.58192  1.0000
  S   S717      1.0  0.78992  0.83396  0.60251  1.0000
  S   S718      1.0  0.74770  0.88157  0.59210  1.0000
  Fe  Fe362     1.0  0.80828  0.84779  0.54825  1.0000
  S   S719      1.0  0.82393  0.81962  0.56638  1.0000
  S   S720      1.0  0.81771  0.85767  0.51643  1.0000
  Fe  Fe363     1.0  0.79185  0.81583  0.58150  1.0000
  S   S721      1.0  0.77815  0.78759  0.59300  1.0000
  Fe  Fe364     1.0  0.82049  0.84060  0.58574  1.0000
  S   S722      1.0  0.84400  0.83876  0.60240  1.0000
  S   S723      1.0  0.77666  0.84238  0.56196  1.0000
  S   S724      1.0  0.80714  0.86903  0.56652  1.0000
  Fe  Fe365     1.0  0.87996  0.91671  0.63915  1.0000
  S   S725      1.0  0.90366  0.89024  0.65002  1.0000
  S   S726      1.0  0.86167  0.91685  0.61833  1.0000
  Fe  Fe366     1.0  0.89049  0.94633  0.65679  1.0000
  S   S727      1.0  0.91537  0.92234  0.66818  1.0000
  C   C2482     1.0  0.61917  0.68624  0.66900  1.0000
  Fe  Fe367     1.0  0.92378  0.91316  0.64047  1.0000
  Fe  Fe368     1.0  0.89312  0.90176  0.67687  1.0000
  S   S728      1.0  0.89294  0.88237  0.70625  1.0000
  S   S729      1.0  0.90094  0.93915  0.62797  1.0000
  S   S730      1.0  0.86734  0.92626  0.66710  1.0000
  H   H4246     1.0  0.64680  0.71354  0.59314  1.0000
  H   H4247     1.0  0.51312  0.95196  0.65945  1.0000
  C   C2483     1.0  0.80096  0.82812  0.51207  1.0000
  C   C2484     1.0  0.98487  0.90774  0.67948  1.0000
  H   H4248     1.0  0.89069  0.90052  0.58278  1.0000
  S   S731      1.0  0.60154  0.97805  0.64460  1.0000
  H   H4249     1.0  0.90371  0.92596  0.59340  1.0000
  H   H4250     1.0  0.95785  0.96969  0.63882  1.0000
  H   H4251     1.0  0.96519  0.86612  0.57390  1.0000
  C   C2485     1.0  0.66199  0.68210  0.59355  1.0000
  C   C2486     1.0  0.56731  0.96496  0.70063  1.0000
  C   C2487     1.0  0.92902  0.95726  0.68929  1.0000
  C   C2488     1.0  0.95752  0.94145  0.63257  1.0000
  H   H4252     1.0  0.76275  0.78409  0.49776  1.0000
  H   H4253     1.0  0.62456  0.67848  0.51760  1.0000
  H   H4254     1.0  0.57254  0.95461  0.59093  1.0000
  C   C2489     1.0  0.96692  0.95535  0.63556  1.0000
  H   H4255     1.0  0.57815  0.96548  0.60774  1.0000
  N   N179      1.0  0.61768  0.67856  0.55730  1.0000
  H   H4256     1.0  0.59223  0.93745  0.70187  1.0000
  H   H4257     1.0  0.87573  0.92508  0.70443  1.0000
  H   H4258     1.0  0.59223  0.68479  0.54385  1.0000
  H   H4259     1.0  0.79879  0.82269  0.52722  1.0000
  C   C2490     1.0  0.84903  0.86054  0.60659  1.0000
  C   C2491     1.0  0.85724  0.85846  0.62226  1.0000
  C   C2492     1.0  0.86138  0.87551  0.62602  1.0000
  C   C2493     1.0  0.85734  0.89478  0.61409  1.0000
  C   C2494     1.0  0.84948  0.89679  0.59826  1.0000
  C   C2495     1.0  0.84545  0.87974  0.59445  1.0000
  H   H4260     1.0  0.86027  0.84359  0.63160  1.0000
  H   H4261     1.0  0.86748  0.87376  0.63824  1.0000
  H   H4262     1.0  0.84666  0.91160  0.58880  1.0000
  H   H4263     1.0  0.83971  0.88140  0.58204  1.0000
  C   C2496     1.0  0.75157  0.76938  0.58553  1.0000
  C   C2497     1.0  0.76504  0.78297  0.57820  1.0000
  C   C2498     1.0  0.76748  0.79318  0.55923  1.0000
  C   C2499     1.0  0.75654  0.78993  0.54765  1.0000
  H   H4264     1.0  0.77804  0.80338  0.55341  1.0000
  H   H4265     1.0  0.75848  0.79798  0.53299  1.0000
  C   C2500     1.0  0.63600  0.84432  0.58105  1.0000
  C   C2501     1.0  0.61928  0.83584  0.59207  1.0000
  C   C2502     1.0  0.61740  0.81693  0.59030  1.0000
  C   C2503     1.0  0.63264  0.80605  0.57810  1.0000
  C   C2504     1.0  0.64986  0.81412  0.56774  1.0000
  C   C2505     1.0  0.65128  0.83350  0.56883  1.0000
  H   H4266     1.0  0.60745  0.84416  0.60153  1.0000
  H   H4267     1.0  0.60410  0.81072  0.59838  1.0000
  H   H4268     1.0  0.66189  0.80567  0.55859  1.0000
  H   H4269     1.0  0.66426  0.83997  0.56033  1.0000
  C   C2506     1.0  0.72152  0.90770  0.53947  1.0000
  C   C2507     1.0  0.74270  0.90222  0.53782  1.0000
  C   C2508     1.0  0.75077  0.89462  0.55407  1.0000
  C   C2509     1.0  0.73769  0.89321  0.57196  1.0000
  C   C2510     1.0  0.71657  0.89980  0.57363  1.0000
  C   C2511     1.0  0.70847  0.90669  0.55738  1.0000
  H   H4270     1.0  0.75287  0.90320  0.52400  1.0000
  H   H4271     1.0  0.76715  0.88976  0.55267  1.0000
  H   H4272     1.0  0.70647  0.89912  0.58744  1.0000
  H   H4273     1.0  0.69217  0.91137  0.55874  1.0000
  H   H4274     1.0  0.55526  0.93369  0.73189  1.0000
  H   H4275     1.0  0.66649  0.66972  0.55017  1.0000
  C   C2512     1.0  0.88256  0.93218  0.72771  1.0000
  C   C2513     1.0  0.62754  0.69282  0.61115  1.0000
  H   H4276     1.0  0.89939  0.85793  0.59975  1.0000
  C   C2514     1.0  0.90382  0.86048  0.58415  1.0000
  H   H4277     1.0  0.60681  0.70187  0.51240  1.0000
  H   H4278     1.0  0.64339  0.69064  0.64315  1.0000
  H   H4279     1.0  0.93372  0.95511  0.67459  1.0000
  C   C2515     1.0  0.63766  0.96812  0.54629  1.0000
  C   C2516     1.0  0.61728  0.96968  0.54600  1.0000
  H   H4280     1.0  0.73209  0.87008  0.52223  1.0000
  H   H4281     1.0  0.56810  0.93293  0.70065  1.0000
  S   S732      1.0  0.67910  0.75905  0.49243  1.0000
  H   H4282     1.0  0.64989  0.96131  0.53602  1.0000
  C   C2517     1.0  0.65568  0.68201  0.54269  1.0000
  H   H4283     1.0  0.61174  0.81700  0.54669  1.0000
  H   H4284     1.0  0.62934  0.71347  0.65066  1.0000
  H   H4285     1.0  0.77065  0.76435  0.51655  1.0000
  C   C2518     1.0  0.63518  0.68790  0.55662  1.0000
  H   H4286     1.0  0.60429  0.70888  0.57936  1.0000
  C   C2519     1.0  0.57118  0.95369  0.60610  1.0000
  C   C2520     1.0  0.93049  0.86442  0.61416  1.0000
  C   C2521     1.0  0.98789  0.95054  0.63493  1.0000
  H   H4287     1.0  0.96913  0.89522  0.71734  1.0000
  N   N180      1.0  0.78234  0.89985  0.62387  1.0000
  C   C2522     1.0  0.77598  0.87973  0.63401  1.0000
  C   C2523     1.0  0.76375  0.91665  0.62738  1.0000
  C   C2524     1.0  0.79892  0.90157  0.63239  1.0000
  C   C2525     1.0  0.79014  0.89946  0.60320  1.0000
  C   C2526     1.0  0.79349  0.86058  0.63562  1.0000
  C   C2527     1.0  0.74573  0.91692  0.61907  1.0000
  C   C2528     1.0  0.80392  0.92285  0.62848  1.0000
  C   C2529     1.0  0.79435  0.91953  0.58917  1.0000
  H   H4288     1.0  0.76718  0.88032  0.64871  1.0000
  H   H4289     1.0  0.76553  0.87641  0.62692  1.0000
  H   H4290     1.0  0.76733  0.93205  0.62172  1.0000
  H   H4291     1.0  0.75793  0.91573  0.64286  1.0000
  H   H4292     1.0  0.79488  0.89653  0.64809  1.0000
  H   H4293     1.0  0.81356  0.89109  0.62767  1.0000
  H   H4294     1.0  0.80455  0.88789  0.60109  1.0000
  H   H4295     1.0  0.77972  0.89381  0.59798  1.0000
  H   H4296     1.0  0.78682  0.84671  0.64176  1.0000
  H   H4297     1.0  0.80341  0.85870  0.62171  1.0000
  H   H4298     1.0  0.80304  0.86071  0.64517  1.0000
  H   H4299     1.0  0.73321  0.93016  0.62213  1.0000
  H   H4300     1.0  0.75014  0.91889  0.60347  1.0000
  H   H4301     1.0  0.73923  0.90302  0.62549  1.0000
  H   H4302     1.0  0.81690  0.92125  0.63506  1.0000
  H   H4303     1.0  0.79108  0.93379  0.63516  1.0000
  H   H4304     1.0  0.80904  0.92932  0.61328  1.0000
  H   H4305     1.0  0.81090  0.91969  0.58562  1.0000
  H   H4306     1.0  0.78558  0.93364  0.59391  1.0000
  H   H4307     1.0  0.78987  0.92053  0.57583  1.0000
  C   C2530     1.0  0.64563  0.69769  0.59883  1.0000
  H   H4308     1.0  0.93631  0.85692  0.57885  1.0000
  H   H4309     1.0  0.92350  0.89748  0.60729  1.0000
  C   C2531     1.0  0.58781  0.66475  0.69693  1.0000
  H   H4310     1.0  0.59979  0.70710  0.54438  1.0000
  C   C2532     1.0  0.60310  0.67839  0.57637  1.0000
  C   C2533     1.0  0.64233  0.97496  0.56010  1.0000
  H   H4311     1.0  0.59056  0.67050  0.57780  1.0000
  H   H4312     1.0  0.88870  0.93591  0.57598  1.0000
  H   H4313     1.0  0.58342  0.94607  0.68033  1.0000
  H   H4314     1.0  0.96985  0.95504  0.67479  1.0000
  H   H4315     1.0  0.64871  0.68714  0.69481  1.0000
  C   C2534     1.0  0.75476  0.87024  0.49536  1.0000
  H   H4316     1.0  0.61939  0.67395  0.70582  1.0000
  H   H4317     1.0  0.99059  0.89556  0.69089  1.0000
  H   H4318     1.0  0.87535  0.94814  0.72410  1.0000
  C   C2535     1.0  0.62665  0.98330  0.57375  1.0000
  H   H4319     1.0  0.94124  0.94528  0.63331  1.0000
  H   H4320     1.0  0.60878  0.68703  0.65978  1.0000
  C   C2536     1.0  0.63622  0.69717  0.65589  1.0000
  C   C2537     1.0  0.60579  0.84940  0.54428  1.0000
  C   C2538     1.0  0.94262  0.89569  0.57271  1.0000
  H   H4321     1.0  0.61899  0.86309  0.50658  1.0000
  H   H4322     1.0  0.89071  0.87024  0.57803  1.0000
  H   H4323     1.0  0.93571  0.96940  0.69056  1.0000
  H   H4324     1.0  0.58198  0.68070  0.68985  1.0000
  H   H4325     1.0  0.78683  0.76585  0.49396  1.0000
  C   C2539     1.0  0.63151  0.66386  0.69741  1.0000
  C   C2540     1.0  0.90129  0.89088  0.73646  1.0000
  H   H4326     1.0  0.66329  0.69529  0.53749  1.0000
  H   H4327     1.0  0.53248  0.95033  0.70734  1.0000
  H   H4328     1.0  0.63061  0.70490  0.55361  1.0000
  H   H4329     1.0  0.96312  0.87951  0.59223  1.0000
  C   C2541     1.0  0.59298  0.69944  0.58136  1.0000
  H   H4330     1.0  0.58982  0.84582  0.49370  1.0000
  H   H4331     1.0  0.59623  0.84740  0.55888  1.0000
  H   H4332     1.0  0.58098  0.70801  0.57332  1.0000
  C   C2542     1.0  0.79461  0.81832  0.50140  1.0000
  C   C2543     1.0  0.62563  0.67237  0.61821  1.0000
  H   H4333     1.0  0.99062  0.67329  0.64088  1.0000
  C   C2544     1.0  0.90568  0.90476  0.57555  1.0000
  S   S733      1.0  0.65488  0.73877  0.54871  1.0000
  C   C2545     1.0  0.92326  0.86952  0.57582  1.0000
  N   N181      1.0  0.95495  0.92528  0.70284  1.0000
  H   H4334     1.0  0.64816  0.69694  0.66305  1.0000
  C   C2546     1.0  0.96188  0.91744  0.68483  1.0000
  C   C2547     1.0  0.93320  0.93737  0.70431  1.0000
  H   H4335     1.0  0.62563  0.84930  0.48858  1.0000
  H   H4336     1.0  0.94444  0.89945  0.55706  1.0000
  H   H4337     1.0  0.92309  0.92759  0.70387  1.0000
  C   C2548     1.0  0.65157  0.67048  0.69551  1.0000
  H   H4338     1.0  0.63894  0.68330  0.57074  1.0000
  C   C2549     1.0  0.87764  0.98846  0.72359  1.0000
  C   C2550     1.0  0.99030  0.91801  0.62755  1.0000
  H   H4339     1.0  0.95852  0.92949  0.67239  1.0000
  H   H4340     1.0  0.95307  0.90588  0.68556  1.0000
  H   H4341     1.0  0.87037  0.99023  0.71166  1.0000
  H   H4342     1.0  0.74854  0.74816  0.51108  1.0000
  H   H4343     1.0  0.90668  0.84538  0.58051  1.0000
  H   H4344     1.0  0.67452  0.82184  0.50383  1.0000
  N   N182      1.0  0.62565  0.66443  0.67942  1.0000
  H   H4345     1.0  0.94235  0.91005  0.57666  1.0000
  H   H4346     1.0  0.77078  0.86195  0.49139  1.0000
  H   H4347     1.0  0.96191  0.94493  0.71688  1.0000
  H   H4348     1.0  0.98744  0.90060  0.66732  1.0000
  C   C2551     1.0  0.60625  0.98585  0.57284  1.0000
  H   H4349     1.0  0.91484  0.97951  0.63138  1.0000
  H   H4350     1.0  0.62104  0.85046  0.54529  1.0000
  C   C2552     1.0  0.76008  0.75249  0.49795  1.0000
  C   C2553     1.0  0.60584  0.69113  0.54246  1.0000
  H   H4351     1.0  0.59104  0.83059  0.53605  1.0000
  H   H4352     1.0  0.97566  0.88824  0.56855  1.0000
  N   N183      1.0  0.70711  0.83025  0.59159  1.0000
  C   C2554     1.0  0.71053  0.82199  0.57422  1.0000
  C   C2555     1.0  0.69860  0.81472  0.60826  1.0000
  C   C2556     1.0  0.72759  0.83244  0.59322  1.0000
  C   C2557     1.0  0.69261  0.85079  0.58905  1.0000
  C   C2558     1.0  0.72127  0.83432  0.55557  1.0000
  C   C2559     1.0  0.67762  0.81106  0.60837  1.0000
  C   C2560     1.0  0.73005  0.83181  0.61306  1.0000
  C   C2561     1.0  0.68429  0.86079  0.60625  1.0000
  H   H4353     1.0  0.71978  0.80610  0.57615  1.0000
  H   H4354     1.0  0.69586  0.82099  0.57170  1.0000
  H   H4355     1.0  0.69687  0.81879  0.62189  1.0000
  H   H4356     1.0  0.70962  0.79966  0.60911  1.0000
  H   H4357     1.0  0.74007  0.81998  0.58823  1.0000
  H   H4358     1.0  0.73162  0.84694  0.58385  1.0000
  H   H4359     1.0  0.70012  0.86219  0.57763  1.0000
  H   H4360     1.0  0.67940  0.85036  0.58368  1.0000
  H   H4361     1.0  0.73675  0.83534  0.55604  1.0000
  H   H4362     1.0  0.72332  0.82619  0.54421  1.0000
  H   H4363     1.0  0.71199  0.84985  0.55148  1.0000
  H   H4364     1.0  0.67217  0.80082  0.62202  1.0000
  H   H4365     1.0  0.66583  0.82543  0.60715  1.0000
  H   H4366     1.0  0.67862  0.80314  0.59714  1.0000
  H   H4367     1.0  0.74466  0.83628  0.61166  1.0000
  H   H4368     1.0  0.73119  0.81603  0.62192  1.0000
  H   H4369     1.0  0.71772  0.84251  0.62041  1.0000
  H   H4370     1.0  0.69522  0.86926  0.60731  1.0000
  H   H4371     1.0  0.68032  0.84992  0.61977  1.0000
  H   H4372     1.0  0.66963  0.87175  0.60456  1.0000
  N   N184      1.0  0.60215  0.92328  0.60886  1.0000
  C   C2562     1.0  0.58010  0.93215  0.61676  1.0000
  C   C2563     1.0  0.60733  0.90145  0.61961  1.0000
  C   C2564     1.0  0.60576  0.92334  0.58823  1.0000
  C   C2565     1.0  0.61541  0.93613  0.61090  1.0000
  C   C2566     1.0  0.60945  0.89865  0.64003  1.0000
  C   C2567     1.0  0.59162  0.91304  0.58307  1.0000
  C   C2568     1.0  0.63869  0.92922  0.60361  1.0000
  H   H4373     1.0  0.56994  0.92186  0.61756  1.0000
  H   H4374     1.0  0.57797  0.93339  0.63160  1.0000
  H   H4375     1.0  0.62172  0.89280  0.61206  1.0000
  H   H4376     1.0  0.59549  0.89298  0.62045  1.0000
  H   H4377     1.0  0.60473  0.93913  0.57940  1.0000
  H   H4378     1.0  0.62165  0.91528  0.58310  1.0000
  H   H4379     1.0  0.61142  0.95207  0.60286  1.0000
  H   H4380     1.0  0.61235  0.93805  0.62566  1.0000
  H   H4381     1.0  0.61168  0.88210  0.64687  1.0000
  H   H4382     1.0  0.62306  0.90389  0.64034  1.0000
  H   H4383     1.0  0.59557  0.90660  0.64870  1.0000
  H   H4384     1.0  0.59354  0.89654  0.58994  1.0000
  H   H4385     1.0  0.59586  0.91414  0.56756  1.0000
  H   H4386     1.0  0.57531  0.92077  0.58644  1.0000
  H   H4387     1.0  0.64332  0.93618  0.58834  1.0000
  H   H4388     1.0  0.64394  0.91244  0.60564  1.0000
  H   H4389     1.0  0.64705  0.93414  0.61161  1.0000
  S   S734      1.0  0.67816  0.77702  0.53464  1.0000
  N   N185      1.0  0.92298  0.88832  0.58228  1.0000
  C   C2569     1.0  0.81031  0.84478  0.50313  1.0000
  H   H4390     1.0  0.91222  0.96327  0.69177  1.0000
  H   H4391     1.0  0.73003  0.75582  0.57961  1.0000
  C   C2570     1.0  0.51030  0.96312  0.66790  1.0000
  H   H4392     1.0  0.61487  0.70499  0.61501  1.0000
  H   H4393     1.0  0.74969  0.76139  0.60020  1.0000
  S   S735      1.0  0.72923  0.77389  0.53970  1.0000
  H   H4394     1.0  0.55458  0.95774  0.61244  1.0000
  Fe  Fe369     1.0  0.68178  0.72129  0.56168  1.0000
  Fe  Fe370     1.0  0.70356  0.75698  0.54816  1.0000
  N   N186      1.0  0.62085  0.83043  0.51693  1.0000
  H   H4395     1.0  0.64588  0.81643  0.53147  1.0000
  H   H4396     1.0  0.58577  0.98058  0.55860  1.0000
  S   S736      1.0  0.68374  0.68795  0.57631  1.0000
  H   H4397     1.0  0.92559  0.87293  0.56013  1.0000
  H   H4398     1.0  0.74931  0.84530  0.52015  1.0000
  H   H4399     1.0  0.64527  0.84219  0.52027  1.0000
  H   H4400     1.0  0.90686  0.90647  0.56017  1.0000
  H   H4401     1.0  0.94254  0.85499  0.60533  1.0000
  C   C2571     1.0  0.52777  0.95139  0.72237  1.0000
  C   C2572     1.0  0.97535  0.95437  0.68737  1.0000
  C   C2573     1.0  0.96914  0.92274  0.62861  1.0000
  H   H4402     1.0  0.72003  0.76180  0.49854  1.0000
  S   S737      1.0  0.70531  0.73076  0.53549  1.0000
  H   H4403     1.0  0.71295  0.88245  0.49878  1.0000
  S   S738      1.0  0.54897  0.96814  0.65055  1.0000
  H   H4404     1.0  0.90270  0.88611  0.60994  1.0000
  Fe  Fe371     1.0  0.67843  0.75025  0.52369  1.0000
  C   C2574     1.0  0.89214  0.89844  0.72081  1.0000
  C   C2575     1.0  0.88279  0.91910  0.71649  1.0000
  C   C2576     1.0  0.74045  0.76621  0.57392  1.0000
  H   H4405     1.0  0.71610  0.84905  0.51531  1.0000
  S   S739      1.0  0.60224  0.66729  0.63293  1.0000
  H   H4406     1.0  0.65816  0.97313  0.56056  1.0000
  H   H4407     1.0  0.66022  0.80568  0.50071  1.0000
  S   S740      1.0  0.68252  0.74585  0.57554  1.0000
  H   H4408     1.0  0.91568  0.93408  0.56869  1.0000
  C   C2577     1.0  0.62371  0.79139  0.52275  1.0000
  H   H4409     1.0  0.62251  0.90844  0.49143  1.0000
  H   H4410     1.0  0.75816  0.86507  0.52406  1.0000
  Fe  Fe372     1.0  0.65728  0.76396  0.56074  1.0000
  C   C2578     1.0  0.74295  0.77657  0.55494  1.0000
  H   H4411     1.0  0.60971  0.78656  0.53232  1.0000
  H   H4412     1.0  0.65450  0.67772  0.53006  1.0000
  H   H4413     1.0  0.58216  0.85845  0.51342  1.0000
  H   H4414     1.0  0.92712  0.94202  0.71806  1.0000
  S   S741      1.0  0.65797  0.87515  0.48878  1.0000
  C   C2579     1.0  0.96899  0.93745  0.70466  1.0000
  H   H4415     1.0  0.78751  0.80536  0.50844  1.0000
  N   N187      1.0  0.55929  0.96508  0.72133  1.0000
  C   C2580     1.0  0.96254  0.88123  0.57731  1.0000
  S   S742      1.0  0.88281  0.97656  0.66557  1.0000
  H   H4416     1.0  0.75123  0.83559  0.49228  1.0000
  H   H4417     1.0  0.60204  0.81496  0.50952  1.0000
  H   H4418     1.0  0.55488  0.97129  0.69276  1.0000
  C   C2581     1.0  0.66802  0.72437  0.49067  1.0000
  H   H4419     1.0  0.61010  0.69608  0.67912  1.0000
  C   C2582     1.0  0.95452  0.90665  0.71901  1.0000
  H   H4420     1.0  0.94267  0.89846  0.71917  1.0000
  C   C2583     1.0  0.91933  0.88498  0.60348  1.0000
  H   H4421     1.0  0.63433  0.79021  0.53168  1.0000
  C   C2584     1.0  0.57834  0.94398  0.69594  1.0000
  H   H4422     1.0  0.97660  0.98356  0.71663  1.0000
  C   C2585     1.0  0.54653  0.98598  0.72308  1.0000
  H   H4423     1.0  0.66268  0.72178  0.50585  1.0000
  S   S743      1.0  0.95686  0.90505  0.62597  1.0000
  C   C2586     1.0  0.60691  0.83100  0.53611  1.0000
  C   C2587     1.0  0.90364  0.92629  0.57867  1.0000
  H   H4424     1.0  0.98340  0.92700  0.70809  1.0000
  H   H4425     1.0  0.59853  0.86406  0.53600  1.0000
  H   H4426     1.0  0.58518  0.69699  0.59657  1.0000
  C   C2588     1.0  0.65945  0.82151  0.50167  1.0000
  C   C2589     1.0  0.57729  0.95985  0.73054  1.0000
  C   C2590     1.0  0.77045  0.76788  0.50131  1.0000
  H   H4427     1.0  0.74144  0.72091  0.50293  1.0000
  H   H4428     1.0  0.89258  0.97772  0.72095  1.0000
  C   C2591     1.0  0.74781  0.86212  0.51667  1.0000
  C   C2592     1.0  0.61766  0.69335  0.52171  1.0000
  C   C2593     1.0  0.61571  0.85011  0.50281  1.0000
  H   H4429     1.0  0.57839  0.97524  0.69399  1.0000
  H   H4430     1.0  0.72075  0.73246  0.49049  1.0000
  H   H4431     1.0  0.72991  0.79212  0.50112  1.0000
  H   H4432     1.0  0.62685  0.81292  0.49546  1.0000
  H   H4433     1.0  0.62938  0.70265  0.51860  1.0000
  C   C2594     1.0  0.91484  0.99073  0.63885  1.0000
  H   H4434     1.0  0.66379  0.66655  0.68337  1.0000
  H   H4435     1.0  0.77234  0.73849  0.49684  1.0000
  H   H4436     1.0  0.96965  0.96966  0.69092  1.0000
  Fe  Fe373     1.0  0.56869  0.99101  0.64344  1.0000
  H   H4437     1.0  0.58903  0.96897  0.72205  1.0000
  H   H4438     1.0  0.51989  0.93858  0.73019  1.0000
  H   H4439     1.0  0.75562  0.88647  0.49354  1.0000
  H   H4440     1.0  0.51620  0.96566  0.72395  1.0000
  H   H4441     1.0  0.70448  0.84958  0.49667  1.0000
  S   S744      1.0  0.63315  0.98959  0.59207  1.0000
  H   H4442     1.0  0.59171  0.87169  0.49007  1.0000
  H   H4443     1.0  0.99230  0.95204  0.68315  1.0000
  C   C2595     1.0  0.52536  0.97382  0.66605  1.0000
  H   H4444     1.0  0.61104  0.66952  0.58798  1.0000
  H   H4445     1.0  0.93805  0.98422  0.71585  1.0000
  H   H4446     1.0  0.65802  0.66213  0.70815  1.0000
  H   H4447     1.0  0.58987  0.66421  0.71113  1.0000
  H   H4448     1.0  0.53416  0.99029  0.71512  1.0000
  H   H4449     1.0  0.71927  0.82627  0.50756  1.0000
  H   H4450     1.0  0.59404  0.99240  0.58312  1.0000
  H   H4451     1.0  0.99437  0.91946  0.67475  1.0000
  C   C2596     1.0  0.71834  0.84301  0.50268  1.0000
  C   C2597     1.0  0.54603  0.94956  0.73107  1.0000
  C   C2598     1.0  0.52158  0.98832  0.67695  1.0000
  C   C2599     1.0  0.72501  0.79217  0.48839  1.0000
  C   C2600     1.0  0.90082  0.99232  0.65595  1.0000
  H   H4452     1.0  0.70829  0.79857  0.49100  1.0000
  H   H4453     1.0  0.58527  0.94362  0.73095  1.0000
  C   C2601     1.0  0.73733  0.72564  0.48893  1.0000
  C   C2602     1.0  0.66027  0.66159  0.60096  1.0000
  H   H4454     1.0  0.65757  0.69891  0.48799  1.0000
  H   H4455     1.0  0.86745  0.98160  0.73659  1.0000
  C   C2603     1.0  0.50308  0.99147  0.69024  1.0000
  H   H4456     1.0  0.65586  0.65994  0.66054  1.0000
  C   C2604     1.0  0.98878  0.99188  0.71465  1.0000
  C   C2605     1.0  0.73792  0.84709  0.48768  1.0000
  H   H4457     1.0  0.65754  0.83221  0.48805  1.0000
  H   H4458     1.0  0.80341  0.88701  0.90323  1.0000
  C   C2606     1.0  0.82884  0.67401  0.98392  1.0000
  H   H4459     1.0  0.83144  0.66943  0.86813  1.0000
  H   H4460     1.0  0.91109  0.97919  0.74121  1.0000
  C   C2607     1.0  0.99003  0.94679  0.81846  1.0000
  C   C2608     1.0  0.99366  0.97796  0.76696  1.0000
  H   H4461     1.0  0.83697  0.72604  0.85030  1.0000
  H   H4462     1.0  0.62649  0.78152  0.94373  1.0000
  H   H4463     1.0  0.75270  0.79396  0.95348  1.0000
  H   H4464     1.0  0.79972  0.66749  0.88509  1.0000
  H   H4465     1.0  0.67622  0.74885  0.90930  1.0000
  H   H4466     1.0  0.94316  0.98482  0.77579  1.0000
  H   H4467     1.0  0.78153  0.78676  0.96892  1.0000
  H   H4468     1.0  0.93694  0.92200  0.74272  1.0000
  C   C2609     1.0  0.79847  0.70076  0.87535  1.0000
  Fe  Fe374     1.0  0.69756  0.67678  0.91437  1.0000
  S   S745      1.0  0.68969  0.70559  0.89268  1.0000
  H   H4469     1.0  0.69232  0.66900  0.82419  1.0000
  Fe  Fe375     1.0  0.68775  0.68443  0.87556  1.0000
  S   S746      1.0  0.66587  0.69077  0.85610  1.0000
  Fe  Fe376     1.0  0.72355  0.69940  0.88028  1.0000
  S   S747      1.0  0.74285  0.72339  0.86721  1.0000
  H   H4470     1.0  0.68058  0.78521  0.89384  1.0000
  C   C2610     1.0  0.97473  0.96384  0.75254  1.0000
  Fe  Fe377     1.0  0.82516  0.78073  0.90571  1.0000
  S   S748      1.0  0.80569  0.79247  0.88418  1.0000
  S   S749      1.0  0.85060  0.75341  0.90323  1.0000
  Fe  Fe378     1.0  0.80065  0.81158  0.92951  1.0000
  S   S750      1.0  0.77883  0.82535  0.91023  1.0000
  S   S751      1.0  0.79422  0.82515  0.95484  1.0000
  Fe  Fe379     1.0  0.77971  0.79300  0.90966  1.0000
  S   S752      1.0  0.75217  0.77868  0.91708  1.0000
  Fe  Fe380     1.0  0.80716  0.82349  0.88694  1.0000
  S   S753      1.0  0.81111  0.85168  0.86357  1.0000
  S   S754      1.0  0.79924  0.77949  0.93107  1.0000
  S   S755      1.0  0.82896  0.81145  0.90644  1.0000
  Fe  Fe381     1.0  0.90596  0.94838  0.81403  1.0000
  S   S756      1.0  0.92588  0.92000  0.82751  1.0000
  C   C2611     1.0  0.80971  0.82379  0.98466  1.0000
  Fe  Fe382     1.0  0.90526  0.93040  0.78207  1.0000
  S   S757      1.0  0.92540  0.90048  0.79220  1.0000
  H   H4471     1.0  0.83395  0.90500  0.78559  1.0000
  Fe  Fe383     1.0  0.90593  0.90323  0.82104  1.0000
  S   S758      1.0  0.89832  0.87437  0.84154  1.0000
  Fe  Fe384     1.0  0.94370  0.91938  0.79787  1.0000
  S   S759      1.0  0.97807  0.91288  0.78857  1.0000
  S   S760      1.0  0.88421  0.93176  0.81038  1.0000
  S   S761      1.0  0.92539  0.94906  0.78491  1.0000
  H   H4472     1.0  0.79275  0.69514  0.96201  1.0000
  C   C2612     1.0  0.86493  0.83120  0.92466  1.0000
  C   C2613     1.0  0.97982  0.93669  0.81140  1.0000
  C   C2614     1.0  0.67367  0.74177  0.92457  1.0000
  H   H4473     1.0  0.99271  0.88090  0.87009  1.0000
  C   C2615     1.0  0.81958  0.70201  0.84247  1.0000
  H   H4474     1.0  0.76634  0.67474  0.93226  1.0000
  H   H4475     1.0  0.58657  0.95748  0.75648  1.0000
  C   C2616     1.0  0.83451  0.68371  0.86967  1.0000
  H   H4476     1.0  0.96367  0.93712  0.81699  1.0000
  H   H4477     1.0  0.83505  0.89163  0.92739  1.0000
  H   H4478     1.0  0.77473  0.68307  0.88602  1.0000
  H   H4479     1.0  0.83305  0.89782  0.89639  1.0000
  H   H4480     1.0  0.51214  0.81299  0.88275  1.0000
  H   H4481     1.0  0.83339  0.71778  0.87521  1.0000
  C   C2617     1.0  0.99082  0.94611  0.74512  1.0000
  H   H4482     1.0  0.88038  0.85695  0.74994  1.0000
  H   H4483     1.0  0.96786  0.95738  0.76751  1.0000
  H   H4484     1.0  0.84438  0.87943  0.88226  1.0000
  C   C2618     1.0  0.84592  0.88449  0.89448  1.0000
  H   H4485     1.0  0.87849  0.81968  0.91969  1.0000
  H   H4486     1.0  0.83345  0.79662  0.95061  1.0000
  C   C2619     1.0  0.95086  0.91038  0.73906  1.0000
  H   H4487     1.0  0.83445  0.83045  0.80802  1.0000
  C   C2620     1.0  0.83535  0.85802  0.85719  1.0000
  C   C2621     1.0  0.83773  0.87771  0.84680  1.0000
  C   C2622     1.0  0.85704  0.88298  0.84163  1.0000
  C   C2623     1.0  0.87400  0.86850  0.84684  1.0000
  C   C2624     1.0  0.87163  0.84878  0.85695  1.0000
  C   C2625     1.0  0.85241  0.84353  0.86207  1.0000
  H   H4488     1.0  0.82456  0.88898  0.84297  1.0000
  H   H4489     1.0  0.85872  0.89826  0.83389  1.0000
  H   H4490     1.0  0.88476  0.83746  0.86085  1.0000
  H   H4491     1.0  0.85091  0.82814  0.86952  1.0000
  C   C2626     1.0  0.74642  0.73785  0.88142  1.0000
  C   C2627     1.0  0.74076  0.73255  0.90114  1.0000
  C   C2628     1.0  0.74359  0.74462  0.91201  1.0000
  C   C2629     1.0  0.75206  0.76200  0.90328  1.0000
  C   C2630     1.0  0.75822  0.76697  0.88360  1.0000
  C   C2631     1.0  0.75533  0.75495  0.87271  1.0000
  H   H4492     1.0  0.73415  0.71923  0.90795  1.0000
  H   H4493     1.0  0.73906  0.74064  0.92723  1.0000
  H   H4494     1.0  0.76456  0.78047  0.87673  1.0000
  H   H4495     1.0  0.75970  0.75912  0.85745  1.0000
  C   C2632     1.0  0.69194  0.68505  0.95862  1.0000
  H   H4496     1.0  0.85992  0.87669  0.92864  1.0000
  C   C2633     1.0  0.71140  0.70848  0.96018  1.0000
  C   C2634     1.0  0.70594  0.69776  0.94971  1.0000
  C   C2635     1.0  0.79063  0.68135  0.87739  1.0000
  H   H4497     1.0  0.71251  0.69936  0.93474  1.0000
  S   S762      1.0  0.68468  0.67155  0.94587  1.0000
  C   C2636     1.0  0.82548  0.85991  0.91402  1.0000
  H   H4498     1.0  0.56124  0.95346  0.76072  1.0000
  H   H4499     1.0  0.80350  0.88383  0.92793  1.0000
  H   H4500     1.0  0.86692  0.67011  0.86757  1.0000
  H   H4501     1.0  0.90140  0.98625  0.87925  1.0000
  C   C2637     1.0  0.85725  0.68357  0.85994  1.0000
  C   C2638     1.0  0.80517  0.87576  0.91666  1.0000
  H   H4502     1.0  0.85977  0.87880  0.75416  1.0000
  H   H4503     1.0  0.64836  0.68613  0.82751  1.0000
  H   H4504     1.0  0.78999  0.67912  0.86359  1.0000
  H   H4505     1.0  0.86016  0.78602  0.96951  1.0000
  H   H4506     1.0  0.86065  0.68196  0.84511  1.0000
  H   H4507     1.0  0.79857  0.74512  0.85623  1.0000
  H   H4508     1.0  0.89446  0.86103  0.77185  1.0000
  S   S763      1.0  0.81117  0.67616  0.92330  1.0000
  H   H4509     1.0  0.67985  0.72509  0.92590  1.0000
  H   H4510     1.0  0.79226  0.86769  0.92083  1.0000
  H   H4511     1.0  0.81789  0.68680  0.84171  1.0000
  H   H4512     1.0  0.83430  0.84797  0.94952  1.0000
  C   C2639     1.0  0.82241  0.69744  0.91751  1.0000
  C   C2640     1.0  0.80984  0.71690  0.91697  1.0000
  C   C2641     1.0  0.81852  0.73413  0.91210  1.0000
  C   C2642     1.0  0.83978  0.73194  0.90834  1.0000
  C   C2643     1.0  0.85237  0.71248  0.90872  1.0000
  C   C2644     1.0  0.84369  0.69528  0.91313  1.0000
  H   H4513     1.0  0.79337  0.71875  0.92001  1.0000
  H   H4514     1.0  0.80868  0.74910  0.91105  1.0000
  H   H4515     1.0  0.86883  0.71073  0.90559  1.0000
  C   C2645     1.0  0.93181  0.98236  0.82417  1.0000
  H   H4516     1.0  0.84088  0.85295  0.78005  1.0000
  H   H4517     1.0  0.74502  0.66393  0.96199  1.0000
  H   H4518     1.0  0.85167  0.82384  0.92858  1.0000
  H   H4519     1.0  0.65700  0.74352  0.93056  1.0000
  H   H4520     1.0  0.85554  0.85803  0.74724  1.0000
  H   H4521     1.0  0.78646  0.71393  0.87079  1.0000
  N   N188      1.0  0.84456  0.86744  0.91202  1.0000
  H   H4522     1.0  0.68009  0.74177  0.95060  1.0000
  C   C2646     1.0  0.81292  0.81643  0.96839  1.0000
  H   H4523     1.0  0.87745  0.85587  0.90608  1.0000
  H   H4524     1.0  0.98389  0.97218  0.78083  1.0000
  C   C2647     1.0  0.84420  0.87566  0.92868  1.0000
  C   C2648     1.0  0.64619  0.67341  0.83944  1.0000
  H   H4525     1.0  0.90826  0.89820  0.75972  1.0000
  H   H4526     1.0  0.71681  0.67169  0.82588  1.0000
  C   C2649     1.0  0.99059  0.92585  0.79737  1.0000
  C   C2650     1.0  0.86562  0.89311  0.88803  1.0000
  N   N189      1.0  0.67993  0.77278  0.93379  1.0000
  C   C2651     1.0  0.68222  0.77693  0.95167  1.0000
  C   C2652     1.0  0.65852  0.78302  0.93123  1.0000
  C   C2653     1.0  0.69493  0.78266  0.91753  1.0000
  C   C2654     1.0  0.64123  0.77723  0.94833  1.0000
  C   C2655     1.0  0.70395  0.77011  0.95566  1.0000
  H   H4527     1.0  0.86351  0.90710  0.87665  1.0000
  C   C2656     1.0  0.69567  0.78005  0.89774  1.0000
  H   H4528     1.0  0.84487  0.86278  0.95850  1.0000
  H   H4529     1.0  0.67711  0.79357  0.95163  1.0000
  H   H4530     1.0  0.67230  0.76901  0.96435  1.0000
  H   H4531     1.0  0.65544  0.77987  0.91875  1.0000
  H   H4532     1.0  0.65654  0.79999  0.92812  1.0000
  H   H4533     1.0  0.69211  0.79936  0.91691  1.0000
  H   H4534     1.0  0.71078  0.77641  0.91952  1.0000
  C   C2657     1.0  0.57230  0.96265  0.75105  1.0000
  H   H4535     1.0  0.87889  0.88225  0.88166  1.0000
  H   H4536     1.0  0.71373  0.78109  0.94695  1.0000
  H   H4537     1.0  0.77703  0.71742  0.96966  1.0000
  H   H4538     1.0  0.71153  0.75456  0.95334  1.0000
  H   H4539     1.0  0.86925  0.89745  0.89961  1.0000
  C   C2658     1.0  0.65321  0.67199  0.85565  1.0000
  H   H4540     1.0  0.64398  0.76062  0.95480  1.0000
  H   H4541     1.0  0.70257  0.76405  0.89631  1.0000
  H   H4542     1.0  0.70603  0.78951  0.88714  1.0000
  H   H4543     1.0  0.73462  0.79432  0.97537  1.0000
  H   H4544     1.0  0.81976  0.87223  0.95447  1.0000
  S   S764      1.0  0.89401  0.97868  0.82251  1.0000
  H   H4545     1.0  0.86366  0.84539  0.89573  1.0000
  H   H4546     1.0  0.70110  0.74397  0.93112  1.0000
  C   C2659     1.0  0.70827  0.66077  0.82493  1.0000
  H   H4547     1.0  0.93494  0.96598  0.82956  1.0000
  H   H4548     1.0  0.67295  0.67292  0.98504  1.0000
  H   H4549     1.0  0.80566  0.70973  0.98378  1.0000
  C   C2660     1.0  0.68374  0.68281  0.97810  1.0000
  H   H4550     1.0  0.49871  0.87252  0.86250  1.0000
  H   H4551     1.0  0.86766  0.83440  0.93727  1.0000
  H   H4552     1.0  0.82647  0.85429  0.90126  1.0000
  H   H4553     1.0  0.81566  0.75313  0.86518  1.0000
  C   C2661     1.0  0.78334  0.70089  0.97464  1.0000
  H   H4554     1.0  0.51691  0.83806  0.87459  1.0000
  H   H4555     1.0  0.98177  0.95462  0.82973  1.0000
  C   C2662     1.0  0.80852  0.74017  0.86648  1.0000
  H   H4556     1.0  0.77001  0.69341  0.98070  1.0000
  C   C2663     1.0  0.86305  0.85048  0.90866  1.0000
  H   H4557     1.0  0.79846  0.70168  0.88982  1.0000
  C   C2664     1.0  0.82554  0.72114  0.86331  1.0000
  H   H4558     1.0  0.83321  0.68183  0.88502  1.0000
  H   H4559     1.0  0.98072  0.89260  0.85053  1.0000
  H   H4560     1.0  0.83466  0.70411  0.83308  1.0000
  C   C2665     1.0  0.76709  0.78204  0.97759  1.0000
  C   C2666     1.0  0.89180  0.92475  0.74326  1.0000
  S   S765      1.0  0.89279  0.94219  0.75574  1.0000
  H   H4561     1.0  0.49917  0.83135  0.89664  1.0000
  H   H4562     1.0  0.98682  0.90856  0.86206  1.0000
  H   H4563     1.0  0.53920  0.95072  0.74602  1.0000
  H   H4564     1.0  0.78749  0.71695  0.84077  1.0000
  H   H4565     1.0  0.96025  0.98633  0.82756  1.0000
  N   N190      1.0  0.86548  0.85646  0.79090  1.0000
  C   C2667     1.0  0.88859  0.85127  0.78564  1.0000
  C   C2668     1.0  0.85777  0.85062  0.77669  1.0000
  C   C2669     1.0  0.85884  0.84380  0.81044  1.0000
  C   C2670     1.0  0.85895  0.87904  0.79066  1.0000
  C   C2671     1.0  0.89980  0.85368  0.79973  1.0000
  C   C2672     1.0  0.50461  0.82938  0.88194  1.0000
  C   C2673     1.0  0.83676  0.84028  0.81626  1.0000
  C   C2674     1.0  0.83590  0.88866  0.79314  1.0000
  H   H4566     1.0  0.89417  0.83519  0.78378  1.0000
  C   C2675     1.0  0.99235  0.89376  0.85756  1.0000
  C   C2676     1.0  0.83096  0.80248  0.96311  1.0000
  H   H4567     1.0  0.86325  0.83390  0.77720  1.0000
  H   H4568     1.0  0.86880  0.82817  0.81221  1.0000
  H   H4569     1.0  0.86079  0.85061  0.82134  1.0000
  H   H4570     1.0  0.86371  0.88246  0.80217  1.0000
  H   H4571     1.0  0.86719  0.88829  0.77765  1.0000
  H   H4572     1.0  0.89635  0.84338  0.81383  1.0000
  H   H4573     1.0  0.91658  0.84950  0.79422  1.0000
  H   H4574     1.0  0.89647  0.86967  0.80135  1.0000
  H   H4575     1.0  0.72228  0.71823  0.95327  1.0000
  H   H4576     1.0  0.83681  0.68633  0.98276  1.0000
  H   H4577     1.0  0.86231  0.69717  0.86048  1.0000
  H   H4578     1.0  0.83392  0.83186  0.83127  1.0000
  C   C2677     1.0  0.68438  0.74989  0.93557  1.0000
  H   H4579     1.0  0.82509  0.85466  0.81541  1.0000
  H   H4580     1.0  0.82852  0.88799  0.80830  1.0000
  H   H4581     1.0  0.82742  0.88191  0.78689  1.0000
  C   C2678     1.0  0.86387  0.86193  0.75595  1.0000
  H   H4582     1.0  0.88973  0.73032  0.97787  1.0000
  H   H4583     1.0  0.81879  0.66546  0.96218  1.0000
  H   H4584     1.0  0.63937  0.78578  0.95934  1.0000
  H   H4585     1.0  0.82368  0.84655  0.92589  1.0000
  C   C2679     1.0  0.83520  0.86380  0.94861  1.0000
  H   H4586     1.0  0.90906  0.87502  0.73945  1.0000
  N   N191      1.0  0.81919  0.70224  0.86250  1.0000
  H   H4587     1.0  0.98399  0.93246  0.74884  1.0000
  H   H4588     1.0  0.85352  0.68043  0.91311  1.0000
  C   C2680     1.0  0.84600  0.79638  0.97389  1.0000
  C   C2681     1.0  0.80333  0.71817  0.83300  1.0000
  H   H4589     1.0  0.79178  0.66228  0.98500  1.0000
  H   H4590     1.0  0.80560  0.73383  0.83092  1.0000
  H   H4591     1.0  0.80493  0.71565  0.81871  1.0000
  S   S766      1.0  0.73151  0.67197  0.90307  1.0000
  N   N192      1.0  0.98261  0.98254  0.75116  1.0000
  H   H4592     1.0  0.79883  0.73754  0.88098  1.0000
  H   H4593     1.0  0.86468  0.74472  0.97604  1.0000
  H   H4594     1.0  0.87831  0.98557  0.76017  1.0000
  H   H4595     1.0  0.96198  0.96765  0.74511  1.0000
  S   S767      1.0  0.72101  0.68087  0.86126  1.0000
  C   C2682     1.0  0.75014  0.79668  0.96788  1.0000
  H   H4596     1.0  0.70303  0.76976  0.97068  1.0000
  S   S768      1.0  0.51582  0.97758  0.77470  1.0000
  H   H4597     1.0  0.82836  0.68893  0.95438  1.0000
  H   H4598     1.0  0.75091  0.81290  0.96592  1.0000
  C   C2683     1.0  0.90099  0.90401  0.74780  1.0000
  C   C2684     1.0  0.54049  0.99076  0.78918  1.0000
  H   H4599     1.0  0.76822  0.76648  0.97555  1.0000
  H   H4600     1.0  0.80207  0.75489  0.98113  1.0000
  C   C2685     1.0  0.87609  0.74010  0.98506  1.0000
  H   H4601     1.0  0.94892  0.89587  0.74957  1.0000
  H   H4602     1.0  0.84517  0.66409  0.95786  1.0000
  H   H4603     1.0  0.96426  0.91463  0.74104  1.0000
  C   C2686     1.0  0.83006  0.67328  0.96346  1.0000
  H   H4604     1.0  0.54174  0.97588  0.79873  1.0000
  H   H4605     1.0  0.73345  0.66303  0.94451  1.0000
  C   C2687     1.0  0.70263  0.70685  0.97948  1.0000
  H   H4606     1.0  0.88001  0.75436  0.98551  1.0000
  H   H4607     1.0  0.56640  0.97890  0.75195  1.0000
  C   C2688     1.0  0.91314  0.99227  0.81907  1.0000
  H   H4608     1.0  0.53848  0.98609  0.73795  1.0000
