data_image0
_chemical_formula_structural       C2HSCH2FeSFeC2H2SH2FeS2FeS2FeS2FeS2Fe3S3C6H7C7HCH2C4H5S2HC2H2CH3C2HCNC4H2C2H10CH9CH5NH2NH9C3H3SH3CHCHC2HCHSH2CH3CSCFeH2CHCH4CH2SCH7Fe2HCH4CSHCHCH3CHNH4FeSFeS2FeS2FeSFeS3FeSHFeS2FeSFeS3FeS3H5CNC2H2CH3C6H4C6H4C6H4C6HCH4NH4CNC8H20NCH3CHC3H7C5HC2H3C2HSH3NCH5CHCH4CH6CH7CH2CHC2H3CSHC2H2CH3CHNCH2CH9CHCHC2FeCH2FeSH3S2C4H2C3H3FeC2HC3SCHCHSH4C2HFeSFeS2FeS2FeSFeHS2FeSHFeS2FeSFeS3FeS3H2C5FeH5C6H4C6H4C6H4C6H4CH8C2H3NHCHSFeC2HCH8CNC4H7CH2CHC2H3FeHCH2NC8H11SHCH8SH3NC3HC2HCH8CH2SHCH5CNC3HC2H5CH2SH4CH3CHFeH2SH2CH2CHCSCSHCFeSH2C2SCHCH2CHSHNCSHC2H8SCFeSFeSFeS2FeS2FeS2FeSHFeSFeHS2CSHCHC6H4CHNCH2C6H5CH3SH2CSHC3H2NC7H15NH6C2HC4H4CHCSH20C3H2NCHCHCH3C2H3CHCHCSH2CH3C2HCHC2HCNFeH3C3H5C4H6CH4CH2CH2FeCSC2HCHNHFeS2FeS2FeS2FeS2C2HNHCHC2HC4H2C6H3CHC2H3C3H2SHFeS2FeS2FeS2FeS2C6H4C2H3C6H4FeCH3C5HCNC4HCHCH8C5H3C2H4SCHC2H2SH3NH4CH2CH8CNC2H5C2HCHCH3CH2C3HNHC2H3CH2NC8H12CH12NCHCH3CHCH6CH2CH6C2H4SH9CH4CH3CFeH2NH3NH6CHC3H3CHSFeSFeS2FeSFeS3CH3CHC5H4C6H7SFeSFeS2H2C5H4C3HC2HCH6CH3CHCH2CH3C3H3C2HNH9CH6C2HCH2C2HNC3HC2H7C2HC2H5C2H2CH2CHCH5CH9CH2CH4C3H5CH2CHNHNH5CHCH2NH6CH2CHSH2SHSFeS2FeS2FeS2C7H2C7H4C2HFeSFeS2HC6H2C4HC2H8NC8H22CHSH6CHC2H11C3H5CHCH3CH2C2H4C2HC2HFeH3CHCH2CH10NH4C2H3CH4CH2CNH2CHC2SHFeS2FeS2FeS2FeS2FeS2FeS2C3HC2H2CHC4H3C5H4NC3H2C4H2CH3FeS2FeS2C6H4C2H2C6H4CH3C2H6C2HCH4CH4C3H2CHCHNH2CNC8H21CH3NC8H17CHC2H2CH3CHNHCHSCHC2HCFeHCH2CH4CH2CHCHNSH7FeHCH2SH4CH6CHC2H2C2HCH3CHCHNHCH2CH2CH2C2SH2SFeSHSFeS2NHC2H2FeS2FeSHFeS2FeSFeHS2C6H5CH4C6H5SC3H4SH4SH2C2HCSCHSHCH4C5H2CH2NC7H17SCH2FeH6SHCH4CH2C2HNHCH2CSH4CHCH2CH5CH3CH4FeH3FeHC4FeH4C3HCSCSHCFeSFeS2FeS2FeCFeS3FeS2FeS2FeSFeS3FeS2H3SHCSH3CH5CSC2HC2H3C6H4C6H4C6H4C6H3CHFeCH3C3H7CH3NHCH2CH10CHC3HCH4CH3CH2SHCHFeSH5CSH2CHNC4HCHCH3CNH3C3HCH2C2HSH2CHC2H8CHCHNH2NH5CH2C2NH2CH3CH2CH5C3HCH2C2H4CFeSFeS2FeS2FeSFeS3FeS2FeS2FeSFeS3HCHC2HFeS3CH4C2H2CH3C6H4C6H4C6H4C6H10C2HCNSH3NC8H12CH7NC8H19CHC2H4C2HC2H3SCHC2HCH3NC2H3FeH4CHCH7FeCHC2H2SHSHFeSFeSCH2CH2FeS3H2CSHFeS2FeSCFeS2FeSFeS3C2H3C6H4SH3CH3C6H4CH8FeH6NC8H22C2HCSH2NH3NH3CHCH3CHCH2FeH2C3H7S2H2CH5CH2CH4CHC4H3CH2C3HNCHCNHC2H5C3FeC2H6C3HSCS2HC
_chemical_formula_sum              "C896 H1536 S256 Fe128 N64"
_cell_length_a       50.539
_cell_length_b       51.2838
_cell_length_c       52.7776
_cell_angle_alpha    89.8454
_cell_angle_beta     90.0317
_cell_angle_gamma    89.923

_space_group_name_H-M_alt    "P 1"
_space_group_IT_number       1

loop_
  _space_group_symop_operation_xyz
  'x, y, z'

loop_
  _atom_site_type_symbol
  _atom_site_label
  _atom_site_symmetry_multiplicity
  _atom_site_fract_x
  _atom_site_fract_y
  _atom_site_fract_z
  _atom_site_occupancy
  C   C1        1.0  0.19193  0.98397  0.38361  1.0000
  C   C2        1.0  0.99776  0.27725  0.05889  1.0000
  H   H1        1.0  0.02725  0.07011  0.14774  1.0000
  S   S1        1.0  0.25091  0.09049  0.40901  1.0000
  C   C3        1.0  0.00649  0.25021  0.41741  1.0000
  H   H2        1.0  0.05726  0.11901  0.13110  1.0000
  H   H3        1.0  0.18035  0.07107  0.41195  1.0000
  Fe  Fe1       1.0  0.22029  0.11470  0.42926  1.0000
  S   S2        1.0  0.18501  0.13108  0.40652  1.0000
  Fe  Fe2       1.0  0.28229  0.11588  0.42650  1.0000
  C   C4        1.0  0.17597  0.23326  0.95102  1.0000
  C   C5        1.0  0.20509  0.03990  0.37672  1.0000
  H   H4        1.0  0.13223  0.06055  0.35951  1.0000
  H   H5        1.0  0.05793  0.22244  0.39642  1.0000
  S   S3        1.0  0.31528  0.13633  0.40387  1.0000
  H   H6        1.0  0.26594  0.04369  0.96203  1.0000
  H   H7        1.0  0.17503  0.29992  0.96086  1.0000
  Fe  Fe3       1.0  0.01606  0.14171  0.09356  1.0000
  S   S4        1.0  0.04957  0.11880  0.07488  1.0000
  S   S5        1.0  0.01990  0.17144  0.12446  1.0000
  Fe  Fe4       1.0  0.02544  0.13428  0.37861  1.0000
  S   S6        1.0  0.05981  0.11283  0.39838  1.0000
  S   S7        1.0  0.02475  0.17653  0.36685  1.0000
  Fe  Fe5       1.0  0.20462  0.12115  0.03700  1.0000
  S   S8        1.0  0.20485  0.10554  0.99715  1.0000
  S   S9        1.0  0.17186  0.14458  0.05678  1.0000
  Fe  Fe6       1.0  0.26392  0.10740  0.04502  1.0000
  S   S10       1.0  0.26784  0.08964  0.00632  1.0000
  S   S11       1.0  0.29669  0.11658  0.07360  1.0000
  Fe  Fe7       1.0  0.24465  0.12456  0.99281  1.0000
  Fe  Fe8       1.0  0.25275  0.06634  0.44484  1.0000
  Fe  Fe9       1.0  0.22798  0.07143  0.01344  1.0000
  S   S12       1.0  0.21316  0.03137  0.00023  1.0000
  S   S13       1.0  0.24276  0.14308  0.03105  1.0000
  S   S14       1.0  0.22559  0.08632  0.05376  1.0000
  C   C6        1.0  0.13833  0.13601  0.06266  1.0000
  C   C7        1.0  0.12344  0.15112  0.07976  1.0000
  C   C8        1.0  0.09634  0.14610  0.08390  1.0000
  C   C9        1.0  0.08377  0.12584  0.07091  1.0000
  C   C10       1.0  0.09876  0.11043  0.05421  1.0000
  C   C11       1.0  0.12586  0.11546  0.05006  1.0000
  H   H8        1.0  0.13302  0.16683  0.08986  1.0000
  H   H9        1.0  0.08526  0.15785  0.09713  1.0000
  H   H10       1.0  0.08931  0.09456  0.04422  1.0000
  H   H11       1.0  0.13702  0.10362  0.03690  1.0000
  H   H12       1.0  0.03589  0.08111  0.11682  1.0000
  H   H13       1.0  0.05088  0.11579  0.22696  1.0000
  H   H14       1.0  0.17154  0.99827  0.41609  1.0000
  C   C12       1.0  0.06314  0.13808  0.17959  1.0000
  C   C13       1.0  0.15002  0.12657  0.40543  1.0000
  C   C14       1.0  0.13653  0.11070  0.42272  1.0000
  C   C15       1.0  0.10897  0.10681  0.42025  1.0000
  C   C16       1.0  0.09441  0.11906  0.40079  1.0000
  C   C17       1.0  0.10776  0.13549  0.38392  1.0000
  C   C18       1.0  0.13538  0.13912  0.38621  1.0000
  H   H15       1.0  0.12710  0.10560  0.14897  1.0000
  C   C19       1.0  0.04768  0.10799  0.14661  1.0000
  H   H16       1.0  0.09692  0.14508  0.36885  1.0000
  H   H17       1.0  0.14554  0.15154  0.37277  1.0000
  C   C20       1.0  0.18807  0.00523  0.40392  1.0000
  C   C21       1.0  0.13754  0.26219  0.95194  1.0000
  C   C22       1.0  0.22819  0.00133  0.99117  1.0000
  C   C23       1.0  0.25557  0.99735  0.99196  1.0000
  H   H18       1.0  0.14456  0.21082  0.97056  1.0000
  H   H19       1.0  0.26833  0.01254  0.99915  1.0000
  H   H20       1.0  0.01313  0.24196  0.39968  1.0000
  H   H21       1.0  0.10032  0.15352  0.16402  1.0000
  H   H22       1.0  0.22228  0.07062  0.35369  1.0000
  S   S15       1.0  0.26457  0.14671  0.96083  1.0000
  S   S16       1.0  0.99997  0.12063  0.34579  1.0000
  H   H23       1.0  0.07220  0.15715  0.14283  1.0000
  C   C24       1.0  0.99639  0.16741  0.26394  1.0000
  C   C25       1.0  0.04724  0.09464  0.19080  1.0000
  H   H24       1.0  0.10446  0.08598  0.13213  1.0000
  H   H25       1.0  0.18732  0.06826  0.35031  1.0000
  C   C26       1.0  0.07066  0.21609  0.41246  1.0000
  H   H26       1.0  0.05876  0.17577  0.41142  1.0000
  H   H27       1.0  0.25273  0.96679  0.43054  1.0000
  H   H28       1.0  0.14306  0.04185  0.43104  1.0000
  C   C27       1.0  0.21197  0.98113  0.98198  1.0000
  C   C28       1.0  0.14206  0.05939  0.37832  1.0000
  H   H29       1.0  0.03618  0.16006  0.03739  1.0000
  C   C29       1.0  0.10571  0.10337  0.14458  1.0000
  N   N1        1.0  0.06660  0.20805  0.03251  1.0000
  C   C30       1.0  0.04890  0.19378  0.01409  1.0000
  C   C31       1.0  0.06479  0.23674  0.02626  1.0000
  C   C32       1.0  0.05608  0.20313  0.05890  1.0000
  C   C33       1.0  0.09425  0.19728  0.02961  1.0000
  H   H30       1.0  0.28615  0.18203  0.04974  1.0000
  H   H31       1.0  0.09024  0.21125  0.40419  1.0000
  C   C34       1.0  0.06396  0.22264  0.07976  1.0000
  C   C35       1.0  0.11694  0.21164  0.04324  1.0000
  H   H32       1.0  0.00072  0.29008  0.07489  1.0000
  H   H33       1.0  0.05640  0.19560  0.99436  1.0000
  H   H34       1.0  0.07613  0.24889  0.03975  1.0000
  H   H35       1.0  0.04406  0.24367  0.02848  1.0000
  H   H36       1.0  0.03406  0.20317  0.05887  1.0000
  H   H37       1.0  0.06177  0.18338  0.06566  1.0000
  H   H38       1.0  0.09518  0.17686  0.03676  1.0000
  H   H39       1.0  0.09987  0.19520  0.00932  1.0000
  H   H40       1.0  0.05997  0.23785  0.98471  1.0000
  H   H41       1.0  0.02871  0.20252  0.01392  1.0000
  C   C36       1.0  0.04546  0.16423  0.01883  1.0000
  H   H42       1.0  0.06034  0.45462  0.04827  1.0000
  H   H43       1.0  0.03199  0.15613  0.00421  1.0000
  H   H44       1.0  0.14464  0.26812  0.97106  1.0000
  H   H45       1.0  0.05721  0.21498  0.09837  1.0000
  H   H46       1.0  0.05376  0.24165  0.07708  1.0000
  H   H47       1.0  0.08550  0.22575  0.08113  1.0000
  H   H48       1.0  0.11941  0.20434  0.06290  1.0000
  H   H49       1.0  0.11493  0.23307  0.04342  1.0000
  H   H50       1.0  0.13573  0.20787  0.03294  1.0000
  C   C37       1.0  0.18345  0.05036  0.41708  1.0000
  H   H51       1.0  0.09427  0.23774  0.99535  1.0000
  H   H52       1.0  0.20197  0.08310  0.37823  1.0000
  H   H53       1.0  0.04742  0.07345  0.18630  1.0000
  H   H54       1.0  0.29494  0.16373  0.00685  1.0000
  H   H55       1.0  0.07224  0.14009  0.19865  1.0000
  N   N2        1.0  0.18279  0.03259  0.39435  1.0000
  H   H56       1.0  0.04254  0.14572  0.18142  1.0000
  H   H57       1.0  0.20634  0.02620  0.36051  1.0000
  N   N3        1.0  0.06270  0.10995  0.17125  1.0000
  H   H58       1.0  0.17607  0.19518  0.96920  1.0000
  H   H59       1.0  0.02784  0.11723  0.14856  1.0000
  H   H60       1.0  0.28336  0.09067  0.95187  1.0000
  H   H61       1.0  0.08973  0.07725  0.17220  1.0000
  H   H62       1.0  0.20594  0.00475  0.41624  1.0000
  H   H63       1.0  0.07543  0.17736  0.16995  1.0000
  H   H64       1.0  0.28770  0.97074  0.98408  1.0000
  H   H65       1.0  0.99667  0.20535  0.24625  1.0000
  H   H66       1.0  0.14226  0.01968  0.39068  1.0000
  C   C38       1.0  0.99714  0.28770  0.03413  1.0000
  C   C39       1.0  0.05796  0.19212  0.42530  1.0000
  C   C40       1.0  0.07873  0.15724  0.16281  1.0000
  H   H67       1.0  0.02600  0.10040  0.19061  1.0000
  H   H68       1.0  0.15870  0.02474  0.36131  1.0000
  H   H69       1.0  0.20350  0.05003  0.42584  1.0000
  S   S17       1.0  0.00072  0.41776  0.99420  1.0000
  H   H70       1.0  0.99577  0.12712  0.27520  1.0000
  H   H71       1.0  0.10278  0.10638  0.18544  1.0000
  H   H72       1.0  0.09998  0.12085  0.13367  1.0000
  C   C41       1.0  0.26649  0.97357  0.98345  1.0000
  H   H73       1.0  0.15472  0.07682  0.37972  1.0000
  C   C42       1.0  0.05678  0.09684  0.21851  1.0000
  H   H74       1.0  0.22447  0.03845  0.38682  1.0000
  C   C43       1.0  0.04300  0.08007  0.13674  1.0000
  C   C44       1.0  0.15647  0.03281  0.38076  1.0000
  H   H75       1.0  0.31742  0.15394  0.03074  1.0000
  C   C45       1.0  0.07397  0.24467  0.99948  1.0000
  H   H76       1.0  0.06124  0.06810  0.13688  1.0000
  S   S18       1.0  0.03186  0.35027  0.96899  1.0000
  H   H77       1.0  0.12577  0.06083  0.39236  1.0000
  H   H78       1.0  0.06438  0.15336  0.01732  1.0000
  C   C46       1.0  0.09035  0.09882  0.16964  1.0000
  H   H79       1.0  0.21166  0.98556  0.37449  1.0000
  H   H80       1.0  0.07843  0.09394  0.22039  1.0000
  H   H81       1.0  0.07252  0.23284  0.42555  1.0000
  C   C47       1.0  0.20364  0.06709  0.36432  1.0000
  S   S19       1.0  0.25303  0.02224  0.43770  1.0000
  C   C48       1.0  0.99526  0.18456  0.24305  1.0000
  Fe  Fe10      1.0  0.99649  0.32376  0.96645  1.0000
  H   H82       1.0  0.09885  0.09418  0.43352  1.0000
  H   H83       1.0  0.11013  0.19606  0.43966  1.0000
  C   C49       1.0  0.09919  0.17792  0.44456  1.0000
  H   H84       1.0  0.22887  0.07107  0.96118  1.0000
  C   C50       1.0  0.16198  0.20751  0.95824  1.0000
  H   H85       1.0  0.02979  0.28530  0.41365  1.0000
  H   H86       1.0  0.04690  0.08154  0.23006  1.0000
  H   H87       1.0  0.19145  0.96452  0.39296  1.0000
  H   H88       1.0  0.14734  0.10140  0.43791  1.0000
  C   C51       1.0  0.01582  0.27475  0.42533  1.0000
  H   H89       1.0  0.12348  0.24610  0.95609  1.0000
  H   H90       1.0  0.30707  0.06621  0.95943  1.0000
  S   S20       1.0  0.25155  0.14213  0.44415  1.0000
  C   C52       1.0  0.16352  0.04387  0.43830  1.0000
  H   H91       1.0  0.19076  0.98401  0.98116  1.0000
  H   H92       1.0  0.07412  0.26632  0.99813  1.0000
  H   H93       1.0  0.18256  0.24203  0.96920  1.0000
  H   H94       1.0  0.10113  0.16516  0.42766  1.0000
  H   H95       1.0  0.20398  0.27866  0.96144  1.0000
  H   H96       1.0  0.03663  0.19657  0.42721  1.0000
  H   H97       1.0  0.31693  0.16668  0.96648  1.0000
  Fe  Fe11      1.0  0.99721  0.16318  0.33532  1.0000
  Fe  Fe12      1.0  0.00184  0.38327  0.96648  1.0000
  H   H98       1.0  0.16941  0.02601  0.44882  1.0000
  C   C53       1.0  0.29949  0.19173  0.03589  1.0000
  H   H99       1.0  0.99969  0.30843  0.03109  1.0000
  H   H100      1.0  0.31177  0.20924  0.98389  1.0000
  H   H101      1.0  0.28714  0.20549  0.02466  1.0000
  H   H102      1.0  0.17611  0.98423  0.36908  1.0000
  C   C54       1.0  0.00027  0.45202  0.98857  1.0000
  S   S21       1.0  0.99876  0.18067  0.29512  1.0000
  H   H103      1.0  0.11163  0.29576  0.95718  1.0000
  C   C55       1.0  0.31185  0.17077  0.01855  1.0000
  H   H104      1.0  0.31691  0.12575  0.99467  1.0000
  C   C56       1.0  0.00697  0.28585  0.44815  1.0000
  H   H105      1.0  0.01586  0.16640  0.44791  1.0000
  H   H106      1.0  0.06100  0.14298  0.44449  1.0000
  H   H107      1.0  0.31411  0.20295  0.04690  1.0000
  C   C57       1.0  0.00787  0.46293  0.96538  1.0000
  H   H108      1.0  0.01437  0.45033  0.95020  1.0000
  N   N4        1.0  0.07039  0.18370  0.45001  1.0000
  H   H109      1.0  0.12609  0.44403  0.59201  1.0000
  H   H110      1.0  0.07512  0.38910  0.59204  1.0000
  H   H111      1.0  0.10426  0.31490  0.86868  1.0000
  H   H112      1.0  0.15350  0.31556  0.86903  1.0000
  Fe  Fe13      1.0  0.03099  0.35092  0.92629  1.0000
  S   S22       1.0  0.06470  0.33972  0.89902  1.0000
  Fe  Fe14      1.0  0.22774  0.26467  0.58214  1.0000
  S   S23       1.0  0.23613  0.30288  0.56354  1.0000
  S   S24       1.0  0.20960  0.23704  0.55341  1.0000
  Fe  Fe15      1.0  0.24247  0.28687  0.63436  1.0000
  S   S25       1.0  0.25166  0.32693  0.61826  1.0000
  S   S26       1.0  0.24567  0.27129  0.67527  1.0000
  Fe  Fe16      1.0  0.21397  0.32112  0.59552  1.0000
  S   S27       1.0  0.18348  0.35150  0.58285  1.0000
  Fe  Fe17      1.0  0.27310  0.30502  0.58707  1.0000
  S   S28       1.0  0.30800  0.31436  0.56047  1.0000
  S   S29       1.0  0.20364  0.28273  0.61329  1.0000
  S   S30       1.0  0.26583  0.26528  0.60409  1.0000
  Fe  Fe18      1.0  0.27922  0.29962  0.87540  1.0000
  S   S31       1.0  0.26890  0.27032  0.84499  1.0000
  H   H113      1.0  0.29583  0.29262  0.79579  1.0000
  Fe  Fe19      1.0  0.22058  0.31816  0.87908  1.0000
  S   S32       1.0  0.20732  0.29076  0.84879  1.0000
  S   S33       1.0  0.19139  0.34410  0.90051  1.0000
  Fe  Fe20      1.0  0.23309  0.26143  0.86902  1.0000
  S   S34       1.0  0.21343  0.22312  0.87944  1.0000
  Fe  Fe21      1.0  0.24429  0.30244  0.82764  1.0000
  S   S35       1.0  0.24562  0.31951  0.78736  1.0000
  S   S36       1.0  0.24479  0.28837  0.90030  1.0000
  S   S37       1.0  0.25621  0.33222  0.85706  1.0000
  Fe  Fe22      1.0  0.02789  0.34173  0.54835  1.0000
  S   S38       1.0  0.03380  0.36406  0.51225  1.0000
  S   S39       1.0  0.05950  0.32866  0.57663  1.0000
  S   S40       1.0  0.25957  0.12961  0.51767  1.0000
  H   H114      1.0  0.15185  0.36788  0.93228  1.0000
  H   H115      1.0  0.08592  0.42226  0.51222  1.0000
  H   H116      1.0  0.24755  0.24909  0.49746  1.0000
  H   H117      1.0  0.19510  0.26570  0.91635  1.0000
  H   H118      1.0  0.06783  0.44972  0.60145  1.0000
  C   C58       1.0  0.06409  0.45010  0.53671  1.0000
  N   N5        1.0  0.13376  0.26991  0.52670  1.0000
  C   C59       1.0  0.22728  0.20299  0.90326  1.0000
  C   C60       1.0  0.25320  0.20666  0.91175  1.0000
  H   H119      1.0  0.10554  0.27438  0.49607  1.0000
  H   H120      1.0  0.15031  0.21465  0.52976  1.0000
  C   C61       1.0  0.21209  0.18265  0.91367  1.0000
  H   H121      1.0  0.26510  0.22220  0.90381  1.0000
  H   H122      1.0  0.31928  0.26152  0.76903  1.0000
  H   H123      1.0  0.19209  0.17957  0.90703  1.0000
  C   C62       1.0  0.22427  0.20749  0.54376  1.0000
  C   C63       1.0  0.24134  0.19347  0.55958  1.0000
  C   C64       1.0  0.25177  0.16943  0.55147  1.0000
  C   C65       1.0  0.24562  0.15954  0.52737  1.0000
  C   C66       1.0  0.22888  0.17380  0.51142  1.0000
  C   C67       1.0  0.21808  0.19758  0.51970  1.0000
  H   H124      1.0  0.24597  0.20081  0.57827  1.0000
  H   H125      1.0  0.26462  0.15840  0.56394  1.0000
  H   H126      1.0  0.22407  0.16638  0.49282  1.0000
  H   H127      1.0  0.20511  0.20844  0.50728  1.0000
  C   C68       1.0  0.14922  0.34431  0.58043  1.0000
  C   C69       1.0  0.13336  0.35822  0.56309  1.0000
  C   C70       1.0  0.10595  0.35329  0.56115  1.0000
  C   C71       1.0  0.09402  0.33498  0.57717  1.0000
  C   C72       1.0  0.10986  0.32120  0.59454  1.0000
  C   C73       1.0  0.13733  0.32556  0.59595  1.0000
  H   H128      1.0  0.14243  0.37269  0.55093  1.0000
  H   H129      1.0  0.09403  0.36373  0.54747  1.0000
  H   H130      1.0  0.10082  0.30703  0.60704  1.0000
  H   H131      1.0  0.14922  0.31487  0.60952  1.0000
  C   C74       1.0  0.24502  0.28529  0.70622  1.0000
  C   C75       1.0  0.24475  0.31225  0.71027  1.0000
  C   C76       1.0  0.24494  0.32227  0.73520  1.0000
  C   C77       1.0  0.24523  0.30555  0.75642  1.0000
  C   C78       1.0  0.24515  0.27861  0.75243  1.0000
  C   C79       1.0  0.24520  0.26860  0.72750  1.0000
  H   H132      1.0  0.24467  0.32536  0.69417  1.0000
  H   H133      1.0  0.24497  0.34315  0.73799  1.0000
  H   H134      1.0  0.24530  0.26544  0.76847  1.0000
  H   H135      1.0  0.24540  0.24771  0.72463  1.0000
  C   C80       1.0  0.09991  0.34051  0.90073  1.0000
  C   C81       1.0  0.11358  0.35517  0.91882  1.0000
  C   C82       1.0  0.14153  0.35607  0.91849  1.0000
  C   C83       1.0  0.15620  0.34197  0.90043  1.0000
  C   C84       1.0  0.14254  0.32680  0.88276  1.0000
  C   C85       1.0  0.11461  0.32634  0.88273  1.0000
  H   H136      1.0  0.04571  0.23993  0.46268  1.0000
  C   C86       1.0  0.12034  0.28450  0.94126  1.0000
  H   H137      1.0  0.27303  0.21478  0.51766  1.0000
  H   H138      1.0  0.15660  0.25796  0.55950  1.0000
  H   H139      1.0  0.13142  0.22683  0.91746  1.0000
  H   H140      1.0  0.03218  0.41952  0.56275  1.0000
  N   N6        1.0  0.15991  0.25247  0.93557  1.0000
  H   H141      1.0  0.30281  0.07525  0.92711  1.0000
  H   H142      1.0  0.11272  0.17494  0.48443  1.0000
  H   H143      1.0  0.20288  0.08260  0.90939  1.0000
  H   H144      1.0  0.29258  0.25867  0.55335  1.0000
  C   C87       1.0  0.05337  0.41398  0.56502  1.0000
  N   N7        1.0  0.16339  0.34129  0.78706  1.0000
  C   C88       1.0  0.17722  0.31573  0.78211  1.0000
  C   C89       1.0  0.18430  0.36173  0.79188  1.0000
  C   C90       1.0  0.14697  0.34951  0.76458  1.0000
  C   C91       1.0  0.14532  0.33802  0.80954  1.0000
  C   C92       1.0  0.15943  0.29247  0.77492  1.0000
  C   C93       1.0  0.19739  0.36103  0.81831  1.0000
  C   C94       1.0  0.16186  0.35086  0.73907  1.0000
  C   C95       1.0  0.13024  0.36277  0.81803  1.0000
  H   H145      1.0  0.19213  0.31786  0.76677  1.0000
  H   H146      1.0  0.18876  0.30949  0.79897  1.0000
  H   H147      1.0  0.17644  0.38180  0.78899  1.0000
  H   H148      1.0  0.20070  0.36002  0.77786  1.0000
  H   H149      1.0  0.12959  0.33645  0.76208  1.0000
  H   H150      1.0  0.13825  0.36919  0.76777  1.0000
  H   H151      1.0  0.12975  0.32330  0.80551  1.0000
  H   H152      1.0  0.15605  0.32965  0.82609  1.0000
  H   H153      1.0  0.14744  0.29631  0.75773  1.0000
  H   H154      1.0  0.17233  0.27550  0.77051  1.0000
  H   H155      1.0  0.14651  0.28637  0.79083  1.0000
  H   H156      1.0  0.21428  0.37487  0.81862  1.0000
  H   H157      1.0  0.18355  0.36711  0.83351  1.0000
  H   H158      1.0  0.20546  0.34154  0.82287  1.0000
  H   H159      1.0  0.17919  0.36407  0.73992  1.0000
  H   H160      1.0  0.14831  0.35869  0.72430  1.0000
  H   H161      1.0  0.16832  0.33131  0.73253  1.0000
  H   H162      1.0  0.11011  0.36331  0.80955  1.0000
  H   H163      1.0  0.14043  0.38116  0.81312  1.0000
  H   H164      1.0  0.12829  0.36277  0.83901  1.0000
  N   N8        1.0  0.24708  0.05612  0.92722  1.0000
  C   C96       1.0  0.25895  0.09328  0.89530  1.0000
  H   H165      1.0  0.10258  0.41152  0.55113  1.0000
  H   H166      1.0  0.15620  0.19598  0.94138  1.0000
  H   H167      1.0  0.24040  0.10480  0.89646  1.0000
  C   C97       1.0  0.24138  0.97890  0.50199  1.0000
  H   H168      1.0  0.28453  0.19200  0.93557  1.0000
  C   C98       1.0  0.30316  0.23978  0.55123  1.0000
  C   C99       1.0  0.99915  0.45465  0.50205  1.0000
  C   C100      1.0  0.14243  0.25494  0.88907  1.0000
  H   H169      1.0  0.15078  0.25934  0.49052  1.0000
  H   H170      1.0  0.21257  0.03463  0.91433  1.0000
  H   H171      1.0  0.02535  0.21110  0.46407  1.0000
  H   H172      1.0  0.30958  0.31101  0.83556  1.0000
  H   H173      1.0  0.06497  0.44487  0.49584  1.0000
  H   H174      1.0  0.13116  0.31122  0.53494  1.0000
  H   H175      1.0  0.18677  0.29429  0.51818  1.0000
  C   C101      1.0  0.11823  0.23991  0.56393  1.0000
  C   C102      1.0  0.22276  0.16606  0.93240  1.0000
  C   C103      1.0  0.17848  0.27399  0.92761  1.0000
  C   C104      1.0  0.20333  0.08192  0.93037  1.0000
  C   C105      1.0  0.26535  0.25463  0.50857  1.0000
  H   H176      1.0  0.10131  0.24752  0.57516  1.0000
  C   C106      1.0  0.17222  0.30312  0.53133  1.0000
  C   C107      1.0  0.29202  0.07212  0.94516  1.0000
  H   H177      1.0  0.04235  0.46146  0.58190  1.0000
  H   H178      1.0  0.13044  0.27973  0.56633  1.0000
  H   H179      1.0  0.19448  0.22787  0.94077  1.0000
  C   C108      1.0  0.27157  0.05006  0.94254  1.0000
  C   C109      1.0  0.24901  0.16921  0.94022  1.0000
  H   H180      1.0  0.05120  0.41093  0.60697  1.0000
  S   S41       1.0  0.28628  0.09018  0.46087  1.0000
  H   H181      1.0  0.08614  0.28428  0.55085  1.0000
  H   H182      1.0  0.15835  0.21352  0.49703  1.0000
  H   H183      1.0  0.25741  0.99825  0.93100  1.0000
  N   N9        1.0  0.31006  0.23523  0.52379  1.0000
  C   C110      1.0  0.14939  0.23832  0.91256  1.0000
  H   H184      1.0  0.13248  0.24238  0.87485  1.0000
  H   H185      1.0  0.19603  0.10096  0.93756  1.0000
  H   H186      1.0  0.03867  0.22487  0.49203  1.0000
  H   H187      1.0  0.16899  0.28814  0.91462  1.0000
  H   H188      1.0  0.26655  0.09574  0.87569  1.0000
  C   C111      1.0  0.24475  0.00028  0.48542  1.0000
  H   H189      1.0  0.05020  0.41837  0.51213  1.0000
  C   C112      1.0  0.05564  0.39885  0.59016  1.0000
  H   H190      1.0  0.12478  0.21862  0.50554  1.0000
  H   H191      1.0  0.16409  0.22379  0.90564  1.0000
  H   H192      1.0  0.13165  0.29911  0.93042  1.0000
  H   H193      1.0  0.12883  0.27119  0.89337  1.0000
  C   C113      1.0  0.31448  0.34832  0.81745  1.0000
  H   H194      1.0  0.16059  0.26257  0.87983  1.0000
  H   H195      1.0  0.23825  0.05809  0.88688  1.0000
  H   H196      1.0  0.27412  0.27194  0.49918  1.0000
  H   H197      1.0  0.17224  0.25423  0.51670  1.0000
  H   H198      1.0  0.10260  0.36627  0.93271  1.0000
  H   H199      1.0  0.13650  0.16519  0.46110  1.0000
  C   C114      1.0  0.31649  0.96742  0.49425  1.0000
  H   H200      1.0  0.10976  0.14390  0.46810  1.0000
  H   H201      1.0  0.31454  0.27714  0.51964  1.0000
  H   H202      1.0  0.02084  0.13924  0.46815  1.0000
  H   H203      1.0  0.10042  0.42287  0.60404  1.0000
  H   H204      1.0  0.29798  0.17891  0.51781  1.0000
  H   H205      1.0  0.06676  0.15153  0.47664  1.0000
  H   H206      1.0  0.11077  0.22659  0.54921  1.0000
  C   C115      1.0  0.28454  0.23116  0.50941  1.0000
  H   H207      1.0  0.27367  0.10214  0.90814  1.0000
  H   H208      1.0  0.13914  0.97331  0.56557  1.0000
  C   C116      1.0  0.23034  0.03171  0.92650  1.0000
  H   H209      1.0  0.12750  0.41003  0.58681  1.0000
  C   C117      1.0  0.19049  0.29028  0.94929  1.0000
  C   C118      1.0  0.10583  0.26890  0.51654  1.0000
  H   H210      1.0  0.24422  0.01999  0.49267  1.0000
  H   H211      1.0  0.30684  0.31934  0.77711  1.0000
  H   H212      1.0  0.08845  0.30745  0.52500  1.0000
  C   C119      1.0  0.13574  0.26267  0.55440  1.0000
  S   S42       1.0  0.00280  0.31076  0.53031  1.0000
  H   H213      1.0  0.04075  0.38294  0.59014  1.0000
  C   C120      1.0  0.15126  0.25274  0.51067  1.0000
  C   C121      1.0  0.25410  0.06393  0.90041  1.0000
  H   H214      1.0  0.25491  0.01033  0.89864  1.0000
  H   H215      1.0  0.17573  0.32450  0.53068  1.0000
  C   C122      1.0  0.31897  0.28228  0.76307  1.0000
  H   H216      1.0  0.07250  0.19559  0.48930  1.0000
  H   H217      1.0  0.27204  0.05320  0.89395  1.0000
  H   H218      1.0  0.22870  0.99175  0.91273  1.0000
  C   C123      1.0  0.14332  0.29764  0.52344  1.0000
  H   H219      1.0  0.05754  0.39936  0.55005  1.0000
  N   N10       1.0  0.07082  0.43763  0.56192  1.0000
  C   C124      1.0  0.23135  0.07671  0.94093  1.0000
  H   H220      1.0  0.32107  0.25926  0.49158  1.0000
  H   H221      1.0  0.17642  0.29681  0.55104  1.0000
  C   C125      1.0  0.08559  0.28661  0.53000  1.0000
  H   H222      1.0  0.14103  0.30421  0.50341  1.0000
  H   H223      1.0  0.12999  0.22778  0.57733  1.0000
  H   H224      1.0  0.06527  0.28149  0.52367  1.0000
  H   H225      1.0  0.11147  0.44493  0.55127  1.0000
  H   H226      1.0  0.23827  0.98242  0.52198  1.0000
  H   H227      1.0  0.30862  0.18658  0.54984  1.0000
  H   H228      1.0  0.30256  0.28418  0.74914  1.0000
  H   H229      1.0  0.32655  0.26899  0.82370  1.0000
  H   H230      1.0  0.09750  0.24901  0.51707  1.0000
  C   C126      1.0  0.31481  0.18536  0.52973  1.0000
  H   H231      1.0  0.28284  0.03355  0.93423  1.0000
  C   C127      1.0  0.06667  0.43255  0.51314  1.0000
  H   H232      1.0  0.25816  0.25999  0.52769  1.0000
  C   C128      1.0  0.24398  0.00682  0.91653  1.0000
  C   C129      1.0  0.26414  0.18955  0.92983  1.0000
  Fe  Fe23      1.0  0.00623  0.33450  0.49487  1.0000
  C   C130      1.0  0.24885  0.99608  0.45955  1.0000
  H   H233      1.0  0.28842  0.22534  0.55823  1.0000
  H   H234      1.0  0.31022  0.98681  0.50148  1.0000
  Fe  Fe24      1.0  0.25375  0.11507  0.47747  1.0000
  S   S43       1.0  0.01920  0.31660  0.45758  1.0000
  H   H235      1.0  0.28861  0.22546  0.48941  1.0000
  H   H236      1.0  0.21103  0.15029  0.94008  1.0000
  H   H237      1.0  0.10392  0.27691  0.92938  1.0000
  S   S44       1.0  0.00313  0.38556  0.92386  1.0000
  S   S45       1.0  0.22033  0.08922  0.46414  1.0000
  C   C131      1.0  0.04314  0.22058  0.47186  1.0000
  C   C132      1.0  0.14533  0.22331  0.51104  1.0000
  C   C133      1.0  0.11511  0.16480  0.46607  1.0000
  C   C134      1.0  0.32371  0.25879  0.51256  1.0000
  H   H238      1.0  0.08508  0.21891  0.46742  1.0000
  H   H239      1.0  0.02327  0.17100  0.48138  1.0000
  C   C135      1.0  0.11356  0.42680  0.58780  1.0000
  C   C136      1.0  0.09972  0.43003  0.56177  1.0000
  C   C137      1.0  0.06897  0.20439  0.47029  1.0000
  H   H240      1.0  0.00959  0.42840  0.47193  1.0000
  H   H241      1.0  0.29462  0.34643  0.80865  1.0000
  H   H242      1.0  0.18928  0.06679  0.93715  1.0000
  Fe  Fe25      1.0  0.99650  0.38575  0.52249  1.0000
  C   C138      1.0  0.02773  0.15941  0.46419  1.0000
  C   C139      1.0  0.31344  0.30057  0.78568  1.0000
  H   H243      1.0  0.20272  0.30610  0.94095  1.0000
  C   C140      1.0  0.32674  0.21114  0.51994  1.0000
  C   C141      1.0  0.24954  0.97027  0.45052  1.0000
  C   C142      1.0  0.00732  0.44859  0.47744  1.0000
  S   S46       1.0  0.32174  0.29700  0.89071  1.0000
  C   C143      1.0  0.06403  0.45726  0.58215  1.0000
  H   H244      1.0  0.16357  0.05991  0.45239  1.0000
  C   C144      1.0  0.05764  0.15863  0.45874  1.0000
  H   H245      1.0  0.31185  0.36045  0.83469  1.0000
  S   S47       1.0  0.99698  0.32274  0.92392  1.0000
  H   H246      1.0  0.22245  0.02707  0.94566  1.0000
  H   H247      1.0  0.32777  0.35901  0.80441  1.0000
  H   H248      1.0  0.31891  0.23380  0.58916  1.0000
  H   H249      1.0  0.24184  0.09568  0.94150  1.0000
  C   C145      1.0  0.32561  0.32144  0.82526  1.0000
  C   C146      1.0  0.32611  0.24092  0.57050  1.0000
  H   H250      1.0  0.04348  0.45788  0.53687  1.0000
  Fe  Fe26      1.0  0.04249  0.61183  0.42302  1.0000
  S   S48       1.0  0.07303  0.62980  0.39595  1.0000
  Fe  Fe27      1.0  0.24319  0.66583  0.14105  1.0000
  S   S49       1.0  0.23872  0.62871  0.11810  1.0000
  S   S50       1.0  0.23198  0.67324  0.18280  1.0000
  Fe  Fe28      1.0  0.25776  0.69800  0.09394  1.0000
  S   S51       1.0  0.25402  0.66346  0.06840  1.0000
  S   S52       1.0  0.27451  0.73612  0.07865  1.0000
  Fe  Fe29      1.0  0.21662  0.65360  0.08965  1.0000
  S   S53       1.0  0.18232  0.64389  0.06239  1.0000
  Fe  Fe30      1.0  0.27648  0.64158  0.09827  1.0000
  H   H251      1.0  0.28755  0.73160  0.43041  1.0000
  S   S54       1.0  0.21908  0.69008  0.11332  1.0000
  S   S55       1.0  0.28223  0.67671  0.12311  1.0000
  Fe  Fe31      1.0  0.29567  0.64811  0.38446  1.0000
  S   S56       1.0  0.29998  0.67444  0.35070  1.0000
  H   H252      1.0  0.29170  0.72590  0.32032  1.0000
  Fe  Fe32      1.0  0.23407  0.64943  0.38063  1.0000
  S   S57       1.0  0.23427  0.67646  0.34673  1.0000
  S   S58       1.0  0.19959  0.63085  0.40238  1.0000
  Fe  Fe33      1.0  0.26746  0.65117  0.33219  1.0000
  S   S59       1.0  0.27307  0.63546  0.29188  1.0000
  Fe  Fe34      1.0  0.26672  0.69766  0.36776  1.0000
  S   S60       1.0  0.27503  0.74095  0.36971  1.0000
  S   S61       1.0  0.26555  0.62269  0.36494  1.0000
  S   S62       1.0  0.26402  0.67283  0.40252  1.0000
  Fe  Fe35      1.0  0.02961  0.60354  0.04396  1.0000
  S   S63       1.0  0.06406  0.60009  0.07206  1.0000
  S   S64       1.0  0.03335  0.60302  0.00171  1.0000
  S   S65       1.0  0.21241  0.80687  0.99960  1.0000
  H   H253      1.0  0.31380  0.76507  0.42371  1.0000
  H   H254      1.0  0.28731  0.74499  0.22666  1.0000
  C   C147      1.0  0.25027  0.95344  0.97412  1.0000
  C   C148      1.0  0.00739  0.49025  0.96191  1.0000
  C   C149      1.0  0.22265  0.89831  0.06250  1.0000
  C   C150      1.0  0.25767  0.76011  0.39188  1.0000
  C   C151      1.0  0.23466  0.75096  0.40357  1.0000
  Fe  Fe36      1.0  0.00403  0.63605  0.00114  1.0000
  H   H255      1.0  0.25134  0.71067  0.01605  1.0000
  H   H256      1.0  0.02845  0.51484  0.07007  1.0000
  H   H257      1.0  0.22731  0.73167  0.39924  1.0000
  H   H258      1.0  0.31657  0.69342  0.42467  1.0000
  H   H259      1.0  0.17626  0.65970  0.29801  1.0000
  C   C152      1.0  0.25733  0.75443  0.05552  1.0000
  C   C153      1.0  0.27115  0.77302  0.04107  1.0000
  C   C154      1.0  0.25787  0.78847  0.02298  1.0000
  C   C155      1.0  0.23053  0.78586  0.01975  1.0000
  C   C156      1.0  0.21679  0.76718  0.03411  1.0000
  C   C157      1.0  0.23017  0.75127  0.05169  1.0000
  H   H260      1.0  0.29217  0.77558  0.04401  1.0000
  H   H261      1.0  0.26863  0.80284  0.01207  1.0000
  H   H262      1.0  0.19563  0.76513  0.03176  1.0000
  H   H263      1.0  0.21937  0.73703  0.06275  1.0000
  C   C158      1.0  0.14992  0.63058  0.06572  1.0000
  C   C159      1.0  0.13897  0.62414  0.08926  1.0000
  C   C160      1.0  0.11292  0.61428  0.09079  1.0000
  C   C161      1.0  0.09734  0.61103  0.06889  1.0000
  C   C162      1.0  0.10840  0.61709  0.04532  1.0000
  C   C163      1.0  0.13450  0.62676  0.04378  1.0000
  H   H264      1.0  0.15056  0.62685  0.10630  1.0000
  H   H265      1.0  0.10464  0.60956  0.10914  1.0000
  H   H266      1.0  0.09690  0.61427  0.02828  1.0000
  H   H267      1.0  0.14283  0.63146  0.02545  1.0000
  C   C164      1.0  0.24372  0.66216  0.21284  1.0000
  C   C165      1.0  0.26461  0.64441  0.21536  1.0000
  C   C166      1.0  0.27309  0.63630  0.23966  1.0000
  C   C167      1.0  0.26098  0.64592  0.26176  1.0000
  C   C168      1.0  0.23998  0.66356  0.25927  1.0000
  C   C169      1.0  0.23150  0.67164  0.23499  1.0000
  H   H268      1.0  0.27417  0.63686  0.19856  1.0000
  H   H269      1.0  0.28928  0.62257  0.24129  1.0000
  H   H270      1.0  0.23013  0.67087  0.27597  1.0000
  H   H271      1.0  0.21520  0.68524  0.23328  1.0000
  C   C170      1.0  0.10824  0.62906  0.39752  1.0000
  C   C171      1.0  0.12185  0.61435  0.41570  1.0000
  C   C172      1.0  0.14974  0.61523  0.41686  1.0000
  C   C173      1.0  0.16442  0.63089  0.40002  1.0000
  C   C174      1.0  0.15081  0.64571  0.38193  1.0000
  C   C175      1.0  0.12293  0.64456  0.38053  1.0000
  H   H272      1.0  0.11090  0.60232  0.42888  1.0000
  H   H273      1.0  0.31209  0.79418  0.44260  1.0000
  H   H274      1.0  0.16170  0.65824  0.36921  1.0000
  H   H275      1.0  0.11261  0.65615  0.36649  1.0000
  C   C176      1.0  0.29957  0.69875  0.27720  1.0000
  H   H276      1.0  0.09624  0.68320  0.40770  1.0000
  H   H277      1.0  0.06464  0.53405  0.96466  1.0000
  H   H278      1.0  0.30534  0.65521  0.03881  1.0000
  H   H279      1.0  0.02990  0.67298  0.08647  1.0000
  H   H280      1.0  0.09027  0.54917  0.98266  1.0000
  H   H281      1.0  0.09736  0.55456  0.02443  1.0000
  H   H282      1.0  0.22752  0.72797  0.28736  1.0000
  H   H283      1.0  0.26101  0.72683  0.25648  1.0000
  C   C177      1.0  0.19439  0.57404  0.35845  1.0000
  C   C178      1.0  0.30349  0.73683  0.30606  1.0000
  H   H284      1.0  0.06856  0.65203  0.01691  1.0000
  H   H285      1.0  0.31049  0.76410  0.26325  1.0000
  H   H286      1.0  0.06771  0.67963  0.99573  1.0000
  N   N11       1.0  0.29666  0.72791  0.27964  1.0000
  H   H287      1.0  0.12729  0.55137  0.05989  1.0000
  C   C179      1.0  0.08673  0.70188  0.41266  1.0000
  H   H288      1.0  0.28458  0.88007  0.02820  1.0000
  S   S66       1.0  0.01375  0.63942  0.44153  1.0000
  Fe  Fe37      1.0  0.01516  0.56404  0.44759  1.0000
  C   C180      1.0  0.22050  0.76723  0.42018  1.0000
  C   C181      1.0  0.06890  0.69973  0.43617  1.0000
  H   H289      1.0  0.21401  0.56436  0.35830  1.0000
  C   C182      1.0  0.22109  0.92828  0.05888  1.0000
  H   H290      1.0  0.17721  0.91264  0.03034  1.0000
  H   H291      1.0  0.23414  0.82167  0.06993  1.0000
  H   H292      1.0  0.03350  0.52543  0.02855  1.0000
  H   H293      1.0  0.20491  0.82967  0.05296  1.0000
  H   H294      1.0  0.20458  0.89206  0.07295  1.0000
  H   H295      1.0  0.30880  0.73244  0.98229  1.0000
  H   H296      1.0  0.09420  0.55099  0.07072  1.0000
  H   H297      1.0  0.08348  0.49237  0.06078  1.0000
  C   C183      1.0  0.10897  0.53940  0.06011  1.0000
  N   N12       1.0  0.19645  0.59591  0.31424  1.0000
  C   C184      1.0  0.22302  0.58348  0.30905  1.0000
  C   C185      1.0  0.17530  0.57827  0.30373  1.0000
  C   C186      1.0  0.23042  0.58003  0.28083  1.0000
  C   C187      1.0  0.14626  0.58510  0.30990  1.0000
  H   H298      1.0  0.22431  0.56367  0.31757  1.0000
  H   H299      1.0  0.19193  0.61996  0.28050  1.0000
  H   H300      1.0  0.17640  0.57780  0.28268  1.0000
  H   H301      1.0  0.17877  0.55755  0.30921  1.0000
  H   H302      1.0  0.23025  0.59867  0.27017  1.0000
  H   H303      1.0  0.25099  0.57244  0.27967  1.0000
  H   H304      1.0  0.21751  0.56563  0.27127  1.0000
  C   C188      1.0  0.03028  0.72280  0.05351  1.0000
  H   H305      1.0  0.30686  0.68315  0.97508  1.0000
  H   H306      1.0  0.28902  0.69860  0.04343  1.0000
  C   C189      1.0  0.19427  0.59934  0.34255  1.0000
  H   H307      1.0  0.11389  0.52115  0.07035  1.0000
  C   C190      1.0  0.18473  0.89955  0.01529  1.0000
  C   C191      1.0  0.29286  0.70265  0.02308  1.0000
  H   H308      1.0  0.26554  0.75655  0.27324  1.0000
  H   H309      1.0  0.24905  0.73754  0.31247  1.0000
  H   H310      1.0  0.23921  0.59501  0.31802  1.0000
  Fe  Fe38      1.0  0.99746  0.57659  0.00282  1.0000
  H   H311      1.0  0.06197  0.52246  0.07951  1.0000
  C   C192      1.0  0.30670  0.73672  0.23246  1.0000
  H   H312      1.0  0.17871  0.56027  0.35250  1.0000
  H   H313      1.0  0.99883  0.72754  0.96627  1.0000
  N   N13       1.0  0.07334  0.69469  0.05061  1.0000
  C   C193      1.0  0.09206  0.68624  0.02983  1.0000
  C   C194      1.0  0.08647  0.71674  0.06467  1.0000
  C   C195      1.0  0.04789  0.70383  0.03836  1.0000
  C   C196      1.0  0.06855  0.67144  0.06751  1.0000
  C   C197      1.0  0.08027  0.66840  0.00911  1.0000
  C   C198      1.0  0.11304  0.71001  0.07765  1.0000
  C   C199      1.0  0.99814  0.71438  0.95030  1.0000
  C   C200      1.0  0.05119  0.67547  0.09115  1.0000
  H   H314      1.0  0.10046  0.70349  0.01978  1.0000
  H   H315      1.0  0.10938  0.67561  0.03785  1.0000
  H   H316      1.0  0.07356  0.72485  0.07968  1.0000
  H   H317      1.0  0.09012  0.73340  0.05152  1.0000
  H   H318      1.0  0.05206  0.71420  0.02020  1.0000
  H   H319      1.0  0.03533  0.68684  0.03319  1.0000
  H   H320      1.0  0.05885  0.65553  0.05677  1.0000
  H   H321      1.0  0.08744  0.66246  0.07383  1.0000
  H   H322      1.0  0.24062  0.93741  0.06261  1.0000
  H   H323      1.0  0.15603  0.63561  0.31285  1.0000
  H   H324      1.0  0.17614  0.61002  0.34805  1.0000
  S   S67       1.0  0.01104  0.67662  0.98482  1.0000
  H   H325      1.0  0.11078  0.69456  0.09224  1.0000
  C   C201      1.0  0.22979  0.79233  0.42592  1.0000
  H   H326      1.0  0.05176  0.68713  0.43096  1.0000
  H   H327      1.0  0.28742  0.69170  0.26105  1.0000
  H   H328      1.0  0.05666  0.46474  0.01617  1.0000
  H   H329      1.0  0.12055  0.72760  0.08756  1.0000
  H   H330      1.0  0.05437  0.69434  0.10067  1.0000
  H   H331      1.0  0.20754  0.93650  0.07339  1.0000
  H   H332      1.0  0.09663  0.65980  0.99782  1.0000
  H   H333      1.0  0.21067  0.61186  0.34956  1.0000
  S   S68       1.0  0.00957  0.58527  0.41042  1.0000
  H   H334      1.0  0.06084  0.71970  0.43874  1.0000
  H   H335      1.0  0.29149  0.68881  0.29426  1.0000
  H   H336      1.0  0.19029  0.57905  0.37855  1.0000
  N   N14       1.0  0.22630  0.88206  0.03892  1.0000
  C   C202      1.0  0.23858  0.85621  0.04626  1.0000
  C   C203      1.0  0.24453  0.89464  0.01986  1.0000
  C   C204      1.0  0.20004  0.87627  0.02655  1.0000
  H   H337      1.0  0.21357  0.93505  0.04034  1.0000
  C   C205      1.0  0.22175  0.83836  0.06347  1.0000
  C   C206      1.0  0.27333  0.89867  0.02876  1.0000
  H   H338      1.0  0.29604  0.72401  0.02193  1.0000
  C   C207      1.0  0.17654  0.64280  0.31123  1.0000
  H   H339      1.0  0.24373  0.84474  0.02903  1.0000
  H   H340      1.0  0.25758  0.85912  0.05654  1.0000
  H   H341      1.0  0.23728  0.91390  0.01343  1.0000
  H   H342      1.0  0.24527  0.88282  0.00222  1.0000
  H   H343      1.0  0.20270  0.86180  0.01107  1.0000
  H   H344      1.0  0.18615  0.86705  0.04022  1.0000
  H   H345      1.0  0.12855  0.70425  0.06388  1.0000
  H   H346      1.0  0.29818  0.75779  0.30855  1.0000
  C   C208      1.0  0.26800  0.73499  0.27486  1.0000
  H   H347      1.0  0.21449  0.84857  0.08059  1.0000
  H   H348      1.0  0.28464  0.79245  0.38843  1.0000
  S   S69       1.0  0.20850  0.86741  0.95632  1.0000
  H   H349      1.0  0.26025  0.82067  0.41873  1.0000
  C   C209      1.0  0.26692  0.78523  0.39754  1.0000
  H   H350      1.0  0.16004  0.60368  0.43095  1.0000
  H   H351      1.0  0.30701  0.71553  0.22833  1.0000
  H   H352      1.0  0.13432  0.56691  0.30990  1.0000
  H   H353      1.0  0.05577  0.55307  0.99147  1.0000
  H   H354      1.0  0.28347  0.91228  0.01555  1.0000
  C   C210      1.0  0.05150  0.53205  0.03886  1.0000
  N   N15       1.0  0.07571  0.51828  0.02869  1.0000
  C   C211      1.0  0.07232  0.51438  0.00047  1.0000
  C   C212      1.0  0.07992  0.49159  0.04013  1.0000
  C   C213      1.0  0.10016  0.53469  0.03257  1.0000
  H   H355      1.0  0.03829  0.54741  0.07523  1.0000
  C   C214      1.0  0.07080  0.53934  0.98420  1.0000
  C   C215      1.0  0.26690  0.69746  0.00852  1.0000
  H   H356      1.0  0.26871  0.70181  0.98803  1.0000
  H   H357      1.0  0.08871  0.50226  0.99264  1.0000
  H   H358      1.0  0.05381  0.50348  0.99634  1.0000
  H   H359      1.0  0.21014  0.94221  0.96616  1.0000
  H   H360      1.0  0.05273  0.55339  0.03506  1.0000
  C   C216      1.0  0.31300  0.74269  0.26050  1.0000
  H   H361      1.0  0.20221  0.76042  0.42852  1.0000
  H   H362      1.0  0.14319  0.59338  0.32897  1.0000
  S   S70       1.0  0.21058  0.81299  0.44519  1.0000
  H   H363      1.0  0.01141  0.72562  0.04300  1.0000
  H   H364      1.0  0.23950  0.89492  0.07575  1.0000
  H   H365      1.0  0.25060  0.70480  0.29977  1.0000
  H   H366      1.0  0.09827  0.48257  0.03233  1.0000
  C   C217      1.0  0.25322  0.80120  0.41474  1.0000
  H   H367      1.0  0.02498  0.71543  0.07250  1.0000
  H   H368      1.0  0.03962  0.74230  0.05512  1.0000
  H   H369      1.0  0.19626  0.91055  0.00101  1.0000
  C   C218      1.0  0.24790  0.72563  0.29493  1.0000
  H   H370      1.0  0.13789  0.59856  0.29544  1.0000
  Fe  Fe39      1.0  0.23064  0.83108  0.96815  1.0000
  H   H371      1.0  0.16702  0.89199  0.00521  1.0000
  H   H372      1.0  0.21589  0.63157  0.30233  1.0000
  S   S71       1.0  0.27111  0.84895  0.96491  1.0000
  H   H373      1.0  0.27449  0.90722  0.04797  1.0000
  H   H374      1.0  0.25940  0.67739  0.01147  1.0000
  C   C219      1.0  0.32280  0.69178  0.98696  1.0000
  H   H375      1.0  0.11733  0.52595  0.02238  1.0000
  H   H376      1.0  0.18319  0.65037  0.32983  1.0000
  C   C220      1.0  0.00193  0.68754  0.95421  1.0000
  H   H377      1.0  0.05664  0.66054  0.10556  1.0000
  C   C221      1.0  0.19605  0.62217  0.30112  1.0000
  S   S72       1.0  0.30892  0.61375  0.08406  1.0000
  C   C222      1.0  0.04525  0.52852  0.06742  1.0000
  S   S73       1.0  0.26534  0.92407  0.96334  1.0000
  H   H378      1.0  0.07433  0.70744  0.39611  1.0000
  C   C223      1.0  0.32175  0.70807  0.43933  1.0000
  Fe  Fe40      1.0  0.24907  0.88454  0.95029  1.0000
  S   S74       1.0  0.00273  0.63821  0.04358  1.0000
  H   H379      1.0  0.32189  0.74603  0.22021  1.0000
  H   H380      1.0  0.29411  0.65241  0.00701  1.0000
  C   C224      1.0  0.29633  0.72241  0.44761  1.0000
  C   C225      1.0  0.99962  0.50706  0.98163  1.0000
  S   S75       1.0  0.99508  0.57556  0.04548  1.0000
  C   C226      1.0  0.31113  0.65895  0.01870  1.0000
  H   H381      1.0  0.09056  0.76323  0.95094  1.0000
  C   C227      1.0  0.22288  0.95734  0.97350  1.0000
  H   H382      1.0  0.04306  0.75730  0.96013  1.0000
  H   H383      1.0  0.04986  0.79110  0.95573  1.0000
  C   C228      1.0  0.32285  0.77547  0.43986  1.0000
  H   H384      1.0  0.10177  0.71744  0.41491  1.0000
  S   S76       1.0  0.01611  0.51959  0.44358  1.0000
  H   H385      1.0  0.03762  0.48028  0.04090  1.0000
  N   N16       1.0  0.31692  0.68757  0.01466  1.0000
  C   C229      1.0  0.05717  0.47197  0.03598  1.0000
  S   S77       1.0  0.99957  0.54134  0.97605  1.0000
  H   H386      1.0  0.13145  0.69215  0.43757  1.0000
  C   C230      1.0  0.32769  0.68769  0.27257  1.0000
  C   C231      1.0  0.32647  0.72025  0.97840  1.0000
  H   H387      1.0  0.01884  0.46382  0.44090  1.0000
  H   H388      1.0  0.10474  0.65975  0.44132  1.0000
  H   H389      1.0  0.32747  0.72533  0.05689  1.0000
  H   H390      1.0  0.07281  0.64996  0.44990  1.0000
  H   H391      1.0  0.10007  0.48133  0.57718  1.0000
  H   H392      1.0  0.30086  0.92686  0.56072  1.0000
  H   H393      1.0  0.03511  0.70294  0.60976  1.0000
  H   H394      1.0  0.17832  0.87516  0.59932  1.0000
  S   S78       1.0  0.25106  0.87145  0.90954  1.0000
  C   C232      1.0  0.10427  0.70723  0.46830  1.0000
  Fe  Fe41      1.0  0.21199  0.85134  0.91683  1.0000
  S   S79       1.0  0.18090  0.84855  0.88535  1.0000
  Fe  Fe42      1.0  0.27074  0.83507  0.92442  1.0000
  S   S80       1.0  0.30177  0.81220  0.90158  1.0000
  Fe  Fe43      1.0  0.02601  0.81087  0.58255  1.0000
  S   S81       1.0  0.06065  0.82859  0.56008  1.0000
  S   S82       1.0  0.02386  0.77058  0.59957  1.0000
  Fe  Fe44      1.0  0.02270  0.81254  0.87320  1.0000
  S   S83       1.0  0.05708  0.82558  0.89864  1.0000
  S   S84       1.0  0.02353  0.78168  0.84291  1.0000
  Fe  Fe45      1.0  0.21558  0.83513  0.53542  1.0000
  S   S85       1.0  0.20251  0.85931  0.50235  1.0000
  S   S86       1.0  0.18697  0.82144  0.56630  1.0000
  Fe  Fe46      1.0  0.27443  0.83450  0.51702  1.0000
  S   S87       1.0  0.26441  0.85863  0.48240  1.0000
  H   H395      1.0  0.27793  0.77518  0.48346  1.0000
  Fe  Fe47      1.0  0.23940  0.88291  0.50875  1.0000
  S   S88       1.0  0.23803  0.92704  0.51494  1.0000
  Fe  Fe48      1.0  0.22859  0.83280  0.47929  1.0000
  H   H396      1.0  0.28052  0.86666  0.82976  1.0000
  S   S89       1.0  0.25133  0.86014  0.54371  1.0000
  S   S90       1.0  0.23972  0.80730  0.51210  1.0000
  C   C233      1.0  0.07850  0.48367  0.58014  1.0000
  S   S91       1.0  0.05023  0.58880  0.45844  1.0000
  H   H397      1.0  0.24432  0.72917  0.46287  1.0000
  C   C234      1.0  0.06954  0.71942  0.93049  1.0000
  H   H398      1.0  0.16209  0.93465  0.58968  1.0000
  C   C235      1.0  0.09558  0.82378  0.56155  1.0000
  C   C236      1.0  0.10835  0.81436  0.58328  1.0000
  C   C237      1.0  0.13629  0.81314  0.58422  1.0000
  C   C238      1.0  0.15181  0.82102  0.56341  1.0000
  C   C239      1.0  0.13900  0.82976  0.54145  1.0000
  C   C240      1.0  0.11113  0.83134  0.54065  1.0000
  H   H399      1.0  0.09674  0.80864  0.59958  1.0000
  H   H400      1.0  0.14594  0.80637  0.60132  1.0000
  H   H401      1.0  0.15057  0.83562  0.52519  1.0000
  H   H402      1.0  0.10150  0.83861  0.52373  1.0000
  C   C241      1.0  0.15944  0.92074  0.51372  1.0000
  H   H403      1.0  0.08196  0.71624  0.94768  1.0000
  N   N17       1.0  0.08167  0.68986  0.46022  1.0000
  C   C242      1.0  0.30955  0.90751  0.55642  1.0000
  H   H404      1.0  0.29192  0.94648  0.51972  1.0000
  H   H405      1.0  0.09661  0.91491  0.57220  1.0000
  C   C243      1.0  0.14670  0.84116  0.88940  1.0000
  C   C244      1.0  0.13480  0.84074  0.91332  1.0000
  C   C245      1.0  0.10740  0.83600  0.91564  1.0000
  C   C246      1.0  0.09156  0.83119  0.89419  1.0000
  C   C247      1.0  0.10356  0.83097  0.87030  1.0000
  C   C248      1.0  0.13092  0.83612  0.86794  1.0000
  H   H406      1.0  0.14657  0.84466  0.93000  1.0000
  H   H407      1.0  0.09835  0.83629  0.93421  1.0000
  H   H408      1.0  0.09167  0.82740  0.85362  1.0000
  H   H409      1.0  0.13982  0.83654  0.84932  1.0000
  H   H410      1.0  0.17973  0.91279  0.51196  1.0000
  C   C249      1.0  0.10719  0.74056  0.90925  1.0000
  H   H411      1.0  0.09925  0.72808  0.46473  1.0000
  H   H412      1.0  0.25929  0.88407  0.85073  1.0000
  H   H413      1.0  0.16037  0.94188  0.51796  1.0000
  S   S92       1.0  0.00191  0.82998  0.61360  1.0000
  H   H414      1.0  0.99541  0.67532  0.68979  1.0000
  H   H415      1.0  0.03590  0.71518  0.50388  1.0000
  C   C250      1.0  0.14268  0.90568  0.53332  1.0000
  S   S93       1.0  0.31586  0.81581  0.51864  1.0000
  H   H416      1.0  0.24965  0.73631  0.49621  1.0000
  C   C251      1.0  0.02580  0.67716  0.54313  1.0000
  C   C252      1.0  0.06074  0.74905  0.89397  1.0000
  C   C253      1.0  0.24619  0.94887  0.46710  1.0000
  H   H417      1.0  0.11942  0.94958  0.55095  1.0000
  H   H418      1.0  0.11655  0.65975  0.48988  1.0000
  N   N18       1.0  0.24422  0.81934  0.83498  1.0000
  C   C254      1.0  0.24127  0.84870  0.83558  1.0000
  C   C255      1.0  0.22263  0.80856  0.81825  1.0000
  C   C256      1.0  0.27119  0.81277  0.82422  1.0000
  C   C257      1.0  0.24148  0.80959  0.86183  1.0000
  C   C258      1.0  0.19393  0.81543  0.82579  1.0000
  C   C259      1.0  0.27417  0.78651  0.81016  1.0000
  C   C260      1.0  0.24593  0.78027  0.86616  1.0000
  H   H419      1.0  0.22343  0.78696  0.81735  1.0000
  H   H420      1.0  0.22549  0.81551  0.79840  1.0000
  H   H421      1.0  0.27725  0.82754  0.80984  1.0000
  H   H422      1.0  0.28660  0.81351  0.83938  1.0000
  H   H423      1.0  0.25541  0.81980  0.87457  1.0000
  H   H424      1.0  0.22169  0.81443  0.86955  1.0000
  H   H425      1.0  0.18821  0.80649  0.84414  1.0000
  H   H426      1.0  0.19031  0.83675  0.82640  1.0000
  H   H427      1.0  0.18019  0.80740  0.81135  1.0000
  H   H428      1.0  0.28784  0.71195  0.49579  1.0000
  H   H429      1.0  0.04903  0.72177  0.93743  1.0000
  H   H430      1.0  0.99637  0.66774  0.89281  1.0000
  H   H431      1.0  0.23227  0.76819  0.85474  1.0000
  H   H432      1.0  0.24204  0.77564  0.88639  1.0000
  H   H433      1.0  0.26682  0.77479  0.86254  1.0000
  N   N19       1.0  0.29956  0.74185  0.46885  1.0000
  H   H434      1.0  0.28796  0.90040  0.52201  1.0000
  H   H435      1.0  0.04449  0.67153  0.55156  1.0000
  H   H436      1.0  0.28628  0.75519  0.52057  1.0000
  H   H437      1.0  0.10734  0.70552  0.48916  1.0000
  H   H438      1.0  0.22440  0.85453  0.84796  1.0000
  H   H439      1.0  0.06902  0.68332  0.49910  1.0000
  C   C261      1.0  0.06910  0.69371  0.91554  1.0000
  C   C262      1.0  0.32309  0.75933  0.46464  1.0000
  H   H440      1.0  0.31672  0.88107  0.52594  1.0000
  C   C263      1.0  0.01490  0.66194  0.52366  1.0000
  C   C264      1.0  0.03459  0.69529  0.62945  1.0000
  C   C265      1.0  0.31354  0.94707  0.51564  1.0000
  C   C266      1.0  0.15612  0.93451  0.56940  1.0000
  H   H441      1.0  0.03217  0.67383  0.62883  1.0000
  H   H442      1.0  0.08870  0.68834  0.90778  1.0000
  H   H443      1.0  0.32490  0.88119  0.45590  1.0000
  H   H444      1.0  0.11061  0.72366  0.89670  1.0000
  C   C267      1.0  0.06699  0.73450  0.86898  1.0000
  H   H445      1.0  0.30312  0.96299  0.47812  1.0000
  C   C268      1.0  0.24924  0.74457  0.47680  1.0000
  S   S94       1.0  0.23174  0.81426  0.92909  1.0000
  H   H446      1.0  0.05388  0.69422  0.90038  1.0000
  H   H447      1.0  0.14151  0.88499  0.52698  1.0000
  H   H448      1.0  0.03971  0.74499  0.89883  1.0000
  H   H449      1.0  0.21016  0.87864  0.58559  1.0000
  H   H450      1.0  0.05416  0.69968  0.63803  1.0000
  H   H451      1.0  0.04805  0.72870  0.85988  1.0000
  H   H452      1.0  0.11934  0.73619  0.92640  1.0000
  H   H453      1.0  0.03324  0.72217  0.47111  1.0000
  H   H454      1.0  0.12223  0.91314  0.53121  1.0000
  H   H455      1.0  0.32648  0.92591  0.46989  1.0000
  H   H456      1.0  0.09280  0.88434  0.58797  1.0000
  H   H457      1.0  0.12443  0.78004  0.91009  1.0000
  H   H458      1.0  0.03377  0.77386  0.93098  1.0000
  H   H459      1.0  0.11982  0.95163  0.58515  1.0000
  H   H460      1.0  0.19413  0.90476  0.55062  1.0000
  H   H461      1.0  0.06138  0.77021  0.88921  1.0000
  H   H462      1.0  0.13699  0.89776  0.59787  1.0000
  H   H463      1.0  0.09805  0.88455  0.55477  1.0000
  H   H464      1.0  0.07703  0.46720  0.53290  1.0000
  H   H465      1.0  0.13783  0.87089  0.57698  1.0000
  C   C269      1.0  0.10135  0.64798  0.48007  1.0000
  C   C270      1.0  0.27520  0.75872  0.47001  1.0000
  C   C271      1.0  0.30352  0.72695  0.49323  1.0000
  H   H466      1.0  0.17316  0.94409  0.55974  1.0000
  H   H467      1.0  0.17782  0.87418  0.55171  1.0000
  N   N20       1.0  0.07844  0.74349  0.91642  1.0000
  C   C272      1.0  0.06073  0.69008  0.48067  1.0000
  H   H468      1.0  0.27550  0.85503  0.86155  1.0000
  C   C273      1.0  0.30912  0.90130  0.52778  1.0000
  H   H469      1.0  0.01857  0.70827  0.66510  1.0000
  C   C274      1.0  0.00079  0.67069  0.93344  1.0000
  H   H470      1.0  0.02142  0.71167  0.56628  1.0000
  H   H471      1.0  0.26649  0.76959  0.82084  1.0000
  H   H472      1.0  0.15012  0.91872  0.49476  1.0000
  C   C275      1.0  0.17892  0.89348  0.56122  1.0000
  C   C276      1.0  0.99797  0.66238  0.67328  1.0000
  H   H473      1.0  0.19444  0.90685  0.59829  1.0000
  H   H474      1.0  0.04455  0.67612  0.47605  1.0000
  H   H475      1.0  0.01937  0.66092  0.66890  1.0000
  C   C277      1.0  0.01266  0.70896  0.64487  1.0000
  H   H476      1.0  0.23642  0.85650  0.81639  1.0000
  C   C278      1.0  0.10372  0.89456  0.57259  1.0000
  H   H477      1.0  0.08311  0.78447  0.92540  1.0000
  C   C279      1.0  0.99671  0.68081  0.90886  1.0000
  S   S95       1.0  0.03166  0.63371  0.51348  1.0000
  H   H478      1.0  0.10717  0.77275  0.88099  1.0000
  H   H479      1.0  0.28184  0.70699  0.45292  1.0000
  C   C280      1.0  0.24203  0.95310  0.49297  1.0000
  H   H480      1.0  0.07674  0.74781  0.85522  1.0000
  H   H481      1.0  0.30611  0.73014  0.53426  1.0000
  H   H482      1.0  0.07870  0.71646  0.87087  1.0000
  C   C281      1.0  0.30445  0.74343  0.51768  1.0000
  C   C282      1.0  0.13370  0.89218  0.57773  1.0000
  H   H483      1.0  0.14458  0.69082  0.46939  1.0000
  C   C283      1.0  0.19073  0.88853  0.58782  1.0000
  H   H484      1.0  0.00639  0.76918  0.76355  1.0000
  C   C284      1.0  0.26564  0.86418  0.84502  1.0000
  C   C285      1.0  0.13204  0.95292  0.56770  1.0000
  H   H485      1.0  0.06311  0.67773  0.92859  1.0000
  C   C286      1.0  0.01278  0.69981  0.55155  1.0000
  N   N21       1.0  0.15229  0.90691  0.56039  1.0000
  Fe  Fe49      1.0  0.01972  0.61506  0.47634  1.0000
  H   H486      1.0  0.26425  0.78727  0.79139  1.0000
  H   H487      1.0  0.01363  0.73001  0.63977  1.0000
  H   H488      1.0  0.00377  0.64998  0.93620  1.0000
  C   C287      1.0  0.00989  0.49512  0.46674  1.0000
  C   C288      1.0  0.11981  0.76449  0.89617  1.0000
  C   C289      1.0  0.08991  0.66184  0.45651  1.0000
  H   H489      1.0  0.13892  0.75872  0.88742  1.0000
  H   H490      1.0  0.29552  0.78283  0.80656  1.0000
  H   H491      1.0  0.06217  0.73250  0.48901  1.0000
  H   H492      1.0  0.11080  0.62940  0.47411  1.0000
  H   H493      1.0  0.08548  0.64266  0.49364  1.0000
  C   C290      1.0  0.07675  0.76609  0.93469  1.0000
  C   C291      1.0  0.01258  0.46873  0.45990  1.0000
  C   C292      1.0  0.04913  0.77201  0.94584  1.0000
  C   C293      1.0  0.13170  0.70197  0.45616  1.0000
  H   H494      1.0  0.14196  0.72090  0.45319  1.0000
  H   H495      1.0  0.07005  0.49588  0.56470  1.0000
  H   H496      1.0  0.07563  0.49472  0.59802  1.0000
  H   H497      1.0  0.24676  0.92917  0.45986  1.0000
  H   H498      1.0  0.23274  0.75893  0.47625  1.0000
  H   H499      1.0  0.01329  0.49844  0.94386  1.0000
  C   C294      1.0  0.04756  0.71669  0.48614  1.0000
  H   H500      1.0  0.29724  0.89286  0.56651  1.0000
  H   H501      1.0  0.32257  0.86857  0.48720  1.0000
  H   H502      1.0  0.32239  0.71578  0.49268  1.0000
  H   H503      1.0  0.29698  0.91126  0.48023  1.0000
  C   C295      1.0  0.00512  0.77170  0.72253  1.0000
  H   H504      1.0  0.01303  0.75231  0.71989  1.0000
  H   H505      1.0  0.32276  0.95559  0.53291  1.0000
  C   C296      1.0  0.00141  0.78123  0.74739  1.0000
  H   H506      1.0  0.32202  0.75635  0.51827  1.0000
  H   H507      1.0  0.27179  0.76831  0.45145  1.0000
  Fe  Fe50      1.0  0.99789  0.78924  0.62970  1.0000
  C   C297      1.0  0.31874  0.91168  0.48385  1.0000
  S   S96       1.0  0.00428  0.77388  0.67027  1.0000
  C   C298      1.0  0.99635  0.48104  0.50885  1.0000
  C   C299      1.0  0.99900  0.78712  0.70115  1.0000
  H   H508      1.0  0.32457  0.77400  0.48007  1.0000
  C   C300      1.0  0.00167  0.50119  0.49132  1.0000
  H   H509      1.0  0.99937  0.52137  0.49682  1.0000
  N   N22       1.0  0.32411  0.91988  0.51083  1.0000
  H   H510      1.0  0.48235  0.21617  0.03472  1.0000
  Fe  Fe51      1.0  0.45465  0.14415  0.08082  1.0000
  S   S97       1.0  0.42180  0.12400  0.05818  1.0000
  S   S98       1.0  0.45093  0.17503  0.11058  1.0000
  Fe  Fe52      1.0  0.50788  0.14658  0.32347  1.0000
  S   S99       1.0  0.50731  0.11291  0.35119  1.0000
  S   S100      1.0  0.52351  0.14329  0.28285  1.0000
  Fe  Fe53      1.0  0.49828  0.18630  0.36550  1.0000
  S   S101      1.0  0.49736  0.15570  0.39569  1.0000
  S   S102      1.0  0.49276  0.22954  0.37273  1.0000
  Fe  Fe54      1.0  0.47190  0.13307  0.36875  1.0000
  S   S103      1.0  0.43809  0.11007  0.38706  1.0000
  S   S104      1.0  0.47066  0.16488  0.33920  1.0000
  C   C301      1.0  0.38691  0.12320  0.06221  1.0000
  C   C302      1.0  0.37387  0.13847  0.08023  1.0000
  H   H511      1.0  0.40245  0.15479  0.13720  1.0000
  N   N23       1.0  0.58795  0.05954  0.33860  1.0000
  H   H512      1.0  0.35314  0.18753  0.05395  1.0000
  C   C303      1.0  0.37184  0.10661  0.04667  1.0000
  H   H513      1.0  0.38510  0.15176  0.09191  1.0000
  C   C304      1.0  0.43664  0.17641  0.42315  1.0000
  C   C305      1.0  0.65426  0.10852  0.39183  1.0000
  H   H514      1.0  0.38170  0.09481  0.03257  1.0000
  C   C306      1.0  0.48500  0.14524  0.20334  1.0000
  C   C307      1.0  0.50790  0.14402  0.25258  1.0000
  C   C308      1.0  0.48054  0.14127  0.24958  1.0000
  C   C309      1.0  0.46922  0.14179  0.22510  1.0000
  H   H515      1.0  0.46813  0.13847  0.26605  1.0000
  H   H516      1.0  0.44807  0.13937  0.22300  1.0000
  C   C310      1.0  0.34925  0.12823  0.39923  1.0000
  C   C311      1.0  0.36437  0.14329  0.38221  1.0000
  C   C312      1.0  0.39151  0.13804  0.37822  1.0000
  C   C313      1.0  0.40392  0.11764  0.39128  1.0000
  C   C314      1.0  0.38880  0.10257  0.40827  1.0000
  C   C315      1.0  0.36168  0.10783  0.41228  1.0000
  H   H517      1.0  0.35493  0.15900  0.37188  1.0000
  H   H518      1.0  0.40271  0.14955  0.36481  1.0000
  H   H519      1.0  0.37767  0.17684  0.00156  1.0000
  C   C316      1.0  0.53292  0.21607  0.26813  1.0000
  H   H520      1.0  0.54189  0.22367  0.25035  1.0000
  C   C317      1.0  0.49566  0.24078  0.40433  1.0000
  C   C318      1.0  0.50312  0.22387  0.42388  1.0000
  H   H521      1.0  0.50775  0.20380  0.41979  1.0000
  H   H522      1.0  0.48569  0.19480  0.25237  1.0000
  H   H523      1.0  0.35037  0.09605  0.42541  1.0000
  C   C319      1.0  0.36093  0.17442  0.01505  1.0000
  C   C320      1.0  0.49220  0.27945  0.05104  1.0000
  C   C321      1.0  0.49508  0.29042  0.02667  1.0000
  H   H524      1.0  0.49361  0.29181  0.06757  1.0000
  H   H525      1.0  0.49882  0.31107  0.02447  1.0000
  S   S105      1.0  0.50050  0.28628  0.97444  1.0000
  H   H526      1.0  0.48803  0.23521  0.99190  1.0000
  Fe  Fe55      1.0  0.48249  0.15271  0.13191  1.0000
  S   S106      1.0  0.48469  0.12050  0.10263  1.0000
  S   S107      1.0  0.46948  0.14489  0.17301  1.0000
  Fe  Fe56      1.0  0.48473  0.19517  0.09100  1.0000
  S   S108      1.0  0.48615  0.16606  0.05968  1.0000
  S   S109      1.0  0.48645  0.23905  0.08503  1.0000
  Fe  Fe57      1.0  0.51628  0.14490  0.08356  1.0000
  S   S110      1.0  0.55003  0.13234  0.05703  1.0000
  S   S111      1.0  0.51627  0.17542  0.11442  1.0000
  Fe  Fe58      1.0  0.53263  0.13822  0.37614  1.0000
  S   S112      1.0  0.56505  0.12335  0.40273  1.0000
  S   S113      1.0  0.53535  0.17069  0.34776  1.0000
  C   C322      1.0  0.63907  0.11217  0.06178  1.0000
  C   C323      1.0  0.62398  0.11471  0.08406  1.0000
  C   C324      1.0  0.59689  0.12145  0.08310  1.0000
  C   C325      1.0  0.58439  0.12513  0.05972  1.0000
  C   C326      1.0  0.59949  0.12259  0.03741  1.0000
  C   C327      1.0  0.62672  0.11648  0.03841  1.0000
  H   H527      1.0  0.63329  0.11128  0.10224  1.0000
  H   H528      1.0  0.58559  0.12320  0.10041  1.0000
  H   H529      1.0  0.59000  0.12530  0.01921  1.0000
  H   H530      1.0  0.56614  0.06950  0.28900  1.0000
  C   C328      1.0  0.51231  0.14832  0.20638  1.0000
  C   C329      1.0  0.52366  0.14756  0.23083  1.0000
  H   H531      1.0  0.52473  0.15089  0.18987  1.0000
  H   H532      1.0  0.54485  0.14964  0.23288  1.0000
  H   H533      1.0  0.44583  0.09511  0.16981  1.0000
  C   C330      1.0  0.64156  0.10208  0.41451  1.0000
  C   C331      1.0  0.61430  0.10695  0.41746  1.0000
  C   C332      1.0  0.59941  0.11845  0.39789  1.0000
  C   C333      1.0  0.61212  0.12526  0.37527  1.0000
  C   C334      1.0  0.63939  0.12009  0.37219  1.0000
  C   C335      1.0  0.61913  0.04604  0.04103  1.0000
  H   H534      1.0  0.45565  0.18694  0.42018  1.0000
  H   H535      1.0  0.60095  0.13442  0.36018  1.0000
  H   H536      1.0  0.64182  0.99786  0.98042  1.0000
  H   H537      1.0  0.58677  0.38993  0.99407  1.0000
  Fe  Fe59      1.0  0.49805  0.32804  0.95999  1.0000
  C   C336      1.0  0.49025  0.26701  0.41005  1.0000
  H   H538      1.0  0.61285  0.00765  0.32000  1.0000
  H   H539      1.0  0.48451  0.28027  0.39504  1.0000
  H   H540      1.0  0.40529  0.40004  0.98090  1.0000
  C   C337      1.0  0.43465  0.41415  0.00642  1.0000
  C   C338      1.0  0.49388  0.27445  0.00526  1.0000
  C   C339      1.0  0.48910  0.24766  0.00838  1.0000
  C   C340      1.0  0.48604  0.23677  0.03267  1.0000
  C   C341      1.0  0.48800  0.25253  0.05414  1.0000
  H   H541      1.0  0.50339  0.24199  0.21982  1.0000
  C   C342      1.0  0.50520  0.25612  0.27045  1.0000
  N   N24       1.0  0.41062  0.08746  0.14764  1.0000
  C   C343      1.0  0.42496  0.08879  0.17273  1.0000
  C   C344      1.0  0.41329  0.11385  0.13517  1.0000
  C   C345      1.0  0.42394  0.06661  0.13179  1.0000
  C   C346      1.0  0.38212  0.08055  0.15278  1.0000
  H   H542      1.0  0.36686  0.21272  0.03338  1.0000
  C   C347      1.0  0.40016  0.13700  0.14902  1.0000
  H   H543      1.0  0.64909  0.12521  0.35460  1.0000
  C   C348      1.0  0.36333  0.08112  0.12984  1.0000
  H   H544      1.0  0.34284  0.07713  0.13639  1.0000
  H   H545      1.0  0.41594  0.10356  0.18547  1.0000
  H   H546      1.0  0.40483  0.11391  0.11584  1.0000
  H   H547      1.0  0.43457  0.11876  0.13259  1.0000
  H   H548      1.0  0.44539  0.06503  0.13661  1.0000
  H   H549      1.0  0.41547  0.04704  0.13600  1.0000
  H   H550      1.0  0.38052  0.06056  0.16086  1.0000
  H   H551      1.0  0.37367  0.09373  0.16743  1.0000
  C   C349      1.0  0.58086  0.40726  0.98271  1.0000
  C   C350      1.0  0.56476  0.07018  0.35343  1.0000
  C   C351      1.0  0.64188  0.04806  0.98861  1.0000
  C   C352      1.0  0.57939  0.03410  0.32694  1.0000
  C   C353      1.0  0.62317  0.19983  0.40457  1.0000
  H   H552      1.0  0.37861  0.13420  0.15170  1.0000
  H   H553      1.0  0.54708  0.21502  0.30795  1.0000
  H   H554      1.0  0.65329  0.05047  0.36093  1.0000
  C   C354      1.0  0.34411  0.10499  0.04933  1.0000
  C   C355      1.0  0.35252  0.21736  0.97489  1.0000
  H   H555      1.0  0.56016  0.03604  0.31678  1.0000
  H   H556      1.0  0.36831  0.06577  0.11594  1.0000
  H   H557      1.0  0.61104  0.07091  0.37141  1.0000
  H   H558      1.0  0.51594  0.20871  0.21881  1.0000
  S   S114      1.0  0.53193  0.35658  0.96021  1.0000
  C   C356      1.0  0.61077  0.05538  0.35675  1.0000
  H   H559      1.0  0.46809  0.22465  0.25108  1.0000
  C   C357      1.0  0.49384  0.21618  0.29609  1.0000
  C   C358      1.0  0.63541  0.17748  0.42031  1.0000
  H   H560      1.0  0.57192  0.21148  0.28453  1.0000
  H   H561      1.0  0.64988  0.26296  0.95232  1.0000
  S   S115      1.0  0.50553  0.42214  0.99069  1.0000
  H   H562      1.0  0.60912  0.06097  0.02915  1.0000
  H   H563      1.0  0.48871  0.44884  0.44377  1.0000
  H   H564      1.0  0.56822  0.09091  0.35867  1.0000
  N   N25       1.0  0.33481  0.17884  0.00185  1.0000
  H   H565      1.0  0.58098  0.10088  0.28569  1.0000
  H   H566      1.0  0.55906  0.40655  0.98123  1.0000
  H   H567      1.0  0.60430  0.03930  0.05511  1.0000
  H   H568      1.0  0.55600  0.09658  0.30895  1.0000
  C   C359      1.0  0.63900  0.05539  0.34560  1.0000
  H   H569      1.0  0.60114  0.09820  0.32831  1.0000
  H   H570      1.0  0.48290  0.21559  0.20950  1.0000
  C   C360      1.0  0.39166  0.18170  0.44113  1.0000
  H   H571      1.0  0.40390  0.07459  0.09478  1.0000
  H   H572      1.0  0.45987  0.21964  0.32131  1.0000
  H   H573      1.0  0.58800  0.00816  0.29548  1.0000
  H   H574      1.0  0.43062  0.05183  0.09358  1.0000
  H   H575      1.0  0.38704  0.18689  0.04521  1.0000
  H   H576      1.0  0.43874  0.06631  0.20509  1.0000
  H   H577      1.0  0.39812  0.08664  0.41839  1.0000
  H   H578      1.0  0.39379  0.19041  0.39278  1.0000
  C   C361      1.0  0.59506  0.07974  0.31890  1.0000
  N   N26       1.0  0.41449  0.19550  0.42843  1.0000
  C   C362      1.0  0.50292  0.45643  0.98567  1.0000
  C   C363      1.0  0.42594  0.06321  0.18822  1.0000
  H   H579      1.0  0.61131  0.01522  0.01430  1.0000
  H   H580      1.0  0.55272  0.03485  0.37490  1.0000
  H   H581      1.0  0.63776  0.16043  0.40768  1.0000
  H   H582      1.0  0.43754  0.08567  0.09685  1.0000
  H   H583      1.0  0.52309  0.28873  0.29058  1.0000
  C   C364      1.0  0.42362  0.07008  0.10270  1.0000
  C   C365      1.0  0.51156  0.27093  0.29527  1.0000
  H   H584      1.0  0.61611  0.40645  0.96121  1.0000
  C   C366      1.0  0.49858  0.22119  0.22324  1.0000
  H   H585      1.0  0.64182  0.04092  0.33039  1.0000
  C   C367      1.0  0.48839  0.21624  0.25039  1.0000
  H   H586      1.0  0.43467  0.04680  0.17743  1.0000
  H   H587      1.0  0.36245  0.15403  0.02197  1.0000
  H   H588      1.0  0.43560  0.23445  0.39315  1.0000
  C   C368      1.0  0.55329  0.22204  0.28901  1.0000
  H   H589      1.0  0.48818  0.29647  0.43938  1.0000
  H   H590      1.0  0.52330  0.26004  0.30944  1.0000
  C   C369      1.0  0.59916  0.02043  0.30913  1.0000
  C   C370      1.0  0.62866  0.02256  0.02520  1.0000
  C   C371      1.0  0.34622  0.13641  0.08328  1.0000
  H   H591      1.0  0.43290  0.16566  0.40519  1.0000
  N   N27       1.0  0.50532  0.22668  0.27172  1.0000
  H   H592      1.0  0.61253  0.07398  0.30755  1.0000
  C   C372      1.0  0.33139  0.20676  0.99332  1.0000
  C   C373      1.0  0.33120  0.11958  0.06795  1.0000
  H   H593      1.0  0.40986  0.14139  0.16734  1.0000
  H   H594      1.0  0.44171  0.22751  0.43393  1.0000
  H   H595      1.0  0.61992  0.17156  0.43415  1.0000
  C   C374      1.0  0.42558  0.21709  0.38520  1.0000
  H   H596      1.0  0.49308  0.27806  0.30432  1.0000
  H   H597      1.0  0.62238  0.04229  0.98048  1.0000
  N   N28       1.0  0.57065  0.21556  0.03968  1.0000
  C   C375      1.0  0.56762  0.19407  0.02035  1.0000
  C   C376      1.0  0.59970  0.21714  0.04614  1.0000
  C   C377      1.0  0.56205  0.24068  0.02720  1.0000
  C   C378      1.0  0.55351  0.20932  0.06234  1.0000
  C   C379      1.0  0.53969  0.19040  0.00904  1.0000
  C   C380      1.0  0.61200  0.19194  0.05715  1.0000
  C   C381      1.0  0.56344  0.26556  0.04335  1.0000
  C   C382      1.0  0.56124  0.22203  0.08791  1.0000
  H   H598      1.0  0.58145  0.19703  0.00416  1.0000
  H   H599      1.0  0.57300  0.17487  0.02871  1.0000
  H   H600      1.0  0.60404  0.23294  0.05972  1.0000
  H   H601      1.0  0.61139  0.22241  0.02898  1.0000
  H   H602      1.0  0.57371  0.24424  0.00961  1.0000
  H   H603      1.0  0.54110  0.23954  0.02110  1.0000
  H   H604      1.0  0.53252  0.21449  0.05840  1.0000
  H   H605      1.0  0.55347  0.18791  0.06590  1.0000
  H   H606      1.0  0.53471  0.20599  0.99521  1.0000
  H   H607      1.0  0.53906  0.17164  0.99858  1.0000
  H   H608      1.0  0.52424  0.18932  0.02384  1.0000
  H   H609      1.0  0.61575  0.17740  0.04202  1.0000
  C   C383      1.0  0.55755  0.05562  0.37816  1.0000
  H   H610      1.0  0.59957  0.18289  0.07205  1.0000
  H   H611      1.0  0.58360  0.26969  0.05046  1.0000
  H   H612      1.0  0.54893  0.26491  0.05911  1.0000
  H   H613      1.0  0.55753  0.28244  0.03133  1.0000
  H   H614      1.0  0.54287  0.22745  0.09821  1.0000
  H   H615      1.0  0.57308  0.24002  0.08662  1.0000
  H   H616      1.0  0.57146  0.20766  0.10031  1.0000
  H   H617      1.0  0.48533  0.26324  0.26437  1.0000
  H   H618      1.0  0.64472  0.07504  0.33866  1.0000
  H   H619      1.0  0.56855  0.46168  0.44102  1.0000
  H   H620      1.0  0.50507  0.22244  0.31301  1.0000
  H   H621      1.0  0.51920  0.26311  0.25561  1.0000
  N   N29       1.0  0.66108  0.18355  0.43356  1.0000
  C   C384      1.0  0.57303  0.08674  0.29975  1.0000
  H   H622      1.0  0.57492  0.01956  0.34201  1.0000
  C   C385      1.0  0.46463  0.22337  0.30106  1.0000
  H   H623      1.0  0.45115  0.21102  0.28961  1.0000
  H   H624      1.0  0.55837  0.24304  0.28945  1.0000
  H   H625      1.0  0.57329  0.05732  0.39273  1.0000
  C   C386      1.0  0.36693  0.19844  0.44647  1.0000
  H   H626      1.0  0.45176  0.40581  0.99622  1.0000
  C   C387      1.0  0.36687  0.19167  0.03813  1.0000
  H   H627      1.0  0.53232  0.19452  0.26595  1.0000
  H   H628      1.0  0.46038  0.24421  0.29732  1.0000
  H   H629      1.0  0.42864  0.39945  0.02080  1.0000
  H   H630      1.0  0.49535  0.19448  0.29642  1.0000
  H   H631      1.0  0.63633  0.20645  0.38906  1.0000
  H   H632      1.0  0.40982  0.23449  0.44442  1.0000
  C   C388      1.0  0.40448  0.20590  0.40337  1.0000
  H   H633      1.0  0.60465  0.10157  0.43501  1.0000
  H   H634      1.0  0.63295  0.00670  0.03880  1.0000
  C   C389      1.0  0.41112  0.41945  0.98846  1.0000
  H   H635      1.0  0.61067  0.03392  0.29712  1.0000
  H   H636      1.0  0.63800  0.11450  0.02111  1.0000
  H   H637      1.0  0.45599  0.42612  0.95867  1.0000
  H   H638      1.0  0.53964  0.06490  0.38643  1.0000
  H   H639      1.0  0.63546  0.05523  0.05180  1.0000
  H   H640      1.0  0.37279  0.21593  0.98281  1.0000
  C   C390      1.0  0.33410  0.13211  0.98318  1.0000
  C   C391      1.0  0.44174  0.15487  0.44309  1.0000
  H   H641      1.0  0.60833  0.03678  0.36746  1.0000
  H   H642      1.0  0.44052  0.20233  0.37965  1.0000
  H   H643      1.0  0.40612  0.05769  0.19546  1.0000
  H   H644      1.0  0.58726  0.42459  0.99361  1.0000
  S   S116      1.0  0.46700  0.35879  0.96701  1.0000
  H   H645      1.0  0.66068  0.03720  0.95232  1.0000
  H   H646      1.0  0.54644  0.07025  0.34171  1.0000
  H   H647      1.0  0.63153  0.19647  0.06576  1.0000
  H   H648      1.0  0.64970  0.97217  0.02078  1.0000
  H   H649      1.0  0.45989  0.14393  0.43783  1.0000
  H   H650      1.0  0.63852  0.06724  0.99795  1.0000
  H   H651      1.0  0.35205  0.16561  0.96636  1.0000
  H   H652      1.0  0.65267  0.09301  0.42969  1.0000
  H   H653      1.0  0.61745  0.21662  0.41657  1.0000
  C   C392      1.0  0.49232  0.27624  0.43514  1.0000
  H   H654      1.0  0.38984  0.22184  0.40626  1.0000
  H   H655      1.0  0.33638  0.14790  0.09764  1.0000
  H   H656      1.0  0.60473  0.19256  0.39550  1.0000
  H   H657      1.0  0.36285  0.10042  0.12045  1.0000
  C   C393      1.0  0.42451  0.21833  0.44362  1.0000
  H   H658      1.0  0.35266  0.12516  0.99215  1.0000
  H   H659      1.0  0.44092  0.43179  0.01695  1.0000
  H   H660      1.0  0.44749  0.46109  0.98463  1.0000
  C   C394      1.0  0.38973  0.44361  0.95453  1.0000
  Fe  Fe60      1.0  0.50044  0.38787  0.96320  1.0000
  H   H661      1.0  0.37512  0.45096  0.96864  1.0000
  H   H662      1.0  0.33115  0.22037  0.00963  1.0000
  N   N30       1.0  0.41606  0.43865  0.96717  1.0000
  H   H663      1.0  0.42546  0.14034  0.44321  1.0000
  H   H664      1.0  0.39432  0.42604  0.00056  1.0000
  H   H665      1.0  0.33284  0.09188  0.03748  1.0000
  N   N31       1.0  0.65151  0.02797  0.00755  1.0000
  H   H666      1.0  0.41573  0.22355  0.36744  1.0000
  H   H667      1.0  0.38515  0.16485  0.42934  1.0000
  H   H668      1.0  0.34861  0.23841  0.97141  1.0000
  H   H669      1.0  0.33239  0.12204  0.96465  1.0000
  H   H670      1.0  0.37153  0.40428  0.95456  1.0000
  H   H671      1.0  0.35676  0.20433  0.42871  1.0000
  C   C395      1.0  0.33443  0.16190  0.97847  1.0000
  H   H672      1.0  0.65286  0.07096  0.95543  1.0000
  C   C396      1.0  0.65852  0.00359  0.99304  1.0000
  C   C397      1.0  0.66032  0.05365  0.96594  1.0000
  C   C398      1.0  0.50500  0.23299  0.44888  1.0000
  H   H673      1.0  0.65035  0.22281  0.44451  1.0000
  H   H674      1.0  0.35157  0.20773  0.95612  1.0000
  H   H675      1.0  0.56085  0.45471  0.97506  1.0000
  C   C399      1.0  0.59462  0.40590  0.95677  1.0000
  H   H676      1.0  0.61376  0.45283  0.95741  1.0000
  S   S117      1.0  0.49569  0.39215  0.92120  1.0000
  Fe  Fe61      1.0  0.46379  0.36135  0.92453  1.0000
  S   S118      1.0  0.42388  0.36976  0.90511  1.0000
  Fe  Fe62      1.0  0.46662  0.34000  0.54294  1.0000
  S   S119      1.0  0.46618  0.33977  0.50034  1.0000
  S   S120      1.0  0.43175  0.33952  0.57079  1.0000
  Fe  Fe63      1.0  0.49903  0.31017  0.50266  1.0000
  S   S121      1.0  0.50248  0.26917  0.48654  1.0000
  Fe  Fe64      1.0  0.49896  0.36982  0.50356  1.0000
  S   S122      1.0  0.49662  0.40471  0.47642  1.0000
  S   S123      1.0  0.49716  0.30838  0.54510  1.0000
  S   S124      1.0  0.49769  0.37155  0.54615  1.0000
  C   C400      1.0  0.49984  0.43876  0.48203  1.0000
  H   H677      1.0  0.59063  0.38620  0.94885  1.0000
  H   H678      1.0  0.63578  0.33820  0.67642  1.0000
  H   H679      1.0  0.34644  0.21283  0.52895  1.0000
  C   C401      1.0  0.58405  0.44988  0.47687  1.0000
  H   H680      1.0  0.63858  0.39946  0.92522  1.0000
  C   C402      1.0  0.35474  0.32267  0.58769  1.0000
  C   C403      1.0  0.38208  0.32818  0.58932  1.0000
  C   C404      1.0  0.39755  0.33176  0.56739  1.0000
  C   C405      1.0  0.38523  0.33008  0.54371  1.0000
  C   C406      1.0  0.35779  0.32514  0.54210  1.0000
  H   H681      1.0  0.59954  0.25154  0.92580  1.0000
  H   H682      1.0  0.39134  0.32957  0.60776  1.0000
  H   H683      1.0  0.39676  0.33288  0.52669  1.0000
  H   H684      1.0  0.61535  0.28940  0.53895  1.0000
  C   C407      1.0  0.39539  0.34944  0.90211  1.0000
  C   C408      1.0  0.39561  0.32313  0.90920  1.0000
  C   C409      1.0  0.37280  0.30762  0.90583  1.0000
  C   C410      1.0  0.34935  0.31815  0.89557  1.0000
  C   C411      1.0  0.34899  0.34457  0.88880  1.0000
  C   C412      1.0  0.37192  0.36002  0.89189  1.0000
  H   H685      1.0  0.41345  0.31464  0.91703  1.0000
  H   H686      1.0  0.37339  0.28724  0.91113  1.0000
  H   H687      1.0  0.63751  0.28410  0.89228  1.0000
  H   H688      1.0  0.37148  0.38032  0.88632  1.0000
  H   H689      1.0  0.35014  0.26514  0.79894  1.0000
  H   H690      1.0  0.36332  0.29030  0.85025  1.0000
  H   H691      1.0  0.33703  0.96943  0.48740  1.0000
  S   S125      1.0  0.49299  0.32905  0.91750  1.0000
  Fe  Fe65      1.0  0.52534  0.35919  0.91828  1.0000
  S   S126      1.0  0.55906  0.36018  0.88917  1.0000
  Fe  Fe66      1.0  0.52842  0.33943  0.54494  1.0000
  S   S127      1.0  0.53192  0.33978  0.50246  1.0000
  S   S128      1.0  0.56108  0.33161  0.57421  1.0000
  H   H692      1.0  0.60556  0.44872  0.47297  1.0000
  H   H693      1.0  0.57952  0.28344  0.45644  1.0000
  C   C413      1.0  0.63885  0.31446  0.58664  1.0000
  C   C414      1.0  0.61105  0.31626  0.58869  1.0000
  C   C415      1.0  0.59600  0.32985  0.57046  1.0000
  C   C416      1.0  0.60909  0.34164  0.55009  1.0000
  C   C417      1.0  0.63694  0.34026  0.54834  1.0000
  H   H694      1.0  0.39762  0.44629  0.55059  1.0000
  H   H695      1.0  0.60105  0.30693  0.60438  1.0000
  H   H696      1.0  0.59784  0.35225  0.53599  1.0000
  H   H697      1.0  0.35881  0.42621  0.93136  1.0000
  C   C418      1.0  0.59263  0.34994  0.89268  1.0000
  C   C419      1.0  0.60936  0.34990  0.87135  1.0000
  C   C420      1.0  0.63645  0.34335  0.87350  1.0000
  H   H698      1.0  0.58052  0.45343  0.49734  1.0000
  C   C421      1.0  0.63059  0.33750  0.91854  1.0000
  C   C422      1.0  0.60336  0.34326  0.91627  1.0000
  H   H699      1.0  0.60133  0.35509  0.85300  1.0000
  C   C423      1.0  0.36687  0.27786  0.83351  1.0000
  H   H700      1.0  0.59075  0.34281  0.93279  1.0000
  H   H701      1.0  0.44484  0.16256  0.46237  1.0000
  H   H702      1.0  0.37492  0.35432  0.80460  1.0000
  H   H703      1.0  0.56991  0.29565  0.53188  1.0000
  H   H704      1.0  0.61085  0.26096  0.48250  1.0000
  H   H705      1.0  0.66016  0.27975  0.70668  1.0000
  C   C424      1.0  0.65452  0.14646  0.46628  1.0000
  H   H706      1.0  0.36908  0.25765  0.84086  1.0000
  H   H707      1.0  0.45724  0.45379  0.92405  1.0000
  H   H708      1.0  0.65695  0.32964  0.73017  1.0000
  C   C425      1.0  0.64196  0.25983  0.52587  1.0000
  H   H709      1.0  0.39992  0.39248  0.56333  1.0000
  C   C426      1.0  0.60798  0.26989  0.91820  1.0000
  H   H710      1.0  0.44502  0.42482  0.90916  1.0000
  H   H711      1.0  0.39903  0.33043  0.79765  1.0000
  C   C427      1.0  0.38563  0.40588  0.55427  1.0000
  H   H712      1.0  0.33745  0.28728  0.75290  1.0000
  H   H713      1.0  0.37357  0.41424  0.56988  1.0000
  H   H714      1.0  0.51076  0.21968  0.46385  1.0000
  C   C428      1.0  0.37899  0.33307  0.80592  1.0000
  C   C429      1.0  0.64830  0.22470  0.92022  1.0000
  C   C430      1.0  0.63200  0.26492  0.90075  1.0000
  H   H715      1.0  0.61425  0.28321  0.67201  1.0000
  H   H716      1.0  0.42289  0.45017  0.91580  1.0000
  H   H717      1.0  0.63480  0.14041  0.45933  1.0000
  C   C431      1.0  0.62123  0.30126  0.66247  1.0000
  C   C432      1.0  0.49968  0.25918  0.45464  1.0000
  H   H718      1.0  0.54591  0.23262  0.50700  1.0000
  N   N32       1.0  0.59105  0.26149  0.51896  1.0000
  H   H719      1.0  0.34070  0.32501  0.83997  1.0000
  H   H720      1.0  0.57410  0.26980  0.57183  1.0000
  H   H721      1.0  0.44490  0.45144  0.55253  1.0000
  H   H722      1.0  0.42891  0.41994  0.58334  1.0000
  H   H723      1.0  0.38956  0.39236  0.50085  1.0000
  H   H724      1.0  0.61240  0.25902  0.55478  1.0000
  H   H725      1.0  0.38593  0.28297  0.82437  1.0000
  H   H726      1.0  0.60547  0.29277  0.49497  1.0000
  H   H727      1.0  0.56067  0.25917  0.47232  1.0000
  C   C433      1.0  0.55935  0.26422  0.55728  1.0000
  H   H728      1.0  0.63863  0.19838  0.46546  1.0000
  H   H729      1.0  0.33306  0.26131  0.57300  1.0000
  H   H730      1.0  0.38061  0.32739  0.82606  1.0000
  H   H731      1.0  0.65009  0.30359  0.60047  1.0000
  H   H732      1.0  0.56752  0.21689  0.48454  1.0000
  H   H733      1.0  0.51158  0.43552  0.52109  1.0000
  C   C434      1.0  0.34239  0.32119  0.56402  1.0000
  C   C435      1.0  0.56702  0.27415  0.53066  1.0000
  H   H734      1.0  0.45529  0.20600  0.47052  1.0000
  C   C436      1.0  0.65588  0.20392  0.45349  1.0000
  H   H735      1.0  0.55918  0.29279  0.48226  1.0000
  H   H736      1.0  0.62438  0.25302  0.88476  1.0000
  C   C437      1.0  0.35876  0.31743  0.78992  1.0000
  C   C438      1.0  0.50707  0.44875  0.50568  1.0000
  H   H737      1.0  0.55388  0.40368  0.92537  1.0000
  N   N33       1.0  0.42502  0.42410  0.52758  1.0000
  C   C439      1.0  0.42862  0.44181  0.50487  1.0000
  C   C440      1.0  0.42920  0.39657  0.51841  1.0000
  C   C441      1.0  0.44631  0.43073  0.54655  1.0000
  H   H738      1.0  0.54913  0.27203  0.51878  1.0000
  C   C442      1.0  0.35380  0.26129  0.51695  1.0000
  C   C443      1.0  0.39776  0.42850  0.53854  1.0000
  H   H739      1.0  0.64692  0.34985  0.53276  1.0000
  H   H740      1.0  0.44730  0.43704  0.49469  1.0000
  H   H741      1.0  0.41653  0.39625  0.47851  1.0000
  H   H742      1.0  0.36505  0.24586  0.50695  1.0000
  H   H743      1.0  0.44984  0.39418  0.51134  1.0000
  H   H744      1.0  0.46622  0.42838  0.53778  1.0000
  H   H745      1.0  0.39744  0.17285  0.45948  1.0000
  C   C444      1.0  0.58883  0.23220  0.51772  1.0000
  C   C445      1.0  0.63944  0.31710  0.68010  1.0000
  H   H746      1.0  0.65244  0.25967  0.66180  1.0000
  C   C446      1.0  0.64732  0.33738  0.89719  1.0000
  C   C447      1.0  0.44038  0.44001  0.92347  1.0000
  H   H747      1.0  0.39045  0.41177  0.92633  1.0000
  H   H748      1.0  0.34322  0.31980  0.60473  1.0000
  H   H749      1.0  0.63134  0.31423  0.69950  1.0000
  H   H750      1.0  0.65469  0.34410  0.63745  1.0000
  H   H751      1.0  0.52661  0.44192  0.90906  1.0000
  C   C448      1.0  0.56396  0.22066  0.50497  1.0000
  C   C449      1.0  0.41055  0.38765  0.49696  1.0000
  H   H752      1.0  0.57544  0.43039  0.47280  1.0000
  H   H753      1.0  0.44781  0.39389  0.56858  1.0000
  C   C450      1.0  0.65202  0.32683  0.56666  1.0000
  H   H754      1.0  0.55588  0.24290  0.55764  1.0000
  H   H755      1.0  0.34838  0.32442  0.52371  1.0000
  C   C451      1.0  0.49441  0.45632  0.46214  1.0000
  H   H756      1.0  0.35092  0.33143  0.77555  1.0000
  C   C452      1.0  0.55839  0.42409  0.93106  1.0000
  H   H757      1.0  0.59212  0.27953  0.90693  1.0000
  H   H758      1.0  0.64900  0.34341  0.85689  1.0000
  H   H759      1.0  0.64717  0.26966  0.50782  1.0000
  H   H760      1.0  0.65240  0.15937  0.48295  1.0000
  H   H761      1.0  0.39082  0.45933  0.94017  1.0000
  C   C453      1.0  0.59631  0.27306  0.49308  1.0000
  H   H762      1.0  0.65998  0.28907  0.93250  1.0000
  H   H763      1.0  0.55517  0.43463  0.89072  1.0000
  H   H764      1.0  0.49860  0.45455  0.94526  1.0000
  H   H765      1.0  0.54052  0.27366  0.56305  1.0000
  H   H766      1.0  0.59567  0.40267  0.90463  1.0000
  H   H767      1.0  0.63872  0.33300  0.93700  1.0000
  H   H768      1.0  0.37003  0.30250  0.77904  1.0000
  H   H769      1.0  0.63036  0.29621  0.64414  1.0000
  H   H770      1.0  0.63808  0.21449  0.90439  1.0000
  C   C454      1.0  0.60274  0.42099  0.91365  1.0000
  H   H771      1.0  0.64174  0.43475  0.92739  1.0000
  H   H772      1.0  0.43324  0.23092  0.48200  1.0000
  C   C455      1.0  0.61440  0.26804  0.53569  1.0000
  H   H773      1.0  0.41254  0.43879  0.49077  1.0000
  H   H774      1.0  0.46410  0.42077  0.58271  1.0000
  H   H775      1.0  0.60594  0.22386  0.50725  1.0000
  H   H776      1.0  0.64384  0.23839  0.52395  1.0000
  C   C456      1.0  0.63303  0.41843  0.91649  1.0000
  C   C457      1.0  0.43436  0.21268  0.47071  1.0000
  C   C458      1.0  0.34387  0.27847  0.81438  1.0000
  H   H777      1.0  0.54537  0.42762  0.94754  1.0000
  H   H778      1.0  0.55896  0.20181  0.51423  1.0000
  H   H779      1.0  0.59066  0.22323  0.53690  1.0000
  H   H780      1.0  0.60372  0.31332  0.65734  1.0000
  H   H781      1.0  0.61270  0.28339  0.93395  1.0000
  C   C459      1.0  0.57236  0.27704  0.47534  1.0000
  H   H782      1.0  0.64222  0.41857  0.89736  1.0000
  H   H783      1.0  0.41204  0.36616  0.49485  1.0000
  C   C460      1.0  0.54857  0.44200  0.90945  1.0000
  H   H784      1.0  0.65710  0.26604  0.53992  1.0000
  N   N34       1.0  0.33607  0.30482  0.80396  1.0000
  H   H785      1.0  0.42202  0.19854  0.48116  1.0000
  N   N35       1.0  0.58733  0.42659  0.93761  1.0000
  H   H786      1.0  0.35917  0.26157  0.53725  1.0000
  H   H787      1.0  0.37150  0.39439  0.54267  1.0000
  H   H788      1.0  0.37159  0.21576  0.45815  1.0000
  H   H789      1.0  0.42750  0.38204  0.53383  1.0000
  H   H790      1.0  0.38334  0.43239  0.52300  1.0000
  C   C461      1.0  0.44638  0.41517  0.57152  1.0000
  H   H791      1.0  0.59945  0.43656  0.89924  1.0000
  C   C462      1.0  0.59460  0.45346  0.94698  1.0000
  H   H792      1.0  0.36061  0.28011  0.50882  1.0000
  H   H793      1.0  0.35246  0.18643  0.45723  1.0000
  N   N36       1.0  0.65583  0.25217  0.91295  1.0000
  H   H794      1.0  0.34311  0.22828  0.56597  1.0000
  H   H795      1.0  0.65676  0.24510  0.85781  1.0000
  H   H796      1.0  0.33100  0.20848  0.49938  1.0000
  H   H797      1.0  0.33114  0.35305  0.88103  1.0000
  H   H798      1.0  0.63313  0.22492  0.93547  1.0000
  H   H799      1.0  0.43181  0.40583  0.94595  1.0000
  C   C463      1.0  0.37724  0.41991  0.94109  1.0000
  H   H800      1.0  0.32994  0.16969  0.52849  1.0000
  H   H801      1.0  0.55501  0.46248  0.91188  1.0000
  C   C464      1.0  0.43618  0.42677  0.94951  1.0000
  H   H802      1.0  0.39347  0.73618  0.95660  1.0000
  S   S129      1.0  0.50709  0.55798  0.42407  1.0000
  H   H803      1.0  0.34425  0.70108  0.27637  1.0000
  H   H804      1.0  0.45074  0.71676  0.95912  1.0000
  S   S130      1.0  0.52080  0.61990  0.42194  1.0000
  H   H805      1.0  0.39221  0.78592  0.96789  1.0000
  S   S131      1.0  0.45087  0.60764  0.39748  1.0000
  Fe  Fe67      1.0  0.49626  0.58144  0.00033  1.0000
  S   S132      1.0  0.48934  0.58360  0.04266  1.0000
  S   S133      1.0  0.49271  0.54546  0.97450  1.0000
  Fe  Fe68      1.0  0.50623  0.64026  0.99547  1.0000
  S   S134      1.0  0.49990  0.64554  0.03706  1.0000
  S   S135      1.0  0.51747  0.67949  0.97826  1.0000
  Fe  Fe69      1.0  0.46454  0.61932  0.03368  1.0000
  S   S136      1.0  0.42922  0.63853  0.05402  1.0000
  S   S137      1.0  0.46944  0.61600  0.99140  1.0000
  C   C465      1.0  0.34253  0.62073  0.07639  1.0000
  C   C466      1.0  0.35434  0.64457  0.08238  1.0000
  C   C467      1.0  0.38083  0.64953  0.07539  1.0000
  C   C468      1.0  0.39593  0.63080  0.06231  1.0000
  C   C469      1.0  0.38421  0.60683  0.05650  1.0000
  C   C470      1.0  0.35775  0.60181  0.06364  1.0000
  C   C471      1.0  0.48266  0.68475  0.43418  1.0000
  H   H806      1.0  0.38969  0.66808  0.08017  1.0000
  H   H807      1.0  0.39550  0.59217  0.04651  1.0000
  C   C472      1.0  0.64703  0.72820  0.03301  1.0000
  C   C473      1.0  0.41666  0.61466  0.40203  1.0000
  C   C474      1.0  0.40426  0.61199  0.42558  1.0000
  C   C475      1.0  0.37721  0.61840  0.42832  1.0000
  C   C476      1.0  0.36215  0.62735  0.40756  1.0000
  C   C477      1.0  0.37456  0.63003  0.38401  1.0000
  C   C478      1.0  0.40163  0.62373  0.38131  1.0000
  H   H808      1.0  0.60010  0.61968  0.30755  1.0000
  H   H809      1.0  0.62700  0.75992  0.01345  1.0000
  H   H810      1.0  0.36331  0.63687  0.36787  1.0000
  H   H811      1.0  0.41099  0.62583  0.36299  1.0000
  C   C479      1.0  0.49748  0.51135  0.97952  1.0000
  C   C480      1.0  0.50154  0.50058  0.00361  1.0000
  H   H812      1.0  0.50241  0.51326  0.01994  1.0000
  Fe  Fe70      1.0  0.54408  0.58284  0.42480  1.0000
  S   S138      1.0  0.58076  0.57163  0.40162  1.0000
  Fe  Fe71      1.0  0.52522  0.61026  0.04267  1.0000
  S   S139      1.0  0.55489  0.61483  0.07529  1.0000
  S   S140      1.0  0.53360  0.60600  0.00108  1.0000
  H   H813      1.0  0.43614  0.50427  0.97259  1.0000
  C   C481      1.0  0.63276  0.62806  0.09197  1.0000
  C   C482      1.0  0.60488  0.62624  0.09331  1.0000
  C   C483      1.0  0.58986  0.61808  0.07227  1.0000
  C   C484      1.0  0.60308  0.61203  0.04976  1.0000
  C   C485      1.0  0.63094  0.61341  0.04856  1.0000
  C   C486      1.0  0.42521  0.48853  0.96259  1.0000
  H   H814      1.0  0.59492  0.63085  0.11087  1.0000
  H   H815      1.0  0.59189  0.60560  0.03345  1.0000
  C   C487      1.0  0.65653  0.62071  0.28714  1.0000
  C   C488      1.0  0.61108  0.58927  0.40201  1.0000
  C   C489      1.0  0.61353  0.61303  0.41471  1.0000
  C   C490      1.0  0.63774  0.62668  0.41431  1.0000
  H   H816      1.0  0.62159  0.68611  0.09839  1.0000
  C   C491      1.0  0.64023  0.71908  0.07770  1.0000
  C   C492      1.0  0.63326  0.57923  0.38911  1.0000
  H   H817      1.0  0.36199  0.72559  0.05013  1.0000
  H   H818      1.0  0.54787  0.80379  0.95179  1.0000
  H   H819      1.0  0.41546  0.60483  0.44163  1.0000
  H   H820      1.0  0.63167  0.56076  0.37939  1.0000
  H   H821      1.0  0.33431  0.74221  0.33396  1.0000
  H   H822      1.0  0.65665  0.69012  0.10475  1.0000
  H   H823      1.0  0.34351  0.77967  0.43398  1.0000
  H   H824      1.0  0.59738  0.63548  0.33804  1.0000
  N   N37       1.0  0.47714  0.60119  0.12118  1.0000
  C   C493      1.0  0.50556  0.59340  0.11650  1.0000
  C   C494      1.0  0.47110  0.62384  0.10381  1.0000
  C   C495      1.0  0.45983  0.57809  0.11470  1.0000
  C   C496      1.0  0.47443  0.60831  0.14874  1.0000
  C   C497      1.0  0.51531  0.56855  0.13023  1.0000
  C   C498      1.0  0.48767  0.64871  0.10787  1.0000
  C   C499      1.0  0.43090  0.58378  0.10709  1.0000
  C   C500      1.0  0.44756  0.61946  0.15737  1.0000
  H   H825      1.0  0.50897  0.59023  0.09588  1.0000
  H   H826      1.0  0.51945  0.60916  0.12218  1.0000
  H   H827      1.0  0.45012  0.62998  0.10489  1.0000
  H   H828      1.0  0.47386  0.61788  0.08374  1.0000
  H   H829      1.0  0.46822  0.56713  0.09830  1.0000
  H   H830      1.0  0.45925  0.56390  0.13070  1.0000
  H   H831      1.0  0.47776  0.59087  0.16090  1.0000
  H   H832      1.0  0.49032  0.62193  0.15490  1.0000
  H   H833      1.0  0.53612  0.56478  0.12441  1.0000
  H   H834      1.0  0.51548  0.57091  0.15109  1.0000
  H   H835      1.0  0.50379  0.55102  0.12491  1.0000
  H   H836      1.0  0.50869  0.64581  0.10248  1.0000
  H   H837      1.0  0.47990  0.66425  0.09515  1.0000
  H   H838      1.0  0.48619  0.65611  0.12751  1.0000
  H   H839      1.0  0.42039  0.59666  0.12047  1.0000
  H   H840      1.0  0.41973  0.56516  0.10620  1.0000
  H   H841      1.0  0.43006  0.59241  0.08781  1.0000
  H   H842      1.0  0.43348  0.60354  0.16206  1.0000
  H   H843      1.0  0.43835  0.63291  0.14355  1.0000
  H   H844      1.0  0.45063  0.63154  0.17456  1.0000
  H   H845      1.0  0.33067  0.67034  0.28495  1.0000
  H   H846      1.0  0.61092  0.66047  0.01806  1.0000
  C   C501      1.0  0.33236  0.73350  0.31478  1.0000
  H   H847      1.0  0.49953  0.67205  0.42885  1.0000
  S   S141      1.0  0.32820  0.63544  0.41232  1.0000
  H   H848      1.0  0.64278  0.51959  0.43638  1.0000
  H   H849      1.0  0.50715  0.46525  0.02538  1.0000
  H   H850      1.0  0.60924  0.47966  0.43220  1.0000
  H   H851      1.0  0.36780  0.61613  0.44659  1.0000
  H   H852      1.0  0.32953  0.72069  0.95755  1.0000
  H   H853      1.0  0.33921  0.73789  0.02705  1.0000
  C   C502      1.0  0.62343  0.74708  0.03010  1.0000
  H   H854      1.0  0.63941  0.63132  0.27870  1.0000
  C   C503      1.0  0.34218  0.72254  0.04149  1.0000
  C   C504      1.0  0.62090  0.51963  0.43429  1.0000
  H   H855      1.0  0.58489  0.47960  0.97819  1.0000
  H   H856      1.0  0.56210  0.48158  0.95290  1.0000
  H   H857      1.0  0.41547  0.46813  0.99658  1.0000
  H   H858      1.0  0.35253  0.64476  0.02257  1.0000
  H   H859      1.0  0.65128  0.66847  0.30144  1.0000
  H   H860      1.0  0.63422  0.59959  0.32901  1.0000
  H   H861      1.0  0.47264  0.69043  0.41630  1.0000
  H   H862      1.0  0.62057  0.67133  0.05809  1.0000
  H   H863      1.0  0.34125  0.68142  0.98143  1.0000
  H   H864      1.0  0.61724  0.51927  0.41354  1.0000
  H   H865      1.0  0.47390  0.75326  0.96258  1.0000
  C   C505      1.0  0.61024  0.63282  0.32114  1.0000
  C   C506      1.0  0.65987  0.61680  0.40130  1.0000
  C   C507      1.0  0.63702  0.62107  0.32957  1.0000
  H   H866      1.0  0.40458  0.49556  0.96028  1.0000
  H   H867      1.0  0.60451  0.73671  0.02684  1.0000
  H   H868      1.0  0.54885  0.52136  0.40592  1.0000
  H   H869      1.0  0.60114  0.69960  0.05400  1.0000
  H   H870      1.0  0.34886  0.58324  0.05902  1.0000
  C   C508      1.0  0.56392  0.51442  0.44407  1.0000
  H   H871      1.0  0.52314  0.72873  0.95406  1.0000
  C   C509      1.0  0.55772  0.50506  0.41693  1.0000
  H   H872      1.0  0.64404  0.63400  0.10839  1.0000
  H   H873      1.0  0.65098  0.59974  0.28614  1.0000
  H   H874      1.0  0.56013  0.77452  0.96572  1.0000
  C   C510      1.0  0.61372  0.68194  0.01913  1.0000
  H   H875      1.0  0.61208  0.65233  0.31235  1.0000
  H   H876      1.0  0.63987  0.62512  0.35009  1.0000
  C   C511      1.0  0.50422  0.47331  0.00662  1.0000
  C   C512      1.0  0.64599  0.62130  0.06963  1.0000
  H   H877      1.0  0.63929  0.64511  0.42413  1.0000
  H   H878      1.0  0.33445  0.73932  0.26298  1.0000
  H   H879      1.0  0.33777  0.63899  0.99176  1.0000
  H   H880      1.0  0.33763  0.71264  0.31704  1.0000
  C   C513      1.0  0.61937  0.68975  0.04695  1.0000
  C   C514      1.0  0.34064  0.69453  0.03088  1.0000
  H   H881      1.0  0.34304  0.65919  0.09243  1.0000
  C   C515      1.0  0.60952  0.49488  0.44723  1.0000
  C   C516      1.0  0.63783  0.70043  0.10065  1.0000
  H   H882      1.0  0.64093  0.60805  0.03121  1.0000
  Fe  Fe72      1.0  0.48376  0.59575  0.42516  1.0000
  H   H883      1.0  0.34427  0.72906  0.98707  1.0000
  H   H884      1.0  0.49133  0.70208  0.44349  1.0000
  H   H885      1.0  0.64076  0.67150  0.34722  1.0000
  C   C517      1.0  0.65759  0.59281  0.38890  1.0000
  H   H886      1.0  0.43932  0.71594  0.43473  1.0000
  C   C518      1.0  0.57414  0.46753  0.96409  1.0000
  H   H887      1.0  0.39547  0.67600  0.42540  1.0000
  H   H888      1.0  0.34670  0.74377  0.30246  1.0000
  C   C519      1.0  0.41535  0.68379  0.42056  1.0000
  H   H889      1.0  0.61419  0.76389  0.96454  1.0000
  H   H890      1.0  0.42034  0.75006  0.97245  1.0000
  H   H891      1.0  0.59671  0.62100  0.42476  1.0000
  H   H892      1.0  0.59471  0.69063  0.01267  1.0000
  H   H893      1.0  0.35950  0.69053  0.02068  1.0000
  H   H894      1.0  0.65157  0.72093  0.01381  1.0000
  H   H895      1.0  0.42816  0.66734  0.41487  1.0000
  H   H896      1.0  0.41375  0.69622  0.40336  1.0000
  H   H897      1.0  0.45250  0.78175  0.96346  1.0000
  H   H898      1.0  0.45723  0.65178  0.44164  1.0000
  N   N38       1.0  0.64339  0.70645  0.05202  1.0000
  H   H899      1.0  0.61399  0.53845  0.44199  1.0000
  H   H900      1.0  0.33623  0.72151  0.43048  1.0000
  H   H901      1.0  0.62155  0.76014  0.04672  1.0000
  H   H902      1.0  0.62928  0.68686  0.00530  1.0000
  C   C520      1.0  0.59230  0.72839  0.95763  1.0000
  C   C521      1.0  0.33396  0.63998  0.01241  1.0000
  H   H903      1.0  0.62211  0.73138  0.07827  1.0000
  H   H904      1.0  0.32815  0.62004  0.01854  1.0000
  H   H905      1.0  0.34140  0.68200  0.04811  1.0000
  C   C522      1.0  0.42689  0.69995  0.44263  1.0000
  H   H906      1.0  0.57164  0.73414  0.96148  1.0000
  H   H907      1.0  0.54289  0.48910  0.41716  1.0000
  H   H908      1.0  0.57562  0.49867  0.40658  1.0000
  H   H909      1.0  0.63324  0.71207  0.11783  1.0000
  C   C523      1.0  0.49645  0.49443  0.95853  1.0000
  H   H910      1.0  0.57126  0.53465  0.44253  1.0000
  H   H911      1.0  0.40669  0.69499  0.95970  1.0000
  C   C524      1.0  0.49929  0.46720  0.96155  1.0000
  N   N39       1.0  0.66079  0.62905  0.31418  1.0000
  H   H912      1.0  0.60065  0.72070  0.97560  1.0000
  H   H913      1.0  0.65714  0.73246  0.08168  1.0000
  C   C525      1.0  0.41014  0.75000  0.95373  1.0000
  H   H914      1.0  0.32942  0.68033  0.25284  1.0000
  C   C526      1.0  0.42646  0.46351  0.97883  1.0000
  C   C527      1.0  0.46524  0.76940  0.95129  1.0000
  S   S142      1.0  0.53248  0.65877  0.48100  1.0000
  H   H915      1.0  0.47299  0.66423  0.55481  1.0000
  Fe  Fe73      1.0  0.48715  0.75946  0.57947  1.0000
  S   S143      1.0  0.48430  0.79189  0.55096  1.0000
  S   S144      1.0  0.47622  0.71725  0.57205  1.0000
  Fe  Fe74      1.0  0.50314  0.79599  0.62285  1.0000
  S   S145      1.0  0.50125  0.83132  0.59721  1.0000
  S   S146      1.0  0.52022  0.79429  0.66321  1.0000
  Fe  Fe75      1.0  0.46313  0.81381  0.58182  1.0000
  S   S147      1.0  0.42494  0.83806  0.57748  1.0000
  S   S148      1.0  0.46397  0.78041  0.60962  1.0000
  Fe  Fe76      1.0  0.49352  0.76007  0.85635  1.0000
  S   S149      1.0  0.49495  0.79065  0.88637  1.0000
  S   S150      1.0  0.49650  0.71695  0.86530  1.0000
  Fe  Fe77      1.0  0.48306  0.79928  0.81420  1.0000
  S   S151      1.0  0.48376  0.83296  0.84182  1.0000
  S   S152      1.0  0.46950  0.80704  0.77336  1.0000
  Fe  Fe78      1.0  0.45899  0.80776  0.86746  1.0000
  S   S153      1.0  0.42756  0.82479  0.89399  1.0000
  S   S154      1.0  0.45586  0.77545  0.83905  1.0000
  C   C528      1.0  0.39454  0.83075  0.56163  1.0000
  C   C529      1.0  0.39235  0.81068  0.54380  1.0000
  C   C530      1.0  0.36816  0.80643  0.53097  1.0000
  H   H916      1.0  0.44316  0.77677  0.91701  1.0000
  C   C531      1.0  0.34771  0.84158  0.55415  1.0000
  C   C532      1.0  0.37203  0.84617  0.56662  1.0000
  H   H917      1.0  0.40943  0.79868  0.53967  1.0000
  H   H918      1.0  0.41563  0.65112  0.46074  1.0000
  C   C533      1.0  0.61993  0.91157  0.54049  1.0000
  H   H919      1.0  0.37337  0.86157  0.58053  1.0000
  C   C534      1.0  0.50470  0.79546  0.69344  1.0000
  C   C535      1.0  0.48300  0.80030  0.74288  1.0000
  C   C536      1.0  0.46815  0.80706  0.72124  1.0000
  C   C537      1.0  0.47883  0.80452  0.69667  1.0000
  H   H920      1.0  0.44838  0.81483  0.72352  1.0000
  H   H921      1.0  0.46732  0.81032  0.68029  1.0000
  H   H922      1.0  0.66041  0.88483  0.45942  1.0000
  C   C538      1.0  0.35039  0.83401  0.91481  1.0000
  C   C539      1.0  0.37813  0.83637  0.91270  1.0000
  C   C540      1.0  0.39251  0.82141  0.89509  1.0000
  C   C541      1.0  0.37881  0.80379  0.87973  1.0000
  C   C542      1.0  0.35109  0.80125  0.88201  1.0000
  H   H923      1.0  0.35234  0.88496  0.47687  1.0000
  H   H924      1.0  0.63416  0.76025  0.90194  1.0000
  H   H925      1.0  0.38957  0.79215  0.86611  1.0000
  H   H926      1.0  0.48191  0.78187  0.94489  1.0000
  N   N40       1.0  0.58241  0.49719  0.45910  1.0000
  C   C543      1.0  0.43162  0.71900  0.49775  1.0000
  C   C544      1.0  0.49793  0.68036  0.90336  1.0000
  C   C545      1.0  0.50268  0.70645  0.89661  1.0000
  H   H927      1.0  0.35984  0.89736  0.51878  1.0000
  H   H928      1.0  0.49090  0.66680  0.88921  1.0000
  C   C546      1.0  0.51717  0.67412  0.50700  1.0000
  C   C547      1.0  0.49250  0.70080  0.54725  1.0000
  C   C548      1.0  0.51060  0.71377  0.53171  1.0000
  C   C549      1.0  0.52292  0.70043  0.51171  1.0000
  H   H929      1.0  0.51505  0.73412  0.53504  1.0000
  H   H930      1.0  0.53685  0.71063  0.49968  1.0000
  C   C550      1.0  0.50320  0.49351  0.48947  1.0000
  H   H931      1.0  0.65609  0.89162  0.54966  1.0000
  H   H932      1.0  0.64117  0.70138  0.48912  1.0000
  H   H933      1.0  0.49484  0.64068  0.51926  1.0000
  Fe  Fe79      1.0  0.52261  0.80651  0.56838  1.0000
  S   S155      1.0  0.55618  0.81888  0.54136  1.0000
  S   S156      1.0  0.52653  0.77217  0.59463  1.0000
  Fe  Fe80      1.0  0.51967  0.81337  0.85875  1.0000
  S   S157      1.0  0.55233  0.83711  0.87779  1.0000
  S   S158      1.0  0.52078  0.78138  0.82945  1.0000
  C   C551      1.0  0.59043  0.82502  0.54700  1.0000
  C   C552      1.0  0.60115  0.82644  0.57141  1.0000
  C   C553      1.0  0.62839  0.83160  0.57482  1.0000
  C   C554      1.0  0.64544  0.83483  0.55396  1.0000
  C   C555      1.0  0.63479  0.83304  0.52953  1.0000
  C   C556      1.0  0.60745  0.82855  0.52612  1.0000
  H   H934      1.0  0.58839  0.82383  0.58768  1.0000
  H   H935      1.0  0.63632  0.83295  0.59382  1.0000
  H   H936      1.0  0.36700  0.93381  0.48057  1.0000
  H   H937      1.0  0.59941  0.82741  0.50715  1.0000
  C   C557      1.0  0.51936  0.78809  0.71502  1.0000
  C   C558      1.0  0.50857  0.79035  0.73959  1.0000
  H   H938      1.0  0.53938  0.78100  0.71272  1.0000
  H   H939      1.0  0.52023  0.78492  0.75597  1.0000
  C   C559      1.0  0.42909  0.47139  0.51020  1.0000
  C   C560      1.0  0.62911  0.85144  0.89627  1.0000
  C   C561      1.0  0.60126  0.85021  0.89623  1.0000
  C   C562      1.0  0.58747  0.83757  0.87663  1.0000
  C   C563      1.0  0.60190  0.82613  0.85695  1.0000
  C   C564      1.0  0.62979  0.82796  0.85664  1.0000
  H   H940      1.0  0.63938  0.86139  0.91141  1.0000
  H   H941      1.0  0.59030  0.85923  0.91149  1.0000
  H   H942      1.0  0.59161  0.81627  0.84180  1.0000
  H   H943      1.0  0.64077  0.81955  0.84109  1.0000
  C   C565      1.0  0.51191  0.72378  0.91497  1.0000
  H   H944      1.0  0.54925  0.47177  0.46725  1.0000
  H   H945      1.0  0.51580  0.74380  0.90990  1.0000
  H   H946      1.0  0.51415  0.48346  0.52776  1.0000
  C   C566      1.0  0.49921  0.66102  0.52265  1.0000
  C   C567      1.0  0.48693  0.67437  0.54277  1.0000
  H   H947      1.0  0.65853  0.87809  0.50447  1.0000
  H   H948      1.0  0.41235  0.47772  0.52226  1.0000
  H   H949      1.0  0.34212  0.74847  0.46609  1.0000
  H   H950      1.0  0.44352  0.73761  0.88037  1.0000
  H   H951      1.0  0.62517  0.75616  0.47973  1.0000
  H   H952      1.0  0.56394  0.50853  0.49443  1.0000
  C   C568      1.0  0.49609  0.48353  0.46578  1.0000
  C   C569      1.0  0.33668  0.81641  0.89946  1.0000
  H   H953      1.0  0.63477  0.76854  0.55738  1.0000
  C   C570      1.0  0.64444  0.79198  0.92680  1.0000
  H   H954      1.0  0.59563  0.49386  0.49816  1.0000
  H   H955      1.0  0.45000  0.63890  0.49338  1.0000
  H   H956      1.0  0.41829  0.70614  0.50878  1.0000
  H   H957      1.0  0.54462  0.51649  0.45406  1.0000
  C   C571      1.0  0.62115  0.75881  0.54392  1.0000
  H   H958      1.0  0.46519  0.75052  0.91517  1.0000
  H   H959      1.0  0.61229  0.89384  0.53090  1.0000
  H   H960      1.0  0.39213  0.92348  0.50131  1.0000
  H   H961      1.0  0.64842  0.72229  0.46221  1.0000
  C   C572      1.0  0.43236  0.65078  0.49802  1.0000
  C   C573      1.0  0.64110  0.76794  0.48870  1.0000
  C   C574      1.0  0.50858  0.47595  0.50938  1.0000
  H   H962      1.0  0.58850  0.76998  0.87106  1.0000
  H   H963      1.0  0.61999  0.72992  0.51482  1.0000
  C   C575      1.0  0.34568  0.82189  0.53594  1.0000
  H   H964      1.0  0.37839  0.77493  0.93810  1.0000
  C   C576      1.0  0.64354  0.84058  0.87633  1.0000
  H   H965      1.0  0.58843  0.54951  0.47785  1.0000
  N   N41       1.0  0.42801  0.74052  0.93286  1.0000
  H   H966      1.0  0.60958  0.77360  0.53335  1.0000
  H   H967      1.0  0.64760  0.83495  0.51325  1.0000
  C   C577      1.0  0.35303  0.91805  0.51763  1.0000
  N   N42       1.0  0.49274  0.70640  0.65283  1.0000
  C   C578      1.0  0.50428  0.69069  0.63127  1.0000
  C   C579      1.0  0.51080  0.72936  0.65695  1.0000
  C   C580      1.0  0.46592  0.71608  0.64442  1.0000
  C   C581      1.0  0.49046  0.68906  0.67590  1.0000
  C   C582      1.0  0.48725  0.66783  0.62154  1.0000
  C   C583      1.0  0.54001  0.72271  0.66251  1.0000
  C   C584      1.0  0.45137  0.73504  0.66222  1.0000
  C   C585      1.0  0.48968  0.70268  0.70208  1.0000
  H   H968      1.0  0.50864  0.70352  0.61469  1.0000
  H   H969      1.0  0.52362  0.68193  0.63674  1.0000
  H   H970      1.0  0.50406  0.74187  0.67267  1.0000
  H   H971      1.0  0.51049  0.74239  0.64004  1.0000
  H   H972      1.0  0.46756  0.72597  0.62568  1.0000
  H   H973      1.0  0.45200  0.69958  0.64153  1.0000
  H   H974      1.0  0.47260  0.67645  0.67446  1.0000
  H   H975      1.0  0.50766  0.67547  0.67675  1.0000
  H   H976      1.0  0.49906  0.65633  0.60775  1.0000
  H   H977      1.0  0.48118  0.65445  0.63699  1.0000
  H   H978      1.0  0.46960  0.67487  0.61101  1.0000
  H   H979      1.0  0.55017  0.74056  0.66941  1.0000
  H   H980      1.0  0.54213  0.70748  0.67729  1.0000
  H   H981      1.0  0.55048  0.71665  0.64500  1.0000
  H   H982      1.0  0.46294  0.75286  0.66646  1.0000
  H   H983      1.0  0.44488  0.72520  0.67986  1.0000
  H   H984      1.0  0.43305  0.74185  0.65260  1.0000
  H   H985      1.0  0.47659  0.69136  0.71495  1.0000
  H   H986      1.0  0.48209  0.72288  0.70216  1.0000
  H   H987      1.0  0.50953  0.70224  0.71113  1.0000
  H   H988      1.0  0.63064  0.78462  0.49767  1.0000
  C   C586      1.0  0.45214  0.70362  0.48210  1.0000
  H   H989      1.0  0.32972  0.90594  0.56456  1.0000
  H   H990      1.0  0.40991  0.79102  0.93967  1.0000
  H   H991      1.0  0.56656  0.74126  0.91779  1.0000
  N   N43       1.0  0.52392  0.86977  0.76976  1.0000
  C   C587      1.0  0.50299  0.87548  0.78945  1.0000
  C   C588      1.0  0.53661  0.84421  0.77726  1.0000
  C   C589      1.0  0.50996  0.86686  0.74463  1.0000
  C   C590      1.0  0.54324  0.89217  0.76911  1.0000
  C   C591      1.0  0.48534  0.89959  0.78462  1.0000
  C   C592      1.0  0.55160  0.84416  0.80276  1.0000
  C   C593      1.0  0.52689  0.85901  0.72160  1.0000
  C   C594      1.0  0.57064  0.88694  0.75693  1.0000
  H   H992      1.0  0.48936  0.85853  0.79160  1.0000
  H   H993      1.0  0.51205  0.87855  0.80843  1.0000
  H   H994      1.0  0.55066  0.83694  0.76289  1.0000
  H   H995      1.0  0.52138  0.82862  0.77845  1.0000
  H   H996      1.0  0.49368  0.85237  0.74627  1.0000
  H   H997      1.0  0.50031  0.88545  0.73890  1.0000
  H   H998      1.0  0.53439  0.90917  0.75901  1.0000
  H   H999      1.0  0.54718  0.89921  0.78873  1.0000
  H   H1000     1.0  0.47126  0.89624  0.76881  1.0000
  H   H1001     1.0  0.47304  0.90311  0.80174  1.0000
  H   H1002     1.0  0.49700  0.91753  0.78119  1.0000
  H   H1003     1.0  0.56232  0.82535  0.80480  1.0000
  H   H1004     1.0  0.56649  0.85991  0.80408  1.0000
  H   H1005     1.0  0.53794  0.84539  0.81915  1.0000
  H   H1006     1.0  0.53756  0.84037  0.72424  1.0000
  H   H1007     1.0  0.54068  0.87477  0.71598  1.0000
  H   H1008     1.0  0.51351  0.85593  0.70514  1.0000
  C   C595      1.0  0.41179  0.73781  0.90905  1.0000
  H   H1009     1.0  0.57262  0.86835  0.74664  1.0000
  C   C596      1.0  0.65559  0.89855  0.49796  1.0000
  C   C597      1.0  0.50209  0.67172  0.92842  1.0000
  H   H1010     1.0  0.59785  0.46681  0.93058  1.0000
  H   H1011     1.0  0.44818  0.47747  0.51878  1.0000
  C   C598      1.0  0.59751  0.53397  0.48946  1.0000
  H   H1012     1.0  0.56042  0.74920  0.87355  1.0000
  H   H1013     1.0  0.37498  0.95363  0.50782  1.0000
  H   H1014     1.0  0.44238  0.73117  0.51182  1.0000
  C   C599      1.0  0.58411  0.50732  0.48587  1.0000
  H   H1015     1.0  0.38851  0.85000  0.92473  1.0000
  N   N44       1.0  0.65580  0.75224  0.50842  1.0000
  H   H1016     1.0  0.42757  0.48213  0.49192  1.0000
  C   C600      1.0  0.65804  0.77975  0.46721  1.0000
  H   H1017     1.0  0.49843  0.65158  0.93349  1.0000
  S   S159      1.0  0.48222  0.59754  0.46777  1.0000
  C   C601      1.0  0.42199  0.66598  0.47478  1.0000
  H   H1018     1.0  0.46533  0.69350  0.49575  1.0000
  C   C602      1.0  0.63570  0.73997  0.52591  1.0000
  C   C603      1.0  0.58431  0.79033  0.93462  1.0000
  H   H1019     1.0  0.57519  0.90268  0.74309  1.0000
  C   C604      1.0  0.62360  0.77675  0.91125  1.0000
  Fe  Fe81      1.0  0.52043  0.61977  0.46449  1.0000
  H   H1020     1.0  0.43283  0.70541  0.88980  1.0000
  C   C605      1.0  0.58388  0.74999  0.90808  1.0000
  H   H1021     1.0  0.60673  0.74758  0.55548  1.0000
  H   H1022     1.0  0.59601  0.73310  0.90162  1.0000
  C   C606      1.0  0.65693  0.71214  0.47890  1.0000
  H   H1023     1.0  0.45556  0.70861  0.92707  1.0000
  H   H1024     1.0  0.58645  0.88781  0.77156  1.0000
  H   H1025     1.0  0.62423  0.48813  0.46156  1.0000
  H   H1026     1.0  0.61231  0.92935  0.53100  1.0000
  C   C607      1.0  0.65043  0.91117  0.54216  1.0000
  H   H1027     1.0  0.64467  0.72424  0.53765  1.0000
  H   H1028     1.0  0.43696  0.66378  0.51417  1.0000
  C   C608      1.0  0.37254  0.93336  0.50081  1.0000
  H   H1029     1.0  0.40451  0.75726  0.90261  1.0000
  C   C609      1.0  0.57270  0.76347  0.88416  1.0000
  H   H1030     1.0  0.39356  0.72621  0.91257  1.0000
  N   N45       1.0  0.59984  0.76692  0.92578  1.0000
  S   S160      1.0  0.50584  0.52756  0.49521  1.0000
  H   H1031     1.0  0.41988  0.73256  0.48583  1.0000
  H   H1032     1.0  0.33966  0.84578  0.92834  1.0000
  H   H1033     1.0  0.59528  0.54002  0.50955  1.0000
  H   H1034     1.0  0.41261  0.72521  0.86972  1.0000
  H   H1035     1.0  0.35644  0.92537  0.53718  1.0000
  H   H1036     1.0  0.36692  0.79105  0.51705  1.0000
  H   H1037     1.0  0.55950  0.78002  0.88886  1.0000
  Fe  Fe82      1.0  0.50797  0.56120  0.46655  1.0000
  H   H1038     1.0  0.41679  0.63705  0.50454  1.0000
  C   C610      1.0  0.42629  0.72573  0.88619  1.0000
  H   H1039     1.0  0.58027  0.80373  0.91849  1.0000
  H   H1040     1.0  0.49339  0.50251  0.93980  1.0000
  S   S161      1.0  0.54603  0.58411  0.46717  1.0000
  H   H1041     1.0  0.61749  0.79008  0.89571  1.0000
  H   H1042     1.0  0.41003  0.68724  0.92625  1.0000
  H   H1043     1.0  0.64477  0.78984  0.45355  1.0000
  H   H1044     1.0  0.34071  0.78755  0.87006  1.0000
  C   C611      1.0  0.44011  0.71484  0.94076  1.0000
  H   H1045     1.0  0.40340  0.67605  0.48042  1.0000
  H   H1046     1.0  0.61161  0.91112  0.55998  1.0000
  H   H1047     1.0  0.63400  0.90091  0.49463  1.0000
  H   H1048     1.0  0.65322  0.78027  0.94239  1.0000
  H   H1049     1.0  0.66107  0.79751  0.91409  1.0000
  H   H1050     1.0  0.61906  0.53281  0.48562  1.0000
  C   C612      1.0  0.45018  0.75947  0.92780  1.0000
  H   H1051     1.0  0.59597  0.80204  0.94836  1.0000
  C   C613      1.0  0.56992  0.47043  0.46024  1.0000
  C   C614      1.0  0.33042  0.88506  0.47592  1.0000
  H   H1052     1.0  0.62910  0.74148  0.94339  1.0000
  H   H1053     1.0  0.64040  0.94683  0.50088  1.0000
  C   C615      1.0  0.39689  0.77684  0.94934  1.0000
  C   C616      1.0  0.51617  0.71517  0.93991  1.0000
  H   H1054     1.0  0.33051  0.85302  0.55894  1.0000
  C   C617      1.0  0.65995  0.94517  0.51049  1.0000
  H   H1055     1.0  0.46498  0.71843  0.47284  1.0000
  H   H1056     1.0  0.65854  0.95755  0.52776  1.0000
  H   H1057     1.0  0.63642  0.81045  0.93449  1.0000
  C   C618      1.0  0.60986  0.75104  0.94807  1.0000
  H   H1058     1.0  0.65577  0.92522  0.55736  1.0000
  C   C619      1.0  0.51133  0.68913  0.94673  1.0000
  H   H1059     1.0  0.40968  0.71044  0.45090  1.0000
  N   N46       1.0  0.44125  0.68474  0.46287  1.0000
  H   H1060     1.0  0.54380  0.77412  0.93495  1.0000
  C   C620      1.0  0.42082  0.69179  0.94397  1.0000
  H   H1061     1.0  0.59224  0.71196  0.94395  1.0000
  H   H1062     1.0  0.47678  0.66150  0.46739  1.0000
  C   C621      1.0  0.55758  0.78485  0.94746  1.0000
  H   H1063     1.0  0.43472  0.48635  0.94391  1.0000
  H   H1064     1.0  0.33113  0.69728  0.45519  1.0000
  C   C622      1.0  0.46409  0.66944  0.45198  1.0000
  H   H1065     1.0  0.43250  0.67410  0.94896  1.0000
  H   H1066     1.0  0.49178  0.49676  0.45030  1.0000
  C   C623      1.0  0.92622  0.15668  0.26694  1.0000
  C   C624      1.0  0.99100  0.13120  0.23451  1.0000
  S   S162      1.0  0.75632  0.07353  0.41765  1.0000
  H   H1067     1.0  0.94087  0.21567  0.01893  1.0000
  H   H1068     1.0  0.86711  0.24809  0.06551  1.0000
  S   S163      1.0  0.73997  0.13407  0.43086  1.0000
  Fe  Fe83      1.0  0.71852  0.09759  0.41931  1.0000
  S   S164      1.0  0.68836  0.10186  0.38709  1.0000
  H   H1069     1.0  0.84604  0.05961  0.98119  1.0000
  S   S165      1.0  0.81660  0.12865  0.42255  1.0000
  Fe  Fe84      1.0  0.95441  0.14763  0.09105  1.0000
  S   S166      1.0  0.92011  0.14128  0.06319  1.0000
  S   S167      1.0  0.95463  0.17762  0.12224  1.0000
  N   N47       1.0  0.82282  0.02441  0.01448  1.0000
  H   H1070     1.0  0.88636  0.28561  0.04770  1.0000
  C   C625      1.0  0.80545  0.02868  0.96828  1.0000
  C   C626      1.0  0.68147  0.19392  0.41526  1.0000
  H   H1071     1.0  0.90769  0.10959  0.25499  1.0000
  H   H1072     1.0  0.68216  0.04085  0.06199  1.0000
  Fe  Fe85      1.0  0.96435  0.12865  0.37068  1.0000
  S   S168      1.0  0.92840  0.10134  0.37160  1.0000
  S   S169      1.0  0.96046  0.17041  0.35865  1.0000
  Fe  Fe86      1.0  0.70682  0.10299  0.03575  1.0000
  S   S170      1.0  0.70491  0.10529  0.99326  1.0000
  H   H1073     1.0  0.93506  0.43788  0.98963  1.0000
  Fe  Fe87      1.0  0.76837  0.10069  0.03594  1.0000
  S   S171      1.0  0.77061  0.10238  0.99335  1.0000
  S   S172      1.0  0.80226  0.09573  0.06442  1.0000
  Fe  Fe88      1.0  0.73905  0.13343  0.99619  1.0000
  S   S173      1.0  0.74129  0.17504  0.98101  1.0000
  Fe  Fe89      1.0  0.73645  0.07379  0.99384  1.0000
  H   H1074     1.0  0.82382  0.02119  0.95954  1.0000
  S   S174      1.0  0.73880  0.13316  0.03894  1.0000
  S   S175      1.0  0.73641  0.06995  0.03613  1.0000
  C   C627      1.0  0.88706  0.12936  0.06462  1.0000
  C   C628      1.0  0.87709  0.11611  0.08574  1.0000
  C   C629      1.0  0.85104  0.10618  0.08541  1.0000
  C   C630      1.0  0.83448  0.10975  0.06421  1.0000
  C   C631      1.0  0.84430  0.12340  0.04326  1.0000
  C   C632      1.0  0.87050  0.13289  0.04340  1.0000
  H   H1075     1.0  0.88958  0.11310  0.10215  1.0000
  H   H1076     1.0  0.84367  0.09562  0.10171  1.0000
  H   H1077     1.0  0.83182  0.12638  0.02685  1.0000
  H   H1078     1.0  0.87802  0.14300  0.02690  1.0000
  H   H1079     1.0  0.82673  0.06250  0.43180  1.0000
  C   C633      1.0  0.80111  0.01892  0.99558  1.0000
  H   H1080     1.0  0.66890  0.17403  0.37982  1.0000
  H   H1081     1.0  0.67273  0.06004  0.02479  1.0000
  H   H1082     1.0  0.84509  0.20769  0.05674  1.0000
  H   H1083     1.0  0.94010  0.40376  0.98841  1.0000
  C   C634      1.0  0.84745  0.12013  0.40834  1.0000
  C   C635      1.0  0.86860  0.13788  0.41006  1.0000
  C   C636      1.0  0.89342  0.13239  0.39905  1.0000
  C   C637      1.0  0.89749  0.10898  0.38608  1.0000
  C   C638      1.0  0.87634  0.09119  0.38426  1.0000
  C   C639      1.0  0.85144  0.09675  0.39520  1.0000
  H   H1084     1.0  0.79716  0.99755  0.99453  1.0000
  H   H1085     1.0  0.90942  0.14630  0.40065  1.0000
  H   H1086     1.0  0.74764  0.22699  0.96352  1.0000
  H   H1087     1.0  0.83523  0.08324  0.39296  1.0000
  H   H1088     1.0  0.92745  0.18129  0.31206  1.0000
  S   S176      1.0  0.98846  0.16599  0.07006  1.0000
  C   C640      1.0  0.73395  0.00509  0.96979  1.0000
  C   C641      1.0  0.73489  0.99322  0.99366  1.0000
  C   C642      1.0  0.88994  0.11006  0.26713  1.0000
  H   H1089     1.0  0.73544  0.00517  0.01046  1.0000
  H   H1090     1.0  0.86578  0.15609  0.42002  1.0000
  H   H1091     1.0  0.87267  0.11369  0.25455  1.0000
  H   H1092     1.0  0.79480  0.01165  0.43486  1.0000
  S   S177      1.0  0.97643  0.20545  0.42395  1.0000
  H   H1093     1.0  0.88878  0.15840  0.24493  1.0000
  H   H1094     1.0  0.87435  0.19152  0.04663  1.0000
  H   H1095     1.0  0.88727  0.09019  0.27519  1.0000
  H   H1096     1.0  0.82525  0.01284  0.41712  1.0000
  S   S178      1.0  0.96646  0.35618  0.96754  1.0000
  H   H1097     1.0  0.78220  0.02814  0.00161  1.0000
  H   H1098     1.0  0.85514  0.01927  0.98749  1.0000
  C   C643      1.0  0.81878  0.04625  0.44349  1.0000
  C   C644      1.0  0.67164  0.15878  0.44520  1.0000
  H   H1099     1.0  0.87308  0.14353  0.28574  1.0000
  C   C645      1.0  0.94042  0.42178  0.95111  1.0000
  S   S179      1.0  0.98204  0.12051  0.11194  1.0000
  C   C646      1.0  0.86679  0.20644  0.05996  1.0000
  H   H1100     1.0  0.87918  0.07313  0.37408  1.0000
  S   S180      1.0  0.98419  0.13527  0.18278  1.0000
  H   H1101     1.0  0.83310  0.08790  0.99588  1.0000
  C   C647      1.0  0.87585  0.02477  0.43334  1.0000
  H   H1102     1.0  0.68427  0.98232  0.01986  1.0000
  H   H1103     1.0  0.91569  0.29497  0.06548  1.0000
  H   H1104     1.0  0.99087  0.18869  0.20237  1.0000
  H   H1105     1.0  0.67580  0.00713  0.98039  1.0000
  C   C648      1.0  0.99195  0.17516  0.21810  1.0000
  C   C649      1.0  0.84814  0.01158  0.00587  1.0000
  C   C650      1.0  0.87172  0.01380  0.02436  1.0000
  C   C651      1.0  0.66605  0.97926  0.00864  1.0000
  C   C652      1.0  0.99458  0.14059  0.25944  1.0000
  H   H1106     1.0  0.86925  0.06274  0.44802  1.0000
  H   H1107     1.0  0.87565  0.23774  0.03464  1.0000
  C   C653      1.0  0.82576  0.05334  0.01887  1.0000
  H   H1108     1.0  0.89235  0.18368  0.34347  1.0000
  H   H1109     1.0  0.86966  0.19913  0.07947  1.0000
  N   N48       1.0  0.90826  0.23682  0.06156  1.0000
  C   C654      1.0  0.91992  0.25786  0.04485  1.0000
  C   C655      1.0  0.92409  0.21226  0.05735  1.0000
  C   C656      1.0  0.91188  0.24533  0.08870  1.0000
  C   C657      1.0  0.87930  0.23354  0.05508  1.0000
  C   C658      1.0  0.90828  0.28551  0.04797  1.0000
  C   C659      1.0  0.92658  0.20340  0.02949  1.0000
  C   C660      1.0  0.90083  0.22704  0.10929  1.0000
  H   H1110     1.0  0.94162  0.25946  0.04798  1.0000
  H   H1111     1.0  0.91739  0.25301  0.02444  1.0000
  H   H1112     1.0  0.91592  0.19564  0.06821  1.0000
  H   H1113     1.0  0.94451  0.21451  0.06493  1.0000
  H   H1114     1.0  0.93333  0.24844  0.09285  1.0000
  H   H1115     1.0  0.90206  0.26435  0.09225  1.0000
  H   H1116     1.0  0.91514  0.29789  0.03194  1.0000
  H   H1117     1.0  0.70155  0.18709  0.37944  1.0000
  H   H1118     1.0  0.83474  0.05691  0.03784  1.0000
  H   H1119     1.0  0.90575  0.15186  0.34619  1.0000
  H   H1120     1.0  0.98924  0.11043  0.23138  1.0000
  H   H1121     1.0  0.90735  0.20360  0.01943  1.0000
  H   H1122     1.0  0.90729  0.20657  0.10710  1.0000
  H   H1123     1.0  0.87892  0.22815  0.11003  1.0000
  H   H1124     1.0  0.90816  0.23363  0.12806  1.0000
  H   H1125     1.0  0.81454  0.98993  0.03718  1.0000
  H   H1126     1.0  0.98788  0.21343  0.04489  1.0000
  S   S181      1.0  0.73405  0.03967  0.96585  1.0000
  C   C661      1.0  0.78826  0.01995  0.05061  1.0000
  H   H1127     1.0  0.70453  0.01997  0.04575  1.0000
  H   H1128     1.0  0.84693  0.27442  0.95161  1.0000
  Fe  Fe90      1.0  0.98802  0.17963  0.39084  1.0000
  H   H1129     1.0  0.74015  0.99683  0.43864  1.0000
  H   H1130     1.0  0.88939  0.44452  0.95231  1.0000
  H   H1131     1.0  0.93595  0.14120  0.25571  1.0000
  H   H1132     1.0  0.80596  0.06282  0.01953  1.0000
  H   H1133     1.0  0.95493  0.45653  0.41825  1.0000
  H   H1134     1.0  0.77135  0.01233  0.03952  1.0000
  S   S182      1.0  0.67259  0.10172  0.06418  1.0000
  H   H1135     1.0  0.78641  0.01155  0.06996  1.0000
  C   C662      1.0  0.90904  0.17011  0.30782  1.0000
  H   H1136     1.0  0.89994  0.18963  0.25677  1.0000
  H   H1137     1.0  0.91634  0.17458  0.23086  1.0000
  H   H1138     1.0  0.94970  0.10542  0.27378  1.0000
  H   H1139     1.0  0.69550  0.15793  0.39667  1.0000
  C   C663      1.0  0.93006  0.42020  0.97859  1.0000
  H   H1140     1.0  0.81774  0.26733  0.96938  1.0000
  H   H1141     1.0  0.78665  0.04138  0.05263  1.0000
  C   C664      1.0  0.81507  0.01158  0.03922  1.0000
  C   C665      1.0  0.90633  0.17050  0.24921  1.0000
  H   H1142     1.0  0.82994  0.01572  0.05424  1.0000
  N   N49       1.0  0.91529  0.14654  0.29170  1.0000
  H   H1143     1.0  0.69309  0.03795  0.00832  1.0000
  C   C666      1.0  0.89468  0.16490  0.33326  1.0000
  H   H1144     1.0  0.94246  0.17087  0.27063  1.0000
  H   H1145     1.0  0.92837  0.09020  0.29738  1.0000
  C   C667      1.0  0.89049  0.13050  0.28873  1.0000
  S   S183      1.0  0.98991  0.13805  0.40404  1.0000
  H   H1146     1.0  0.86499  0.02897  0.41556  1.0000
  H   H1147     1.0  0.96214  0.42472  0.95254  1.0000
  H   H1148     1.0  0.89597  0.18396  0.29754  1.0000
  H   H1149     1.0  0.96191  0.09720  0.30438  1.0000
  C   C668      1.0  0.93682  0.13146  0.30509  1.0000
  H   H1150     1.0  0.88621  0.11988  0.30676  1.0000
  C   C669      1.0  0.84287  0.06888  0.99976  1.0000
  H   H1151     1.0  0.78900  0.02139  0.95626  1.0000
  H   H1152     1.0  0.95527  0.14329  0.30607  1.0000
  C   C670      1.0  0.80913  0.02475  0.42521  1.0000
  H   H1153     1.0  0.80445  0.05026  0.96723  1.0000
  H   H1154     1.0  0.93446  0.18318  0.02892  1.0000
  H   H1155     1.0  0.70101  0.19601  0.42477  1.0000
  H   H1156     1.0  0.87448  0.15699  0.33040  1.0000
  H   H1157     1.0  0.87472  0.03401  0.03119  1.0000
  C   C671      1.0  0.94428  0.10467  0.29407  1.0000
  H   H1158     1.0  0.93144  0.12737  0.32499  1.0000
  H   H1159     1.0  0.86936  0.00049  0.04082  1.0000
  H   H1160     1.0  0.90855  0.41623  0.97953  1.0000
  C   C672      1.0  0.68348  0.02619  0.04654  1.0000
  H   H1161     1.0  0.79851  0.03392  0.40906  1.0000
  H   H1162     1.0  0.89702  0.02907  0.42943  1.0000
  H   H1163     1.0  0.67418  0.14343  0.43060  1.0000
  H   H1164     1.0  0.87458  0.00378  0.43821  1.0000
  Fe  Fe91      1.0  0.77695  0.10936  0.43254  1.0000
  H   H1165     1.0  0.69331  0.27626  0.96426  1.0000
  H   H1166     1.0  0.86231  0.07387  0.00833  1.0000
  H   H1167     1.0  0.67620  0.21391  0.40869  1.0000
  Fe  Fe92      1.0  0.98992  0.19446  0.10190  1.0000
  H   H1168     1.0  0.84476  0.99040  0.00233  1.0000
  C   C673      1.0  0.98824  0.23664  0.43232  1.0000
  C   C674      1.0  0.67547  0.03884  0.02093  1.0000
  C   C675      1.0  0.99059  0.23404  0.04218  1.0000
  C   C676      1.0  0.73501  0.96575  0.99579  1.0000
  Fe  Fe93      1.0  0.98450  0.15179  0.14218  1.0000
  H   H1169     1.0  0.68071  0.05816  0.97205  1.0000
  H   H1170     1.0  0.89014  0.00775  0.01449  1.0000
  H   H1171     1.0  0.98669  0.46063  0.02635  1.0000
  H   H1172     1.0  0.67205  0.00893  0.05241  1.0000
  C   C677      1.0  0.98982  0.24443  0.01759  1.0000
  C   C678      1.0  0.68677  0.17706  0.39159  1.0000
  C   C679      1.0  0.98953  0.14839  0.21367  1.0000
  H   H1173     1.0  0.98666  0.23160  0.00161  1.0000
  C   C680      1.0  0.99309  0.27122  0.01342  1.0000
  S   S184      1.0  0.99189  0.28255  0.98189  1.0000
  C   C681      1.0  0.99442  0.25036  0.06301  1.0000
  S   S185      1.0  0.99440  0.23783  0.09427  1.0000
  H   H1174     1.0  0.67293  0.20840  0.95092  1.0000
  C   C682      1.0  0.67323  0.23713  0.86934  1.0000
  Fe  Fe94      1.0  0.96921  0.35678  0.92513  1.0000
  S   S186      1.0  0.93438  0.36123  0.89744  1.0000
  Fe  Fe95      1.0  0.76293  0.26482  0.58180  1.0000
  S   S187      1.0  0.75884  0.30327  0.56204  1.0000
  S   S188      1.0  0.78159  0.23212  0.55910  1.0000
  Fe  Fe96      1.0  0.74984  0.28900  0.63372  1.0000
  S   S189      1.0  0.74499  0.32918  0.61695  1.0000
  S   S190      1.0  0.74484  0.27694  0.67538  1.0000
  Fe  Fe97      1.0  0.72214  0.30901  0.58572  1.0000
  C   C683      1.0  0.83781  0.08541  0.48170  1.0000
  Fe  Fe98      1.0  0.78190  0.31957  0.59455  1.0000
  S   S191      1.0  0.81540  0.34855  0.58781  1.0000
  S   S192      1.0  0.72484  0.26914  0.60365  1.0000
  S   S193      1.0  0.78804  0.28082  0.61326  1.0000
  Fe  Fe99      1.0  0.77862  0.31851  0.87719  1.0000
  S   S194      1.0  0.78123  0.28960  0.84517  1.0000
  S   S195      1.0  0.81186  0.32972  0.90499  1.0000
  Fe  Fe100     1.0  0.71629  0.31897  0.87526  1.0000
  S   S196      1.0  0.71547  0.29041  0.84287  1.0000
  S   S197      1.0  0.68143  0.32954  0.90146  1.0000
  Fe  Fe101     1.0  0.74736  0.26877  0.86430  1.0000
  S   S198      1.0  0.74577  0.22474  0.87032  1.0000
  Fe  Fe102     1.0  0.74926  0.31373  0.82628  1.0000
  S   S199      1.0  0.75217  0.32936  0.78538  1.0000
  S   S200      1.0  0.74663  0.29591  0.89711  1.0000
  S   S201      1.0  0.74826  0.34403  0.85776  1.0000
  Fe  Fe103     1.0  0.96733  0.33592  0.53938  1.0000
  S   S202      1.0  0.96909  0.35786  0.50224  1.0000
  S   S203      1.0  0.93222  0.31345  0.55637  1.0000
  H   H1175     1.0  0.89338  0.35699  0.85991  1.0000
  H   H1176     1.0  0.86606  0.41336  0.92472  1.0000
  H   H1177     1.0  0.84575  0.34490  0.86192  1.0000
  S   S204      1.0  0.70862  0.08558  0.45918  1.0000
  H   H1178     1.0  0.84737  0.05102  0.50233  1.0000
  C   C684      1.0  0.88464  0.33512  0.65078  1.0000
  S   S205      1.0  0.71371  0.14803  0.49960  1.0000
  H   H1179     1.0  0.83101  0.25880  0.67021  1.0000
  H   H1180     1.0  0.79392  0.32161  0.66782  1.0000
  H   H1181     1.0  0.80567  0.28125  0.52568  1.0000
  C   C685      1.0  0.75305  0.99389  0.47738  1.0000
  H   H1182     1.0  0.81978  0.32381  0.70522  1.0000
  H   H1183     1.0  0.82608  0.28040  0.69624  1.0000
  H   H1184     1.0  0.81505  0.28622  0.94118  1.0000
  H   H1185     1.0  0.81331  0.05317  0.49407  1.0000
  H   H1186     1.0  0.67345  0.22614  0.48434  1.0000
  C   C686      1.0  0.69174  0.26581  0.94591  1.0000
  S   S206      1.0  0.77019  0.09898  0.47348  1.0000
  C   C687      1.0  0.74455  0.21078  0.90106  1.0000
  C   C688      1.0  0.74679  0.22622  0.92270  1.0000
  H   H1187     1.0  0.76558  0.98415  0.51532  1.0000
  C   C689      1.0  0.74068  0.17214  0.92823  1.0000
  C   C690      1.0  0.74155  0.18366  0.90391  1.0000
  H   H1188     1.0  0.74928  0.24699  0.92091  1.0000
  H   H1189     1.0  0.88027  0.26967  0.91930  1.0000
  H   H1190     1.0  0.73988  0.17151  0.88726  1.0000
  C   C691      1.0  0.76228  0.20954  0.54199  1.0000
  C   C692      1.0  0.73472  0.20895  0.54418  1.0000
  C   C693      1.0  0.72006  0.19002  0.53099  1.0000
  C   C694      1.0  0.73282  0.17183  0.51530  1.0000
  C   C695      1.0  0.76032  0.17279  0.51268  1.0000
  C   C696      1.0  0.77500  0.19148  0.52614  1.0000
  H   H1191     1.0  0.72479  0.22272  0.55642  1.0000
  H   H1192     1.0  0.69881  0.18927  0.53320  1.0000
  H   H1193     1.0  0.77031  0.15883  0.50068  1.0000
  H   H1194     1.0  0.79632  0.19175  0.52448  1.0000
  C   C697      1.0  0.84802  0.33886  0.57944  1.0000
  C   C698      1.0  0.85753  0.31391  0.58516  1.0000
  C   C699      1.0  0.88369  0.30697  0.57889  1.0000
  C   C700      1.0  0.90045  0.32451  0.56610  1.0000
  C   C701      1.0  0.89106  0.34958  0.56065  1.0000
  C   C702      1.0  0.86506  0.35678  0.56756  1.0000
  H   H1195     1.0  0.84476  0.29996  0.59441  1.0000
  H   H1196     1.0  0.89093  0.28775  0.58377  1.0000
  H   H1197     1.0  0.90374  0.36335  0.55094  1.0000
  H   H1198     1.0  0.85798  0.37622  0.56326  1.0000
  C   C703      1.0  0.74861  0.29181  0.70573  1.0000
  C   C704      1.0  0.75395  0.31840  0.70871  1.0000
  C   C705      1.0  0.75517  0.32941  0.73319  1.0000
  C   C706      1.0  0.75121  0.31407  0.75506  1.0000
  C   C707      1.0  0.74611  0.28745  0.75207  1.0000
  C   C708      1.0  0.74478  0.27646  0.72758  1.0000
  H   H1199     1.0  0.75627  0.33070  0.69222  1.0000
  H   H1200     1.0  0.75893  0.35006  0.73526  1.0000
  H   H1201     1.0  0.74299  0.27536  0.76863  1.0000
  H   H1202     1.0  0.74057  0.25588  0.72559  1.0000
  C   C709      1.0  0.90094  0.35023  0.89960  1.0000
  C   C710      1.0  0.88956  0.34243  0.92258  1.0000
  C   C711      1.0  0.86237  0.33614  0.92375  1.0000
  C   C712      1.0  0.84626  0.33701  0.90195  1.0000
  C   C713      1.0  0.85781  0.34404  0.87885  1.0000
  C   C714      1.0  0.88487  0.35089  0.87778  1.0000
  H   H1203     1.0  0.80336  0.28010  0.66967  1.0000
  H   H1204     1.0  0.89676  0.35106  0.64244  1.0000
  H   H1205     1.0  0.83500  0.25499  0.85518  1.0000
  C   C715      1.0  0.89582  0.23024  0.53647  1.0000
  H   H1206     1.0  0.91400  0.28240  0.47406  1.0000
  Fe  Fe104     1.0  0.74769  0.06419  0.45876  1.0000
  C   C716      1.0  0.93898  0.43932  0.90807  1.0000
  H   H1207     1.0  0.81214  0.27368  0.89313  1.0000
  H   H1208     1.0  0.89182  0.27172  0.54101  1.0000
  H   H1209     1.0  0.69393  0.28238  0.69829  1.0000
  C   C717      1.0  0.80910  0.33322  0.65764  1.0000
  C   C718      1.0  0.85576  0.34456  0.65319  1.0000
  C   C719      1.0  0.80019  0.36199  0.65954  1.0000
  H   H1210     1.0  0.80727  0.32768  0.63738  1.0000
  H   H1211     1.0  0.84907  0.34777  0.63329  1.0000
  H   H1212     1.0  0.85635  0.36435  0.66182  1.0000
  H   H1213     1.0  0.81324  0.37529  0.64865  1.0000
  H   H1214     1.0  0.78017  0.36388  0.65106  1.0000
  H   H1215     1.0  0.79851  0.36857  0.67946  1.0000
  H   H1216     1.0  0.88617  0.31844  0.63745  1.0000
  C   C720      1.0  0.68269  0.33024  0.69611  1.0000
  H   H1217     1.0  0.79865  0.24333  0.93290  1.0000
  H   H1218     1.0  0.87728  0.34089  0.70907  1.0000
  H   H1219     1.0  0.86954  0.22399  0.89370  1.0000
  N   N50       1.0  0.86241  0.26031  0.51338  1.0000
  H   H1220     1.0  0.83138  0.18448  0.91036  1.0000
  C   C721      1.0  0.84194  0.29881  0.66137  1.0000
  H   H1221     1.0  0.88047  0.04007  0.47105  1.0000
  H   H1222     1.0  0.87155  0.30660  0.70323  1.0000
  C   C722      1.0  0.84807  0.28593  0.51674  1.0000
  H   H1223     1.0  0.82181  0.30551  0.54327  1.0000
  H   H1224     1.0  0.82742  0.09250  0.46456  1.0000
  H   H1225     1.0  0.90973  0.22986  0.52026  1.0000
  H   H1226     1.0  0.87214  0.00175  0.48967  1.0000
  H   H1227     1.0  0.92636  0.44932  0.89374  1.0000
  H   H1228     1.0  0.80112  0.19703  0.92436  1.0000
  H   H1229     1.0  0.98155  0.43958  0.91762  1.0000
  H   H1230     1.0  0.83982  0.29530  0.64064  1.0000
  H   H1231     1.0  0.82715  0.27232  0.55191  1.0000
  H   H1232     1.0  0.70444  0.32905  0.69312  1.0000
  C   C723      1.0  0.97942  0.24775  0.45512  1.0000
  H   H1233     1.0  0.82983  0.09653  0.49805  1.0000
  C   C724      1.0  0.86244  0.32495  0.70982  1.0000
  C   C725      1.0  0.82441  0.27877  0.67536  1.0000
  C   C726      1.0  0.83317  0.01071  0.47238  1.0000
  H   H1234     1.0  0.86195  0.30140  0.52328  1.0000
  C   C727      1.0  0.83710  0.33262  0.69531  1.0000
  H   H1235     1.0  0.80084  0.18330  0.89348  1.0000
  H   H1236     1.0  0.73827  0.15128  0.93026  1.0000
  H   H1237     1.0  0.81222  0.00864  0.47867  1.0000
  H   H1238     1.0  0.83546  0.99672  0.45654  1.0000
  C   C728      1.0  0.82058  0.24418  0.93499  1.0000
  H   H1239     1.0  0.67007  0.21615  0.87338  1.0000
  H   H1240     1.0  0.86560  0.25328  0.55384  1.0000
  H   H1241     1.0  0.89750  0.30123  0.49772  1.0000
  C   C729      1.0  0.81282  0.19536  0.90666  1.0000
  H   H1242     1.0  0.83458  0.24039  0.46864  1.0000
  H   H1243     1.0  0.68203  0.27352  0.88809  1.0000
  S   S207      1.0  0.99230  0.36512  0.56024  1.0000
  H   H1244     1.0  0.86708  0.26146  0.86961  1.0000
  C   C730      1.0  0.86637  0.04241  0.45501  1.0000
  H   H1245     1.0  0.85390  0.21955  0.50627  1.0000
  Fe  Fe105     1.0  0.73211  0.12089  0.47064  1.0000
  S   S208      1.0  0.99289  0.43022  0.52525  1.0000
  H   H1246     1.0  0.93858  0.41845  0.90228  1.0000
  H   H1247     1.0  0.85730  0.32118  0.72997  1.0000
  H   H1248     1.0  0.83118  0.23472  0.52698  1.0000
  H   H1249     1.0  0.89364  0.32984  0.66917  1.0000
  H   H1250     1.0  0.91868  0.27423  0.50653  1.0000
  C   C731      1.0  0.67810  0.32780  0.72498  1.0000
  S   S209      1.0  0.68708  0.32607  0.56344  1.0000
  H   H1251     1.0  0.90231  0.24343  0.91728  1.0000
  H   H1252     1.0  0.80031  0.05418  0.45201  1.0000
  C   C732      1.0  0.82398  0.24114  0.48702  1.0000
  H   H1253     1.0  0.84005  0.29277  0.49823  1.0000
  N   N51       1.0  0.83381  0.24141  0.90943  1.0000
  C   C733      1.0  0.84318  0.23818  0.50960  1.0000
  C   C734      1.0  0.83302  0.26701  0.89536  1.0000
  C   C735      1.0  0.98876  0.27222  0.46305  1.0000
  C   C736      1.0  0.86153  0.23087  0.91218  1.0000
  H   H1254     1.0  0.68635  0.30940  0.73284  1.0000
  C   C737      1.0  0.84595  0.26724  0.86890  1.0000
  H   H1255     1.0  0.69695  0.24597  0.90163  1.0000
  C   C738      1.0  0.67917  0.21000  0.47148  1.0000
  H   H1256     1.0  0.73213  0.99801  0.92957  1.0000
  H   H1257     1.0  0.90810  0.22981  0.55395  1.0000
  H   H1258     1.0  0.84277  0.28275  0.90612  1.0000
  C   C739      1.0  0.96766  0.44872  0.90405  1.0000
  N   N52       1.0  0.83657  0.32712  0.66727  1.0000
  H   H1259     1.0  0.68985  0.20991  0.92083  1.0000
  H   H1260     1.0  0.90154  0.34195  0.93956  1.0000
  H   H1261     1.0  0.82774  0.21787  0.87567  1.0000
  C   C740      1.0  0.81796  0.22213  0.89408  1.0000
  C   C741      1.0  0.83376  0.05593  0.48649  1.0000
  C   C742      1.0  0.67357  0.28373  0.69038  1.0000
  H   H1262     1.0  0.89367  0.39724  0.93878  1.0000
  C   C743      1.0  0.82456  0.28558  0.53552  1.0000
  H   H1263     1.0  0.67709  0.35055  0.69090  1.0000
  H   H1264     1.0  0.86262  0.29313  0.66566  1.0000
  C   C744      1.0  0.68021  0.31298  0.65334  1.0000
  C   C745      1.0  0.87851  0.25504  0.53689  1.0000
  H   H1265     1.0  0.83454  0.35384  0.69885  1.0000
  S   S210      1.0  0.75749  0.02787  0.48237  1.0000
  H   H1266     1.0  0.69117  0.23835  0.85727  1.0000
  H   H1267     1.0  0.84529  0.28750  0.86136  1.0000
  C   C746      1.0  0.75899  0.97651  0.49730  1.0000
  H   H1268     1.0  0.88365  0.21226  0.53667  1.0000
  C   C747      1.0  0.88003  0.26230  0.49037  1.0000
  C   C748      1.0  0.67597  0.33943  0.63992  1.0000
  H   H1269     1.0  0.68626  0.35558  0.64973  1.0000
  H   H1270     1.0  0.88975  0.45433  0.92027  1.0000
  H   H1271     1.0  0.84645  0.97904  0.49662  1.0000
  H   H1272     1.0  0.86850  0.26899  0.47359  1.0000
  H   H1273     1.0  0.93817  0.40211  0.94251  1.0000
  H   H1274     1.0  0.88793  0.24284  0.48491  1.0000
  H   H1275     1.0  0.70191  0.30919  0.65401  1.0000
  H   H1276     1.0  0.69434  0.97102  0.50471  1.0000
  C   C749      1.0  0.90374  0.28118  0.49265  1.0000
  H   H1277     1.0  0.86146  0.21288  0.92400  1.0000
  C   C750      1.0  0.85076  0.00013  0.49400  1.0000
  H   H1278     1.0  0.85911  0.09038  0.48015  1.0000
  N   N53       1.0  0.92809  0.44251  0.93454  1.0000
  H   H1279     1.0  0.85368  0.33081  0.94175  1.0000
  H   H1280     1.0  0.81193  0.25914  0.48802  1.0000
  N   N54       1.0  0.66855  0.31064  0.67958  1.0000
  H   H1281     1.0  0.68883  0.34385  0.73468  1.0000
  H   H1282     1.0  0.84619  0.00954  0.51238  1.0000
  H   H1283     1.0  0.97424  0.44309  0.88474  1.0000
  H   H1284     1.0  0.79827  0.23051  0.88913  1.0000
  H   H1285     1.0  0.69717  0.21641  0.46125  1.0000
  C   C751      1.0  0.67142  0.26036  0.67213  1.0000
  H   H1286     1.0  0.68813  0.26017  0.65846  1.0000
  H   H1287     1.0  0.68456  0.33838  0.62057  1.0000
  C   C752      1.0  0.67793  0.25298  0.89374  1.0000
  C   C753      1.0  0.89843  0.43981  0.93364  1.0000
  N   N55       1.0  0.83831  0.03842  0.46394  1.0000
  H   H1288     1.0  0.66560  0.18611  0.92555  1.0000
  H   H1289     1.0  0.80990  0.22450  0.48724  1.0000
  C   C754      1.0  0.88237  0.24886  0.92442  1.0000
  H   H1290     1.0  0.98178  0.28060  0.48061  1.0000
  H   H1291     1.0  0.89485  0.40772  0.90599  1.0000
  H   H1292     1.0  0.96533  0.23732  0.46676  1.0000
  C   C755      1.0  0.88803  0.41290  0.92530  1.0000
  H   H1293     1.0  0.69186  0.16184  0.45289  1.0000
  H   H1294     1.0  0.67053  0.97234  0.48026  1.0000
  C   C756      1.0  0.74470  0.98374  0.45416  1.0000
  H   H1295     1.0  0.70570  0.27563  0.93278  1.0000
  H   H1296     1.0  0.67308  0.24201  0.68327  1.0000
  H   H1297     1.0  0.67254  0.29796  0.64026  1.0000
  H   H1298     1.0  0.68417  0.19315  0.48372  1.0000
  H   H1299     1.0  0.66450  0.12844  0.47312  1.0000
  C   C757      1.0  0.67055  0.20669  0.93006  1.0000
  C   C758      1.0  0.66308  0.26790  0.93613  1.0000
  C   C759      1.0  0.74594  0.21478  0.94690  1.0000
  H   H1300     1.0  0.82593  0.22758  0.94765  1.0000
  C   C760      1.0  0.73290  0.98910  0.94816  1.0000
  H   H1301     1.0  0.88234  0.24675  0.94537  1.0000
  H   H1302     1.0  0.69815  0.24554  0.94929  1.0000
  C   C761      1.0  0.74280  0.18775  0.94984  1.0000
  C   C762      1.0  0.82575  0.26952  0.94990  1.0000
  H   H1303     1.0  0.72016  0.72428  0.44579  1.0000
  H   H1304     1.0  0.86072  0.58339  0.43615  1.0000
  H   H1305     1.0  0.82847  0.69976  0.08931  1.0000
  H   H1306     1.0  0.67392  0.66166  0.35561  1.0000
  C   C763      1.0  0.77374  0.76034  0.40680  1.0000
  Fe  Fe106     1.0  0.98124  0.61103  0.43172  1.0000
  S   S211      1.0  0.94436  0.62715  0.41146  1.0000
  Fe  Fe107     1.0  0.74525  0.65858  0.13667  1.0000
  S   S212      1.0  0.74283  0.61997  0.11615  1.0000
  S   S213      1.0  0.74645  0.66977  0.17878  1.0000
  Fe  Fe108     1.0  0.75038  0.68932  0.08691  1.0000
  S   S214      1.0  0.74823  0.65336  0.06326  1.0000
  S   S215      1.0  0.76038  0.72946  0.07160  1.0000
  Fe  Fe109     1.0  0.71506  0.64076  0.08916  1.0000
  S   S216      1.0  0.68112  0.62189  0.06690  1.0000
  Fe  Fe110     1.0  0.77605  0.63546  0.09162  1.0000
  S   S217      1.0  0.80972  0.61022  0.07612  1.0000
  S   S218      1.0  0.71540  0.67852  0.11102  1.0000
  S   S219      1.0  0.78031  0.67229  0.11380  1.0000
  Fe  Fe111     1.0  0.78920  0.62350  0.37849  1.0000
  S   S220      1.0  0.79656  0.65034  0.34551  1.0000
  S   S221      1.0  0.82075  0.60164  0.40163  1.0000
  Fe  Fe112     1.0  0.72859  0.63578  0.37901  1.0000
  S   S222      1.0  0.73252  0.66393  0.34633  1.0000
  S   S223      1.0  0.68964  0.63534  0.40135  1.0000
  Fe  Fe113     1.0  0.75909  0.63375  0.32857  1.0000
  S   S224      1.0  0.75362  0.61665  0.28870  1.0000
  Fe  Fe114     1.0  0.76919  0.67798  0.36606  1.0000
  S   S225      1.0  0.77979  0.72041  0.37247  1.0000
  S   S226      1.0  0.75330  0.60464  0.36053  1.0000
  S   S227      1.0  0.76384  0.65202  0.39971  1.0000
  H   H1307     1.0  0.70339  0.62401  0.31652  1.0000
  C   C764      1.0  0.99253  0.46883  0.00829  1.0000
  H   H1308     1.0  0.69552  0.66603  0.03180  1.0000
  C   C765      1.0  0.95367  0.55544  0.37843  1.0000
  C   C766      1.0  0.67635  0.67608  0.02842  1.0000
  H   H1309     1.0  0.73644  0.94885  0.43275  1.0000
  Fe  Fe115     1.0  0.96813  0.61074  0.04154  1.0000
  S   S228      1.0  0.93519  0.62522  0.06814  1.0000
  S   S229      1.0  0.96819  0.61014  0.99877  1.0000
  S   S230      1.0  0.70615  0.78364  0.97631  1.0000
  C   C767      1.0  0.95889  0.52981  0.39309  1.0000
  H   H1310     1.0  0.90479  0.64329  0.37588  1.0000
  H   H1311     1.0  0.68533  0.70226  0.05919  1.0000
  H   H1312     1.0  0.93423  0.55531  0.36868  1.0000
  H   H1313     1.0  0.80891  0.69483  0.41109  1.0000
  C   C768      1.0  0.76534  0.73543  0.39922  1.0000
  C   C769      1.0  0.74596  0.72257  0.41339  1.0000
  H   H1314     1.0  0.82180  0.66311  0.41030  1.0000
  H   H1315     1.0  0.78859  0.77048  0.39581  1.0000
  C   C770      1.0  0.68015  0.62521  0.26912  1.0000
  H   H1316     1.0  0.73900  0.70360  0.40755  1.0000
  H   H1317     1.0  0.78088  0.68488  0.44189  1.0000
  H   H1318     1.0  0.87097  0.71590  0.43029  1.0000
  C   C771      1.0  0.74570  0.74383  0.04454  1.0000
  C   C772      1.0  0.75274  0.76940  0.03778  1.0000
  C   C773      1.0  0.74131  0.78161  0.01651  1.0000
  C   C774      1.0  0.72253  0.76838  0.00198  1.0000
  C   C775      1.0  0.71589  0.74259  0.00843  1.0000
  C   C776      1.0  0.72766  0.73025  0.02948  1.0000
  H   H1319     1.0  0.76691  0.77995  0.04920  1.0000
  H   H1320     1.0  0.74660  0.80146  0.01169  1.0000
  H   H1321     1.0  0.70174  0.73212  0.99696  1.0000
  H   H1322     1.0  0.72303  0.71023  0.03397  1.0000
  C   C777      1.0  0.84437  0.61578  0.07313  1.0000
  C   C778      1.0  0.85751  0.63504  0.08701  1.0000
  C   C779      1.0  0.88520  0.63788  0.08488  1.0000
  C   C780      1.0  0.90012  0.62172  0.06870  1.0000
  C   C781      1.0  0.88690  0.60284  0.05444  1.0000
  C   C782      1.0  0.85924  0.59977  0.05683  1.0000
  H   H1323     1.0  0.84638  0.64760  0.09949  1.0000
  H   H1324     1.0  0.89523  0.65257  0.09598  1.0000
  H   H1325     1.0  0.89806  0.59019  0.04202  1.0000
  H   H1326     1.0  0.84933  0.58473  0.04608  1.0000
  C   C783      1.0  0.74778  0.65439  0.20912  1.0000
  C   C784      1.0  0.74633  0.62732  0.21224  1.0000
  C   C785      1.0  0.74823  0.61618  0.23670  1.0000
  C   C786      1.0  0.75157  0.63188  0.25835  1.0000
  C   C787      1.0  0.75284  0.65893  0.25523  1.0000
  C   C788      1.0  0.75094  0.67006  0.23079  1.0000
  H   H1327     1.0  0.74370  0.61498  0.19585  1.0000
  H   H1328     1.0  0.74707  0.59523  0.23888  1.0000
  H   H1329     1.0  0.75537  0.67130  0.27163  1.0000
  H   H1330     1.0  0.75211  0.69102  0.22865  1.0000
  C   C789      1.0  0.91030  0.61864  0.40862  1.0000
  C   C790      1.0  0.89760  0.60181  0.42562  1.0000
  C   C791      1.0  0.87038  0.59626  0.42278  1.0000
  C   C792      1.0  0.85535  0.60792  0.40331  1.0000
  C   C793      1.0  0.86800  0.62485  0.38643  1.0000
  C   C794      1.0  0.89527  0.63013  0.38908  1.0000
  H   H1331     1.0  0.94076  0.47262  0.39139  1.0000
  H   H1332     1.0  0.95510  0.57295  0.39056  1.0000
  H   H1333     1.0  0.85677  0.63387  0.37129  1.0000
  H   H1334     1.0  0.68625  0.64596  0.26833  1.0000
  H   H1335     1.0  0.84731  0.75357  0.42674  1.0000
  H   H1336     1.0  0.96166  0.49841  0.44002  1.0000
  H   H1337     1.0  0.97480  0.47877  0.40069  1.0000
  H   H1338     1.0  0.68502  0.66340  0.30790  1.0000
  H   H1339     1.0  0.91846  0.50682  0.36849  1.0000
  H   H1340     1.0  0.76971  0.79128  0.43442  1.0000
  C   C795      1.0  0.73523  0.73440  0.43505  1.0000
  C   C796      1.0  0.95433  0.47526  0.40760  1.0000
  H   H1341     1.0  0.85383  0.64757  0.43754  1.0000
  C   C797      1.0  0.94551  0.49715  0.42570  1.0000
  N   N56       1.0  0.93977  0.52369  0.41427  1.0000
  S   S231      1.0  0.75913  0.84460  0.96284  1.0000
  H   H1342     1.0  0.89033  0.70711  0.02673  1.0000
  H   H1343     1.0  0.84888  0.71324  0.38994  1.0000
  H   H1344     1.0  0.97955  0.53048  0.40051  1.0000
  N   N57       1.0  0.82345  0.69339  0.02322  1.0000
  C   C798      1.0  0.80002  0.71100  0.01846  1.0000
  C   C799      1.0  0.82313  0.68569  0.05082  1.0000
  C   C800      1.0  0.82213  0.66909  0.00729  1.0000
  C   C801      1.0  0.84840  0.70786  0.01643  1.0000
  C   C802      1.0  0.79444  0.71832  0.99060  1.0000
  C   C803      1.0  0.83179  0.70694  0.06971  1.0000
  C   C804      1.0  0.79710  0.65234  0.01082  1.0000
  C   C805      1.0  0.87466  0.69304  0.02123  1.0000
  H   H1345     1.0  0.78153  0.70228  0.02616  1.0000
  H   H1346     1.0  0.80233  0.72972  0.02886  1.0000
  H   H1347     1.0  0.83560  0.66825  0.05426  1.0000
  H   H1348     1.0  0.80295  0.67944  0.05672  1.0000
  H   H1349     1.0  0.82418  0.67381  0.98679  1.0000
  H   H1350     1.0  0.83919  0.65599  0.01160  1.0000
  H   H1351     1.0  0.84854  0.71286  0.99591  1.0000
  H   H1352     1.0  0.84935  0.72724  0.02587  1.0000
  H   H1353     1.0  0.77684  0.73136  0.99000  1.0000
  H   H1354     1.0  0.81095  0.72938  0.98192  1.0000
  H   H1355     1.0  0.78956  0.70107  0.97890  1.0000
  H   H1356     1.0  0.85319  0.71134  0.06804  1.0000
  C   C806      1.0  0.73400  0.94970  0.97416  1.0000
  H   H1357     1.0  0.68687  0.62093  0.34584  1.0000
  H   H1358     1.0  0.79805  0.63544  0.99772  1.0000
  H   H1359     1.0  0.77869  0.66318  0.00638  1.0000
  H   H1360     1.0  0.79600  0.64416  0.03027  1.0000
  H   H1361     1.0  0.90849  0.59368  0.44138  1.0000
  H   H1362     1.0  0.87362  0.67869  0.03690  1.0000
  H   H1363     1.0  0.89781  0.51992  0.42154  1.0000
  N   N58       1.0  0.83214  0.62241  0.17006  1.0000
  C   C807      1.0  0.85719  0.63585  0.16144  1.0000
  C   C808      1.0  0.81266  0.64350  0.17710  1.0000
  C   C809      1.0  0.82144  0.60740  0.14773  1.0000
  C   C810      1.0  0.83868  0.60445  0.19194  1.0000
  C   C811      1.0  0.87962  0.61798  0.15170  1.0000
  C   C812      1.0  0.82147  0.66212  0.19842  1.0000
  C   C813      1.0  0.79588  0.59178  0.15205  1.0000
  C   C814      1.0  0.81574  0.59713  0.21012  1.0000
  H   H1364     1.0  0.85278  0.65028  0.14615  1.0000
  H   H1365     1.0  0.86613  0.64722  0.17719  1.0000
  H   H1366     1.0  0.79336  0.63542  0.18286  1.0000
  H   H1367     1.0  0.80792  0.65584  0.16030  1.0000
  H   H1368     1.0  0.81779  0.62084  0.13144  1.0000
  H   H1369     1.0  0.83597  0.59276  0.14089  1.0000
  H   H1370     1.0  0.84748  0.58595  0.18480  1.0000
  H   H1371     1.0  0.85412  0.61355  0.20414  1.0000
  H   H1372     1.0  0.87488  0.60921  0.13306  1.0000
  H   H1373     1.0  0.89769  0.62992  0.14862  1.0000
  H   H1374     1.0  0.88488  0.60246  0.16547  1.0000
  H   H1375     1.0  0.80412  0.67377  0.20470  1.0000
  H   H1376     1.0  0.82920  0.65165  0.21523  1.0000
  H   H1377     1.0  0.78956  0.58333  0.13363  1.0000
  H   H1378     1.0  0.77924  0.60400  0.15879  1.0000
  H   H1379     1.0  0.79926  0.57506  0.16502  1.0000
  H   H1380     1.0  0.81853  0.57669  0.21665  1.0000
  H   H1381     1.0  0.79568  0.59816  0.20194  1.0000
  H   H1382     1.0  0.81642  0.60912  0.22763  1.0000
  C   C815      1.0  0.99221  0.49615  0.00489  1.0000
  H   H1383     1.0  0.86339  0.68096  0.38861  1.0000
  C   C816      1.0  0.66822  0.69017  0.05297  1.0000
  C   C817      1.0  0.86196  0.66743  0.44086  1.0000
  H   H1384     1.0  0.73578  0.95679  0.01436  1.0000
  H   H1385     1.0  0.66472  0.74015  0.03804  1.0000
  H   H1386     1.0  0.95933  0.51435  0.37850  1.0000
  H   H1387     1.0  0.69743  0.61303  0.27430  1.0000
  C   C818      1.0  0.82765  0.68389  0.41299  1.0000
  C   C819      1.0  0.84467  0.69204  0.39000  1.0000
  H   H1388     1.0  0.87743  0.67036  0.42617  1.0000
  C   C820      1.0  0.90306  0.50855  0.38324  1.0000
  C   C821      1.0  0.76314  0.77212  0.42867  1.0000
  H   H1389     1.0  0.88598  0.51788  0.37348  1.0000
  H   H1390     1.0  0.81923  0.73415  0.42182  1.0000
  H   H1391     1.0  0.90547  0.54620  0.40182  1.0000
  S   S232      1.0  0.73399  0.91512  0.97828  1.0000
  C   C822      1.0  0.66485  0.65823  0.31478  1.0000
  H   H1392     1.0  0.98597  0.50874  0.02019  1.0000
  C   C823      1.0  0.68653  0.58623  0.32323  1.0000
  C   C824      1.0  0.85254  0.71418  0.44177  1.0000
  H   H1393     1.0  0.70521  0.57950  0.33226  1.0000
  C   C825      1.0  0.91133  0.52563  0.40587  1.0000
  H   H1394     1.0  0.82011  0.72511  0.06749  1.0000
  H   H1395     1.0  0.83639  0.67631  0.19153  1.0000
  H   H1396     1.0  0.96904  0.55770  0.36354  1.0000
  N   N59       1.0  0.84024  0.68761  0.43866  1.0000
  C   C826      1.0  0.68504  0.61622  0.32535  1.0000
  C   C827      1.0  0.74378  0.75914  0.44282  1.0000
  H   H1397     1.0  0.83336  0.68802  0.37240  1.0000
  H   H1398     1.0  0.92802  0.48973  0.43634  1.0000
  H   H1399     1.0  0.88111  0.68256  0.00389  1.0000
  Fe  Fe116     1.0  0.72232  0.82047  0.95759  1.0000
  H   H1400     1.0  0.66638  0.67451  0.06737  1.0000
  H   H1401     1.0  0.89709  0.48878  0.38970  1.0000
  H   H1402     1.0  0.66209  0.66052  0.02343  1.0000
  H   H1403     1.0  0.93988  0.56370  0.42777  1.0000
  C   C828      1.0  0.83506  0.73811  0.43567  1.0000
  H   H1404     1.0  0.68729  0.57954  0.30331  1.0000
  C   C829      1.0  0.94427  0.54373  0.43471  1.0000
  H   H1405     1.0  0.67462  0.58464  0.37943  1.0000
  H   H1406     1.0  0.96549  0.54402  0.44028  1.0000
  H   H1407     1.0  0.67969  0.68940  0.01223  1.0000
  H   H1408     1.0  0.67439  0.61952  0.24959  1.0000
  H   H1409     1.0  0.66832  0.69188  0.33967  1.0000
  H   H1410     1.0  0.92600  0.47107  0.96463  1.0000
  H   H1411     1.0  0.67018  0.57634  0.33335  1.0000
  Fe  Fe117     1.0  0.73300  0.87915  0.95209  1.0000
  C   C830      1.0  0.66169  0.67127  0.34092  1.0000
  H   H1412     1.0  0.67073  0.96314  0.99530  1.0000
  C   C831      1.0  0.73290  0.96161  0.95029  1.0000
  C   C832      1.0  0.69414  0.91184  0.52317  1.0000
  H   H1413     1.0  0.67101  0.69736  0.47145  1.0000
  H   H1414     1.0  0.88190  0.81352  0.46952  1.0000
  S   S233      1.0  0.73088  0.81413  0.91659  1.0000
  H   H1415     1.0  0.69700  0.89083  0.52785  1.0000
  S   S234      1.0  0.74183  0.87607  0.91008  1.0000
  H   H1416     1.0  0.79288  0.71568  0.45377  1.0000
  Fe  Fe118     1.0  0.70612  0.84939  0.90879  1.0000
  S   S235      1.0  0.67855  0.84319  0.87475  1.0000
  Fe  Fe119     1.0  0.76607  0.84052  0.92077  1.0000
  S   S236      1.0  0.80114  0.82243  0.89904  1.0000
  C   C833      1.0  0.90860  0.76290  0.54890  1.0000
  H   H1417     1.0  0.87025  0.78338  0.51359  1.0000
  H   H1418     1.0  0.72835  0.92572  0.54426  1.0000
  C   C834      1.0  0.90344  0.76568  0.46477  1.0000
  H   H1419     1.0  0.99263  0.68641  0.60216  1.0000
  H   H1420     1.0  0.93283  0.81137  0.79873  1.0000
  Fe  Fe120     1.0  0.96538  0.82001  0.59046  1.0000
  S   S237      1.0  0.93184  0.84804  0.57920  1.0000
  S   S238      1.0  0.95999  0.78071  0.60853  1.0000
  S   S239      1.0  0.98504  0.58857  0.46841  1.0000
  H   H1421     1.0  0.89986  0.74959  0.50161  1.0000
  H   H1422     1.0  0.85938  0.71695  0.46161  1.0000
  C   C835      1.0  0.98166  0.67091  0.64987  1.0000
  S   S240      1.0  0.67958  0.84176  0.55951  1.0000
  H   H1423     1.0  0.66904  0.76478  0.45635  1.0000
  Fe  Fe121     1.0  0.96069  0.81523  0.87248  1.0000
  S   S241      1.0  0.92651  0.83930  0.88932  1.0000
  S   S242      1.0  0.95789  0.78403  0.84278  1.0000
  Fe  Fe122     1.0  0.71528  0.84160  0.53264  1.0000
  S   S243      1.0  0.71165  0.84418  0.49054  1.0000
  C   C836      1.0  0.75670  0.94930  0.49409  1.0000
  Fe  Fe123     1.0  0.77680  0.83457  0.52990  1.0000
  S   S244      1.0  0.77661  0.83655  0.48714  1.0000
  S   S245      1.0  0.81145  0.81887  0.55378  1.0000
  Fe  Fe124     1.0  0.74774  0.87009  0.49237  1.0000
  S   S246      1.0  0.74588  0.90506  0.46535  1.0000
  Fe  Fe125     1.0  0.74060  0.81094  0.48902  1.0000
  S   S247      1.0  0.72937  0.77285  0.47019  1.0000
  S   S248      1.0  0.74993  0.86957  0.53513  1.0000
  S   S249      1.0  0.74218  0.80693  0.53124  1.0000
  C   C837      1.0  0.74867  0.93914  0.47077  1.0000
  C   C838      1.0  0.93656  0.86258  0.81887  1.0000
  H   H1424     1.0  0.94349  0.67504  0.61403  1.0000
  H   H1425     1.0  0.76162  0.93620  0.50948  1.0000
  H   H1426     1.0  0.90113  0.87175  0.85304  1.0000
  C   C839      1.0  0.89794  0.84039  0.57344  1.0000
  C   C840      1.0  0.88654  0.81717  0.58208  1.0000
  C   C841      1.0  0.85993  0.81133  0.57630  1.0000
  C   C842      1.0  0.84432  0.82846  0.56167  1.0000
  C   C843      1.0  0.85558  0.85188  0.55329  1.0000
  C   C844      1.0  0.88216  0.85786  0.55933  1.0000
  H   H1427     1.0  0.89823  0.80372  0.59327  1.0000
  H   H1428     1.0  0.85140  0.79326  0.58306  1.0000
  H   H1429     1.0  0.84386  0.86532  0.54213  1.0000
  H   H1430     1.0  0.89068  0.87598  0.55272  1.0000
  S   S250      1.0  0.69564  0.85477  0.94977  1.0000
  H   H1431     1.0  0.94440  0.77770  0.53181  1.0000
  H   H1432     1.0  0.91673  0.76286  0.56846  1.0000
  H   H1433     1.0  0.94364  0.84960  0.49642  1.0000
  C   C845      1.0  0.93466  0.46886  0.94539  1.0000
  H   H1434     1.0  0.87390  0.83764  0.49331  1.0000
  H   H1435     1.0  0.69260  0.94550  0.48128  1.0000
  H   H1436     1.0  0.93315  0.75606  0.49261  1.0000
  C   C846      1.0  0.83610  0.82713  0.89767  1.0000
  C   C847      1.0  0.84850  0.84930  0.90745  1.0000
  C   C848      1.0  0.87615  0.85250  0.90490  1.0000
  C   C849      1.0  0.89186  0.83351  0.89283  1.0000
  C   C850      1.0  0.87945  0.81129  0.88314  1.0000
  C   C851      1.0  0.85177  0.80827  0.88535  1.0000
  H   H1437     1.0  0.83680  0.86405  0.91688  1.0000
  H   H1438     1.0  0.88547  0.86979  0.91247  1.0000
  H   H1439     1.0  0.89119  0.79637  0.87400  1.0000
  H   H1440     1.0  0.84247  0.79097  0.87779  1.0000
  C   C852      1.0  0.89324  0.87580  0.83372  1.0000
  H   H1441     1.0  0.90643  0.74619  0.45607  1.0000
  H   H1442     1.0  0.67979  0.74206  0.55437  1.0000
  H   H1443     1.0  0.93235  0.84643  0.76898  1.0000
  H   H1444     1.0  0.94736  0.83280  0.52572  1.0000
  H   H1445     1.0  0.93208  0.52112  0.46867  1.0000
  H   H1446     1.0  0.98241  0.65781  0.49763  1.0000
  H   H1447     1.0  0.85329  0.87387  0.81643  1.0000
  H   H1448     1.0  0.91503  0.84356  0.51551  1.0000
  Fe  Fe126     1.0  0.98625  0.76574  0.57739  1.0000
  H   H1449     1.0  0.70019  0.91987  0.56371  1.0000
  H   H1450     1.0  0.70671  0.91508  0.50632  1.0000
  H   H1451     1.0  0.96778  0.73694  0.64626  1.0000
  H   H1452     1.0  0.88712  0.76690  0.55047  1.0000
  H   H1453     1.0  0.88195  0.76991  0.46353  1.0000
  H   H1454     1.0  0.94155  0.90251  0.83328  1.0000
  N   N60       1.0  0.75238  0.82052  0.83047  1.0000
  C   C853      1.0  0.75456  0.79518  0.84514  1.0000
  C   C854      1.0  0.77739  0.82354  0.81517  1.0000
  C   C855      1.0  0.72854  0.81874  0.81321  1.0000
  C   C856      1.0  0.74913  0.84220  0.84944  1.0000
  C   C857      1.0  0.72848  0.78419  0.85616  1.0000
  C   C858      1.0  0.80332  0.82492  0.83057  1.0000
  C   C859      1.0  0.72794  0.83655  0.78958  1.0000
  C   C860      1.0  0.74716  0.87024  0.83911  1.0000
  H   H1455     1.0  0.76310  0.77944  0.83311  1.0000
  H   H1456     1.0  0.76842  0.79720  0.86143  1.0000
  H   H1457     1.0  0.77700  0.84129  0.80317  1.0000
  H   H1458     1.0  0.77934  0.80704  0.80158  1.0000
  H   H1459     1.0  0.72668  0.79862  0.80546  1.0000
  H   H1460     1.0  0.70997  0.82249  0.82406  1.0000
  H   H1461     1.0  0.73104  0.83917  0.86087  1.0000
  H   H1462     1.0  0.76486  0.84182  0.86410  1.0000
  H   H1463     1.0  0.71640  0.77460  0.84132  1.0000
  H   H1464     1.0  0.73321  0.76909  0.87063  1.0000
  H   H1465     1.0  0.71625  0.79923  0.86551  1.0000
  H   H1466     1.0  0.80378  0.84216  0.84322  1.0000
  H   H1467     1.0  0.80689  0.80698  0.84185  1.0000
  H   H1468     1.0  0.82026  0.82688  0.81731  1.0000
  H   H1469     1.0  0.74321  0.83073  0.77556  1.0000
  H   H1470     1.0  0.72997  0.85745  0.79405  1.0000
  H   H1471     1.0  0.70848  0.83427  0.78003  1.0000
  H   H1472     1.0  0.72630  0.87524  0.83448  1.0000
  H   H1473     1.0  0.76005  0.87403  0.82264  1.0000
  H   H1474     1.0  0.75425  0.88400  0.85385  1.0000
  H   H1475     1.0  0.90492  0.49907  0.93715  1.0000
  H   H1476     1.0  0.85145  0.81236  0.48637  1.0000
  C   C861      1.0  0.92331  0.78382  0.53320  1.0000
  C   C862      1.0  0.69035  0.75781  0.54429  1.0000
  H   H1477     1.0  0.91198  0.74300  0.54137  1.0000
  C   C863      1.0  0.82042  0.68211  0.45945  1.0000
  S   S251      1.0  0.98982  0.80455  0.55841  1.0000
  H   H1478     1.0  0.85741  0.85433  0.84505  1.0000
  H   H1479     1.0  0.99149  0.64260  0.67922  1.0000
  N   N61       1.0  0.90733  0.85942  0.81410  1.0000
  H   H1480     1.0  0.90231  0.81362  0.78061  1.0000
  H   H1481     1.0  0.95069  0.80046  0.49260  1.0000
  H   H1482     1.0  0.78157  0.69113  0.47486  1.0000
  N   N62       1.0  0.91221  0.78964  0.50721  1.0000
  H   H1483     1.0  0.94486  0.71102  0.64968  1.0000
  H   H1484     1.0  0.87922  0.86027  0.78317  1.0000
  H   H1485     1.0  0.92889  0.88009  0.75979  1.0000
  C   C864      1.0  0.92463  0.49270  0.93017  1.0000
  H   H1486     1.0  0.66252  0.91934  0.46202  1.0000
  C   C865      1.0  0.93406  0.83513  0.50913  1.0000
  H   H1487     1.0  0.99001  0.48594  0.52782  1.0000
  H   H1488     1.0  0.95464  0.73478  0.68935  1.0000
  H   H1489     1.0  0.92429  0.81420  0.47542  1.0000
  C   C866      1.0  0.89897  0.86846  0.78803  1.0000
  H   H1490     1.0  0.93723  0.70939  0.60770  1.0000
  C   C867      1.0  0.89990  0.83129  0.81856  1.0000
  H   H1491     1.0  0.86356  0.66096  0.48235  1.0000
  H   H1492     1.0  0.89637  0.89004  0.78787  1.0000
  Fe  Fe127     1.0  0.99147  0.80483  0.82303  1.0000
  H   H1493     1.0  0.66385  0.78773  0.52975  1.0000
  H   H1494     1.0  0.68921  0.77856  0.50941  1.0000
  C   C868      1.0  0.96715  0.71824  0.68286  1.0000
  C   C869      1.0  0.97756  0.69162  0.52154  1.0000
  C   C870      1.0  0.98841  0.70685  0.54100  1.0000
  H   H1495     1.0  0.90612  0.85646  0.74892  1.0000
  H   H1496     1.0  0.95080  0.68897  0.58380  1.0000
  H   H1497     1.0  0.70177  0.94872  0.54380  1.0000
  H   H1498     1.0  0.92314  0.48914  0.90957  1.0000
  H   H1499     1.0  0.88312  0.81216  0.52722  1.0000
  H   H1500     1.0  0.96936  0.88980  0.81661  1.0000
  H   H1501     1.0  0.73210  0.94963  0.93347  1.0000
  S   S252      1.0  0.97007  0.73359  0.55235  1.0000
  S   S253      1.0  0.99044  0.79330  0.89606  1.0000
  H   H1502     1.0  0.94158  0.85552  0.83824  1.0000
  H   H1503     1.0  0.96928  0.47024  0.90536  1.0000
  C   C871      1.0  0.96562  0.71672  0.65376  1.0000
  H   H1504     1.0  0.87814  0.82852  0.81777  1.0000
  H   H1505     1.0  0.90541  0.79130  0.80635  1.0000
  H   H1506     1.0  0.90618  0.82509  0.83789  1.0000
  H   H1507     1.0  0.95868  0.69695  0.51336  1.0000
  H   H1508     1.0  0.85469  0.88874  0.84709  1.0000
  C   C872      1.0  0.91275  0.76446  0.49251  1.0000
  H   H1509     1.0  0.82829  0.68848  0.47813  1.0000
  H   H1510     1.0  0.82604  0.74623  0.45315  1.0000
  C   C873      1.0  0.91796  0.86231  0.76571  1.0000
  H   H1511     1.0  0.94109  0.90044  0.79896  1.0000
  H   H1512     1.0  0.95898  0.70039  0.69179  1.0000
  H   H1513     1.0  0.92350  0.80157  0.54516  1.0000
  H   H1514     1.0  0.96049  0.66690  0.65428  1.0000
  C   C874      1.0  0.99391  0.72443  0.92581  1.0000
  H   H1515     1.0  0.94868  0.85025  0.80631  1.0000
  C   C875      1.0  0.91099  0.81115  0.79977  1.0000
  C   C876      1.0  0.87293  0.81662  0.48832  1.0000
  C   C877      1.0  0.86290  0.87275  0.83527  1.0000
  C   C878      1.0  0.68079  0.95865  0.49333  1.0000
  H   H1516     1.0  0.98731  0.72223  0.68999  1.0000
  H   H1517     1.0  0.68888  0.73912  0.48554  1.0000
  H   H1518     1.0  0.93410  0.55545  0.47304  1.0000
  C   C879      1.0  0.70648  0.92767  0.54502  1.0000
  H   H1519     1.0  0.89696  0.89692  0.83043  1.0000
  H   H1520     1.0  0.93886  0.50906  0.93238  1.0000
  C   C880      1.0  0.88430  0.79972  0.51012  1.0000
  C   C881      1.0  0.93056  0.80910  0.49488  1.0000
  C   C882      1.0  0.95100  0.69282  0.60451  1.0000
  H   H1521     1.0  0.68987  0.89845  0.47182  1.0000
  N   N63       1.0  0.66529  0.91719  0.51797  1.0000
  C   C883      1.0  0.94737  0.89060  0.81666  1.0000
  H   H1522     1.0  0.98687  0.65681  0.63462  1.0000
  C   C884      1.0  0.97942  0.69992  0.61274  1.0000
  N   N64       1.0  0.98501  0.69871  0.64084  1.0000
  H   H1523     1.0  0.98373  0.71979  0.60515  1.0000
  C   C885      1.0  0.66813  0.90082  0.47150  1.0000
  C   C886      1.0  0.92813  0.54014  0.45934  1.0000
  H   H1524     1.0  0.70946  0.75002  0.53710  1.0000
  H   H1525     1.0  0.89203  0.65054  0.46525  1.0000
  H   H1526     1.0  0.90661  0.54270  0.45612  1.0000
  H   H1527     1.0  0.68163  0.71865  0.51135  1.0000
  H   H1528     1.0  0.88755  0.68452  0.47056  1.0000
  C   C887      1.0  0.99092  0.66943  0.51264  1.0000
  C   C888      1.0  0.87682  0.66619  0.46640  1.0000
  C   C889      1.0  0.67422  0.77019  0.52249  1.0000
  Fe  Fe128     1.0  0.99002  0.76357  0.86514  1.0000
  C   C890      1.0  0.67208  0.73092  0.49649  1.0000
  C   C891      1.0  0.79264  0.69442  0.45696  1.0000
  H   H1529     1.0  0.81691  0.66068  0.46117  1.0000
  H   H1530     1.0  0.69448  0.77293  0.55882  1.0000
  H   H1531     1.0  0.67203  0.79467  0.47433  1.0000
  H   H1532     1.0  0.98422  0.82441  0.68884  1.0000
  H   H1533     1.0  0.99110  0.74510  0.92317  1.0000
  H   H1534     1.0  0.97791  0.84139  0.73254  1.0000
  C   C892      1.0  0.98540  0.82183  0.72987  1.0000
  C   C893      1.0  0.99363  0.70777  0.90488  1.0000
  C   C894      1.0  0.99165  0.80646  0.75124  1.0000
  H   H1535     1.0  0.91497  0.77963  0.45316  1.0000
  S   S254      1.0  0.98703  0.81995  0.78210  1.0000
  C   C895      1.0  0.98898  0.81225  0.70500  1.0000
  S   S255      1.0  0.99068  0.72000  0.87354  1.0000
  S   S256      1.0  0.99305  0.83718  0.85212  1.0000
  H   H1536     1.0  0.95624  0.47105  0.94880  1.0000
  C   C896      1.0  0.74265  0.95652  0.45088  1.0000
