data_image0
_chemical_formula_structural       H3CHCHSC2HSC2H3CHCHCSH2CHC4NC2HSCH2C3SC3HSHCH3CHCH4CH7CHCFeCH4CH3CHCHC2SFeCHFeCNH3FeHFeHC3HCH5CH4SHSHC5HSCH3CHCHNHC3H2NHCSH2NH4SH5C2H2SC2H4CHCHNHCH2FeNHCH3CH2C2HCH3CFeHNCH2CH5C2HCH6CHCHCH2CSHCH3CHS2CH2CFeC4HS2H2CH3SH4SH2CHFeSCH7CH4CFeHCH2FeSHSH4SH3FeH2SCHFeH5CH3SCHC3H2CHCH3CSFeCH3FeSCHCH3FeNC3H3C2H6SH2C2HCH2CH2C2S2HCHC2H4NCH2SHCH2NHC3H3FeHCSCSCH4CH2FeH2C2FeSH5CHC2NCH3CHSH2FeC2HC3HCHFeC3NCH2CHC2H2CHCHC4HSH2CHS2H7SH4SH2FeHC2HC3FeH2CHSH2CH3CSH2CH2C2H2CHSHSHCHC2SC2HC2H3CHSH2CHNH6CSH2NC2HCH3SH2C2HCHCFeHNCH2CHNCH2C2HCH2C4SC2FeCSH6C2H2CHCH2C4NH3FeH4SHNFeHSH2CH4FeH3CH3CHCH2CHC3HC3H3CHCH4CHCSH4SCHC3H2SHC2H3CHCSHC2HCH2CHC2NCHC2H2CH5CHFeH7CH2CHFeCH2CH2C2HCSC4HCHNHCH2NH3CH3SH2CH2C2H2SH3S2C2H2CH2CH2CSHCSH4CHSH2CH3C3H3CH3FeCHCH2CH3C2HCH4FeCH3NHCH2CHCFeHC2HCHCHC2HSCH2CH2CH2CHFeC2HNSCHCH2CHCHC2HCHSH3C3H2FeH2CFeSCHCHC2H2CHCSNCHCHCSH2NSCH2C5H4CH3SCHSFeHSHSHC2HSHCH2CH5FeCH2SCNH2S2H2SH3SCH2C5H3CHCHCFeCHSHCHC2H5SCHSH3Fe2SH2CH4FeH2SH4C3H7C2HCH2SHFeHCHFeH3CH2Fe2S2HCH3SH2SC2H4CH2CHC4HCH2CFeC2HCH3FeCH3CH4SHCFeSCHCHNFeHC2FeHCSH5C2HCH4C3HSH4CHCH9C3HCHCHCFeHC2HC2S2HCSH2SH2C2H2C3FeCHCHSCH2CH3C2NH3CH5FeCHCH2CFeC2HCH4CFeC3FeSHCSCNCH6C2HSHSFeCHCHC2NSHCH4CH3FeH9SCHSHCNS2H7CHFeSH2C4HCH4C2H3S2H3CH3CHC2SCHCHCHCFeCHC2H3FeNS2C3H2CSNSNSCHCH5CH5CH2SH4C2H2CH3C2HSH6SH2SH8CFeH7C2HCH2FeC2HCHCSHCFeHCFeC2HC3H7SHCHSH5CH2C3H6CHCH3SHCHSCH4FeS2H2CH2FeH2CHSHSC3HCHCH4C2H2FeSCSFeC3HC3HC2H3C2H2S2CH2C3HSHFeH2SC3SC2H8CSFeCHC3H5CHC3HC3HSCH2CH3C2HC3H7SHC3H2SHCSC4HCH2CNH7NH2CHCH3CHNSCH3SH4CH5SHCHC3HNCHNSHC2H2NHCHC3HNHFeHCHCSCH7SHCH2SFeHC2HCH2FeH2CH2C3H2SCH5CSHNHFeHC3HCHSCHCH2CSCHC3H5SNHC3H3NCSH3CHCHC2HCNHFeCHCSFeSH2CHCH4SHC3H3CSC2HCH2NC2SCH2CFe2S2CHC2HCS2CH3FeCNSCSH5S3CHC4HCH3SH2SHCSHSHCHCH2NHFeHC2HSH3FeHC3HSHCFeCH5CH5CH8S2CH6CHCH2SHCH2FeC2H8C3NH4C2HC2HFeH3C2SH2CSC2HC3HCFeH2CFeHFeH2CSCFeCHSH5CFeH2SC2HCNH2CH2CHSH5CH3C3H2NHCH2CHSH2SC4H8NHC2HCHC2SC3H2CH4C3SCH2SHCH2CH3CHCH2C2FeH2CH2CH2CH2FeHFeSH2NH3CHC4H9CH3SHCH2C2H2SH5CFeCH4CH2FeHSH2FeCSHC2HSHNCH7CHNH6SC2HSC2HFeH3CHFeC2HCHC3HCH2FeH2CH3CH4C2H2C3FeH2SCHSCH6C2SH4C3HCHCSCFeCHCH4Fe3NCH3CHCHSCFe2H5CH2NH2CHSCHC2H2CSHSCHNHSHC3H2CH3CHSH3CH4FeCHCHCH5SCH2SHC2H3C3H2C2H6CH2SH2NHC2H2C2HC2H3CS3C2HFeSC2H2SC2H3C2HSH2CHSHC2SCFeHSH2C2H2SCSHCSH3CHSH5SCSH3CHC2HSH3SCHCHNCHCHCHCFeHC2H2CFeH2FeCH2CH2FeCNH4C2H3C4HSH4CH2CH2SH2C2H2C2H5CSFeHFeHSHCH3SFeH7SH2SH2SCHCH3CSH3CHCH2C2SFeH4S2H4S2H2CH3SNH3FeHC3HC2H3C2FeH2C2HC3HCHCSH2CHCHCHCSHS2H2CHCHC2H3FeH2SH4SCHCH5C2H2S2CH2C2HFeHCSCFeHC2H2FeHCSH4CSHC4H3FeC3FeCHC3FeHFeH2CHC3SH4CHC2FeCSHCH9C3H3CSC2SHCNHCHSNSHCHSCHCHSH2FeH3FeCHCHC2H3CSH2CHCH2C3HCHC3FeH2C2H5C2HCHFeH3NCSCNHCHCH2S2HCHC2H3CFeH4SH2CHCSH2CHSH4CH3CSCH6CFeCSH2CSH2SCHCHCH4C2HCHCHSC3HC2H2FeC2NHSCHCHC2FeCH2SCHCSCH5C2HCH4CHFeH2C2H2CHFeCH2CHSH2CHC3HSCFeH3CH2CH4FeH2FeSC2SCSNHCHCNCSH3CFeH6CHCH2CSHC2H2SH5SHSC2H2CH2CHC3HS2H3C2HCH2C2FeH3SNH2CHCH2CHCH4CHSNH3FeH6CSHSFeHSCH2SH4CNC2HSCH2CHSC2SC2H6CH2SH3CH2CFeHC4HCHCH2CH2SH6C2FeH2SCHC2H3CFeHCHSHNS2HFeHC4HCH2C3FeHFeH3C2HSHSH4FeH4SFeCH2CH2CH2NHC2H2C2HCH2CSH4SHCH3CSH2SH2SHNCH3CH4CH2C2SCH2C4H3CH4C2H2CH2CSCHCH4SHS2H2CH3CFeH2SC2FeH3CH4CH4SH3C3H3FeCHCHNCHFeH4CHC2H3FeC3H3CHFeH4SHCH6CSC3H4C2HSH2S3CH2SHCHCH2SCH3CH2CHC3SH2CH4FeCHFeHC4H2FeH2CH4CFeCH2CHSC2H3CNSH3CH7NC2HC3H2CSC2H2CH3CHSHC3NH3SCHC2SCNCFeCH3SCH2CSHCHCHCHCH3CH2CH2CHNHCH4NFeHCHCNC2HCH2CHCH4CH8CFeHFeCHC2H2C3H2CFeSH5CHC2SHCSHFeCHCSH8C2H6CH2SH4CH4CH2CFeCNCH6CS2HC3H3SH2CHC5SCH3CNHCFeH2CHSCH2FeHC2HCHSHSH7CH4CH2CHCHN2H3C3SCHSH3CH3CH2C3SCSHCHCH4C2HCFeSC3H2SH3CHFeHFeH2CHCHC2FeCH2SCH2CHSH3CFeCH2CNCHCH4CHSH2C2SH3NHSC2H5C3H4CHFeCHC2SH5CSHC2H2CH2SH2SC3SHCNH2N2CH2CH4CH2FeC5SHCHCHSH4CH2CH2CHC2H2CH2CH2CFeSHNHCH2CHC2H3CH6FeCHCH2CHSHCHC3H2CH4CHC2H4C3H2C2FeC2SHSHC3H5FeHC2HCSHCNSHSH6CH2CSHFeHC2HSHC2H3SHNHFeH4C2HSHCH2Fe2CH2CSCHCH7CH5FeCSCFeSC2HSCHCHCHSH3CHC2HCS2FeH9CHC5Fe2H2SCHSC4H2CH3CSH3C2HCH3C3HCH2CH3C3HFeCH5CHSCFeH2CH8S2C2H3CH3CHCSCSH2CH3CHNH3CH3SHCH3FeHSCFeH4C2FeCHCHCHCHCHSHCHCHFeSCH2CFeCHCH3SHSH2NCH4SHNSFeH2CHFeC4HC2H2C2HCH3CNC3SH4CH2C2H2CSCHSH4SH4CH2CH3CH2CHCSHCH3C3HC2HCHCHCHFeH3S2CH6FeCH2CFeC3H2CH2CHSCH4SC2H2FeHSC2HCNCH3CH2NCHCHC2HCH5NHC2H2FeH3CH2C2HCHCHCHCSHSCSH3CHCH2CH3C2HSH2CH4Fe2H4CHC3H3C3S2CHC3HC4HC2HCH3FeCHCFeHNHFeC2H2FeCH2CH3CHFeHCSHS2HSH5C2H8FeHC2H4SNHCH2CFeHCNCH3C3HC4SCH3FeH2CH5C2H6CHCH2CHNH2CH3NHS5CSHCSHSCHCHSC2H2CHSH6CFeCHSHSHCH2SCHC2NH7SH2CSH3CH4FeHC2H2CH2SH8C2SH7FeH5C2HCSHCNHC2H7CFeC2H4C2S3CH2SCH5CH2SC3HFeCHFeHCH5C2H2SHFe2CH2C2HCSHCSHCH2CHCH2CH4NC2H4CH2NH2CHCH2CH2NCH2CHC2H3NHC2HCH3SHCHSNHCH4C2HNH2CH2FeCHSFeHCFeSC2H3CHC2H2CSH2CH2CH3CH2SHFeH2SH2C2HC2HCSH2C3HCHS2HCS2C3HCH3C5H2SHSHCHC2H2SH2CH2CH2CH2CHSH2CHC2H5CHFeCH2FeH6CHCH2C2H5CHCHFeSHCH2C2H2FeC2SC2HC2H4SHC2H5CS2HCHCFeH4C4HCH3CSH5C2HSHCSHC3HCNCNHCHCH2NH2CHC2H6CHFeHSC3H3C2H3Fe2HFeHCHSHSC2H3NC2HCHSC3SH3C3H2CHS2CHCHSH5CH7CH4CH4FeHSH2CH2CH4FeCH4CH2CHSH4CHC2HC2HSHC4HCHCH2CHNSCH2SH2C2SC2HCHFeH2CH4CFeHCHC2H3SHCH6FeC3HSCH4C2SH2CH2CHCH5CH4CHC3HSC3HCH2CHCHCHNSCHCHSCHNCH2CHSHC2H6CSCH2FeCH3FeH6C5HFeH3CNH2CH6CSC2HCHC2HSNHCH4CSCHSH2CHSNCH2SCH3CH3CH3SCH2SHCFeHCFeHCHSHCH2CH2NH5CH3C2SH3C2HC2HC5H4SCHC3FeH2CH4CHCHCH3SHC2H2CFeHCSFeCHC4HC2FeSC4H4CHCH3FeHC2HCHFeHSCFe3H10CSHC2HCSH6SH2CH2SCHCH2C5SNHCH7CSH2SC3NH2FeHFeCHSHCH2FeH4CH2FeH3SC2NH2NHCH2C2SH3CH4C3H2CH4CFeHSHCH2CHSHCHC2HCH2C3HCH2CFeH2CHCH6CHCSHC3H4CSC5H3SHSH2CH3CFeH3SH5NCH6CHCSH3
_chemical_formula_sum              "H3168 C1848 S528 N132 Fe264"
_cell_length_a       62.6828
_cell_length_b       62.4061
_cell_length_c       24.0395
_cell_angle_alpha    78.1614
_cell_angle_beta     76.1593
_cell_angle_gamma    117.339

_space_group_name_H-M_alt    "P 1"
_space_group_IT_number       1

loop_
  _space_group_symop_operation_xyz
  'x, y, z'

loop_
  _atom_site_type_symbol
  _atom_site_label
  _atom_site_symmetry_multiplicity
  _atom_site_fract_x
  _atom_site_fract_y
  _atom_site_fract_z
  _atom_site_occupancy
  H   H1        1.0  0.00114  0.05042  0.70791  1.0000
  H   H2        1.0  0.09448  0.04529  0.71743  1.0000
  H   H3        1.0  0.37092  0.01730  0.71221  1.0000
  C   C1        1.0  0.11806  0.06342  0.97596  1.0000
  H   H4        1.0  0.27293  0.15486  0.14317  1.0000
  C   C2        1.0  0.00364  0.09483  0.86322  1.0000
  H   H5        1.0  0.39729  0.99114  0.04773  1.0000
  S   S1        1.0  0.45702  0.08568  0.76768  1.0000
  C   C3        1.0  0.04075  0.21232  0.83306  1.0000
  C   C4        1.0  0.21031  0.12833  0.05508  1.0000
  H   H6        1.0  0.45867  0.18784  0.97844  1.0000
  S   S2        1.0  0.46334  0.11092  0.02569  1.0000
  C   C5        1.0  0.20189  0.98798  0.88066  1.0000
  C   C6        1.0  0.98796  0.97240  0.10917  1.0000
  H   H7        1.0  0.46460  0.05483  0.07933  1.0000
  H   H8        1.0  0.33350  0.12484  0.02077  1.0000
  H   H9        1.0  0.36282  0.03017  0.80303  1.0000
  C   C7        1.0  0.38496  0.03710  0.70913  1.0000
  H   H10       1.0  0.02109  0.07071  0.86177  1.0000
  C   C8        1.0  0.19986  0.19473  0.13760  1.0000
  H   H11       1.0  0.25645  0.07585  0.85250  1.0000
  C   C9        1.0  0.46905  0.98945  0.10926  1.0000
  S   S3        1.0  0.42516  0.06520  0.94957  1.0000
  H   H12       1.0  0.39639  0.05492  0.77625  1.0000
  H   H13       1.0  0.31399  0.07267  0.89681  1.0000
  C   C10       1.0  0.27076  0.07463  0.87085  1.0000
  H   H14       1.0  0.01650  0.99692  0.19125  1.0000
  C   C11       1.0  0.05886  0.00080  0.09758  1.0000
  C   C12       1.0  0.29062  0.07434  0.81883  1.0000
  C   C13       1.0  0.41683  0.13549  0.71501  1.0000
  C   C14       1.0  0.35487  0.16928  0.87950  1.0000
  N   N1        1.0  0.03548  0.00198  0.09663  1.0000
  C   C15       1.0  0.40623  0.99996  0.07820  1.0000
  C   C16       1.0  0.01751  0.10633  0.94701  1.0000
  H   H15       1.0  0.46595  0.21316  0.88252  1.0000
  S   S4        1.0  0.17053  0.99806  0.05520  1.0000
  C   C17       1.0  0.46974  0.14070  0.03094  1.0000
  H   H16       1.0  0.24863  0.20738  0.17705  1.0000
  H   H17       1.0  0.04059  0.04284  0.18067  1.0000
  C   C18       1.0  0.31752  0.08826  0.91539  1.0000
  C   C19       1.0  0.11660  0.07354  0.17477  1.0000
  C   C20       1.0  0.22791  0.19009  0.75764  1.0000
  S   S5        1.0  0.39961  0.08636  0.86550  1.0000
  C   C21       1.0  0.28832  0.17112  0.15011  1.0000
  C   C22       1.0  0.38369  0.15338  0.88222  1.0000
  C   C23       1.0  0.02630  0.08871  0.97452  1.0000
  H   H18       1.0  0.01641  0.11488  0.70595  1.0000
  S   S6        1.0  0.17966  0.04917  0.95410  1.0000
  H   H19       1.0  0.22584  0.14470  0.05880  1.0000
  C   C24       1.0  0.04795  0.01129  0.97965  1.0000
  H   H20       1.0  0.18210  0.00584  0.77886  1.0000
  H   H21       1.0  0.06499  0.00935  0.97270  1.0000
  H   H22       1.0  0.24902  0.10066  0.90395  1.0000
  C   C25       1.0  0.33906  0.15316  0.94105  1.0000
  H   H23       1.0  0.38841  0.03072  0.90807  1.0000
  C   C26       1.0  0.11569  0.05934  0.92225  1.0000
  H   H24       1.0  0.16587  0.21077  0.13295  1.0000
  H   H25       1.0  0.46123  0.18020  0.74869  1.0000
  H   H26       1.0  0.05380  0.10507  0.86142  1.0000
  H   H27       1.0  0.05997  0.14491  0.74923  1.0000
  C   C27       1.0  0.27443  0.20872  0.70916  1.0000
  H   H28       1.0  0.13074  0.12380  0.18369  1.0000
  H   H29       1.0  0.17246  0.16443  0.11808  1.0000
  H   H30       1.0  0.25955  0.19414  0.12429  1.0000
  H   H31       1.0  0.99646  0.13650  0.75385  1.0000
  H   H32       1.0  0.41623  0.00015  0.75267  1.0000
  H   H33       1.0  0.03014  0.14762  0.80824  1.0000
  H   H34       1.0  0.42621  0.01638  0.04772  1.0000
  C   C28       1.0  0.46602  0.17794  0.00202  1.0000
  H   H35       1.0  0.31856  0.97577  0.89722  1.0000
  C   C29       1.0  0.11265  0.08085  0.99431  1.0000
  Fe  Fe1       1.0  0.30068  0.17815  0.92867  1.0000
  C   C30       1.0  0.38990  0.00929  0.11141  1.0000
  H   H36       1.0  0.98894  0.05501  0.92043  1.0000
  H   H37       1.0  0.34976  0.18138  0.85418  1.0000
  H   H38       1.0  0.98782  0.15912  0.18343  1.0000
  H   H39       1.0  0.02009  0.07137  0.96186  1.0000
  C   C31       1.0  0.37921  0.02794  0.18498  1.0000
  H   H40       1.0  0.30013  0.01165  0.73791  1.0000
  H   H41       1.0  0.22056  0.99809  0.78333  1.0000
  H   H42       1.0  0.03936  0.15477  0.86931  1.0000
  C   C32       1.0  0.01371  0.98001  0.82205  1.0000
  H   H43       1.0  0.33421  0.10726  0.88112  1.0000
  C   C33       1.0  0.08767  0.99700  0.81889  1.0000
  H   H44       1.0  0.16615  0.10606  0.81381  1.0000
  C   C34       1.0  0.04242  0.02015  0.03395  1.0000
  C   C35       1.0  0.08674  0.21806  0.84111  1.0000
  S   S7        1.0  0.00926  0.18928  0.71278  1.0000
  Fe  Fe2       1.0  0.18328  0.01536  0.95279  1.0000
  C   C36       1.0  0.20226  0.10315  0.09013  1.0000
  H   H45       1.0  0.46570  0.06249  0.87035  1.0000
  Fe  Fe3       1.0  0.38792  0.06407  0.96398  1.0000
  C   C37       1.0  0.05917  0.12734  0.77382  1.0000
  N   N2        1.0  0.46940  0.98834  0.80494  1.0000
  H   H46       1.0  0.97901  0.97711  0.14662  1.0000
  H   H47       1.0  0.26104  0.97613  0.98161  1.0000
  H   H48       1.0  0.40717  0.99223  0.19475  1.0000
  Fe  Fe4       1.0  0.15834  0.21358  0.85621  1.0000
  H   H49       1.0  0.20652  0.18232  0.15711  1.0000
  Fe  Fe5       1.0  0.13891  0.02383  0.96177  1.0000
  H   H50       1.0  0.38930  0.18176  0.80232  1.0000
  C   C38       1.0  0.05107  0.12110  0.84393  1.0000
  C   C39       1.0  0.30470  0.01561  0.77790  1.0000
  C   C40       1.0  0.02443  0.13957  0.85869  1.0000
  H   H51       1.0  0.17765  0.07656  0.83588  1.0000
  C   C41       1.0  0.26499  0.21151  0.13702  1.0000
  H   H52       1.0  0.00520  0.10284  0.81560  1.0000
  H   H53       1.0  0.40140  0.99971  0.89244  1.0000
  H   H54       1.0  0.29692  0.10179  0.96775  1.0000
  H   H55       1.0  0.16044  0.01339  0.81923  1.0000
  H   H56       1.0  0.42740  0.96983  0.84019  1.0000
  C   C42       1.0  0.37882  0.04898  0.13922  1.0000
  H   H57       1.0  0.04773  0.09967  0.96126  1.0000
  H   H58       1.0  0.31989  0.12404  0.82553  1.0000
  H   H59       1.0  0.45178  0.01615  0.86217  1.0000
  H   H60       1.0  0.45520  0.04295  0.15985  1.0000
  S   S8        1.0  0.12479  0.15582  0.80428  1.0000
  H   H61       1.0  0.39200  0.21013  0.91888  1.0000
  S   S9        1.0  0.16688  0.18200  0.86760  1.0000
  H   H62       1.0  0.12402  0.05308  0.00343  1.0000
  C   C43       1.0  0.44467  0.14271  0.70720  1.0000
  C   C44       1.0  0.29285  0.13079  0.79794  1.0000
  C   C45       1.0  0.01351  0.97500  0.11035  1.0000
  C   C46       1.0  0.42518  0.04411  0.12926  1.0000
  C   C47       1.0  0.38280  0.03591  0.77521  1.0000
  H   H63       1.0  0.37295  0.12521  0.96896  1.0000
  S   S10       1.0  0.21595  0.01971  0.87867  1.0000
  C   C48       1.0  0.14293  0.20963  0.07903  1.0000
  H   H64       1.0  0.41295  0.18235  0.03215  1.0000
  H   H65       1.0  0.18487  0.13513  0.74966  1.0000
  H   H66       1.0  0.14374  0.17934  0.13858  1.0000
  C   C49       1.0  0.20966  0.07439  0.78632  1.0000
  H   H67       1.0  0.28890  0.05534  0.83280  1.0000
  C   C50       1.0  0.98515  0.99642  0.82629  1.0000
  H   H68       1.0  0.06024  0.21424  0.08811  1.0000
  N   N3        1.0  0.39792  0.02034  0.15847  1.0000
  H   H69       1.0  0.43016  0.04339  0.72798  1.0000
  C   C51       1.0  0.02720  0.01205  0.14416  1.0000
  C   C52       1.0  0.07699  0.20653  0.80160  1.0000
  C   C53       1.0  0.19845  0.13220  0.01490  1.0000
  H   H70       1.0  0.10528  0.06895  0.84590  1.0000
  H   H71       1.0  0.24799  0.97206  0.79656  1.0000
  N   N4        1.0  0.26645  0.97216  0.86230  1.0000
  H   H72       1.0  0.30267  0.16618  0.15696  1.0000
  C   C54       1.0  0.22044  0.12800  0.76850  1.0000
  S   S11       1.0  0.27838  0.18974  0.98992  1.0000
  H   H73       1.0  0.99406  0.06037  0.84055  1.0000
  H   H74       1.0  0.26646  0.11364  0.94926  1.0000
  N   N5        1.0  0.28136  0.09532  0.89750  1.0000
  H   H75       1.0  0.01823  0.20127  0.07747  1.0000
  H   H76       1.0  0.01288  0.01687  0.13624  1.0000
  H   H77       1.0  0.00204  0.98909  0.74847  1.0000
  H   H78       1.0  0.12808  0.01686  0.80305  1.0000
  S   S12       1.0  0.11521  0.18570  0.89649  1.0000
  H   H79       1.0  0.08607  0.00972  0.84368  1.0000
  H   H80       1.0  0.21681  0.21494  0.11592  1.0000
  H   H81       1.0  0.18027  0.97188  0.97852  1.0000
  H   H82       1.0  0.26624  0.00684  0.82718  1.0000
  H   H83       1.0  0.02692  0.02420  0.03339  1.0000
  C   C55       1.0  0.99631  0.98667  0.91378  1.0000
  C   C56       1.0  0.04923  0.03651  0.14666  1.0000
  H   H84       1.0  0.99087  0.13006  0.93884  1.0000
  H   H85       1.0  0.19930  0.05344  0.81421  1.0000
  S   S13       1.0  0.12267  0.03768  0.89960  1.0000
  C   C57       1.0  0.34050  0.97761  0.03392  1.0000
  C   C58       1.0  0.29982  0.97475  0.91282  1.0000
  H   H86       1.0  0.28544  0.00994  0.87110  1.0000
  H   H87       1.0  0.22106  0.07718  0.73951  1.0000
  H   H88       1.0  0.32403  0.97163  0.07447  1.0000
  H   H89       1.0  0.44673  0.18885  0.70216  1.0000
  C   C59       1.0  0.37699  0.01101  0.94062  1.0000
  H   H90       1.0  0.31114  0.08946  0.80586  1.0000
  C   C60       1.0  0.10262  0.09030  0.90455  1.0000
  H   H91       1.0  0.07418  0.99256  0.16624  1.0000
  N   N6        1.0  0.02410  0.11480  0.87829  1.0000
  H   H92       1.0  0.11316  0.05982  0.15022  1.0000
  C   C61       1.0  0.16589  0.00865  0.77822  1.0000
  H   H93       1.0  0.22832  0.13919  0.84473  1.0000
  H   H94       1.0  0.03095  0.99290  0.98480  1.0000
  Fe  Fe6       1.0  0.43777  0.08999  0.85228  1.0000
  N   N7        1.0  0.19991  0.10983  0.75029  1.0000
  H   H95       1.0  0.32376  0.08392  0.95359  1.0000
  C   C62       1.0  0.12371  0.99541  0.71025  1.0000
  H   H96       1.0  0.18478  0.19283  0.17711  1.0000
  H   H97       1.0  0.45504  0.01196  0.77162  1.0000
  H   H98       1.0  0.97443  0.00253  0.80534  1.0000
  C   C63       1.0  0.25914  0.09699  0.93333  1.0000
  H   H99       1.0  0.43558  0.98439  0.92014  1.0000
  H   H100      1.0  0.99060  0.98442  0.06422  1.0000
  C   C64       1.0  0.41225  0.00707  0.71241  1.0000
  C   C65       1.0  0.18869  0.18483  0.09121  1.0000
  H   H101      1.0  0.24671  0.99271  0.95023  1.0000
  C   C66       1.0  0.23769  0.07293  0.99082  1.0000
  H   H102      1.0  0.22288  0.08474  0.80800  1.0000
  H   H103      1.0  0.32777  0.21222  0.15625  1.0000
  H   H104      1.0  0.00193  0.15748  0.87329  1.0000
  C   C67       1.0  0.10530  0.09457  0.95811  1.0000
  Fe  Fe7       1.0  0.29965  0.20889  0.81354  1.0000
  H   H105      1.0  0.28613  0.07639  0.77672  1.0000
  N   N8        1.0  0.11955  0.98342  0.77617  1.0000
  C   C68       1.0  0.46041  0.15376  0.00029  1.0000
  H   H106      1.0  0.06004  0.03938  0.02223  1.0000
  H   H107      1.0  0.04638  0.11084  0.76280  1.0000
  C   C69       1.0  0.17770  0.11415  0.76337  1.0000
  H   H108      1.0  0.06437  0.99285  0.06320  1.0000
  H   H109      1.0  0.46515  0.21004  0.81112  1.0000
  H   H110      1.0  0.99614  0.09615  0.97283  1.0000
  H   H111      1.0  0.20339  0.18343  0.05846  1.0000
  H   H112      1.0  0.06034  0.05290  0.10177  1.0000
  C   C70       1.0  0.99857  0.13775  0.88787  1.0000
  C   C71       1.0  0.45460  0.00256  0.89234  1.0000
  H   H113      1.0  0.14885  0.08087  0.74841  1.0000
  C   C72       1.0  0.05561  0.98371  0.15933  1.0000
  H   H114      1.0  0.02326  0.21046  0.82873  1.0000
  H   H115      1.0  0.42297  0.20141  0.86497  1.0000
  H   H116      1.0  0.30926  0.15035  0.76480  1.0000
  H   H117      1.0  0.46146  0.01129  0.92523  1.0000
  H   H118      1.0  0.07647  0.02048  0.08241  1.0000
  H   H119      1.0  0.42859  0.05577  0.08267  1.0000
  C   C73       1.0  0.36794  0.13739  0.94376  1.0000
  H   H120      1.0  0.31916  0.01074  0.78362  1.0000
  C   C74       1.0  0.00205  0.06890  0.87261  1.0000
  H   H121      1.0  0.17554  0.06870  0.77022  1.0000
  C   C75       1.0  0.10761  0.07248  0.88688  1.0000
  H   H122      1.0  0.98398  0.08955  0.89210  1.0000
  H   H123      1.0  0.40663  0.98472  0.11017  1.0000
  C   C76       1.0  0.98240  0.99456  0.88691  1.0000
  S   S14       1.0  0.16208  0.21838  0.75875  1.0000
  H   H124      1.0  0.17384  0.02533  0.73586  1.0000
  C   C77       1.0  0.17008  0.18851  0.01317  1.0000
  H   H125      1.0  0.36978  0.04165  0.10741  1.0000
  H   H126      1.0  0.21057  0.18043  0.79895  1.0000
  H   H127      1.0  0.01759  0.08181  0.02553  1.0000
  C   C78       1.0  0.21162  0.12491  0.83692  1.0000
  H   H128      1.0  0.28835  0.11775  0.77168  1.0000
  S   S15       1.0  0.09976  0.11717  0.97967  1.0000
  S   S16       1.0  0.31005  0.15107  0.97835  1.0000
  C   C79       1.0  0.14757  0.15980  0.04146  1.0000
  H   H129      1.0  0.39242  0.18355  0.99329  1.0000
  H   H130      1.0  0.11481  0.08420  0.03562  1.0000
  C   C80       1.0  0.17056  0.08589  0.04469  1.0000
  Fe  Fe8       1.0  0.25395  0.18326  0.93370  1.0000
  C   C81       1.0  0.44794  0.03977  0.12257  1.0000
  C   C82       1.0  0.02183  0.05749  0.70004  1.0000
  C   C83       1.0  0.24488  0.97376  0.96724  1.0000
  C   C84       1.0  0.17807  0.11101  0.01090  1.0000
  H   H131      1.0  0.16895  0.11404  0.97969  1.0000
  S   S17       1.0  0.45485  0.12704  0.86972  1.0000
  S   S18       1.0  0.21094  0.16337  0.96493  1.0000
  H   H132      1.0  0.30661  0.13679  0.87063  1.0000
  H   H133      1.0  0.05252  0.02616  0.93660  1.0000
  C   C85       1.0  0.38416  0.99340  0.93128  1.0000
  H   H134      1.0  0.39070  0.02379  0.07404  1.0000
  H   H135      1.0  0.44490  0.13830  0.75421  1.0000
  H   H136      1.0  0.05246  0.02622  0.70807  1.0000
  S   S19       1.0  0.32906  0.21830  0.85787  1.0000
  H   H137      1.0  0.25248  0.19134  0.80723  1.0000
  H   H138      1.0  0.12940  0.21013  0.11744  1.0000
  H   H139      1.0  0.15417  0.14679  0.05733  1.0000
  H   H140      1.0  0.21179  0.10013  0.12027  1.0000
  S   S20       1.0  0.12245  0.00778  0.06487  1.0000
  H   H141      1.0  0.15549  0.06946  0.04023  1.0000
  H   H142      1.0  0.04721  0.19599  0.76471  1.0000
  C   C86       1.0  0.14319  0.98337  0.78057  1.0000
  H   H143      1.0  0.14553  0.03625  0.70668  1.0000
  Fe  Fe9       1.0  0.12372  0.15460  0.89877  1.0000
  S   S21       1.0  0.09226  0.19387  0.76064  1.0000
  C   C87       1.0  0.20690  0.98252  0.82712  1.0000
  H   H144      1.0  0.19616  0.12913  0.85019  1.0000
  H   H145      1.0  0.33489  0.13022  0.72055  1.0000
  H   H146      1.0  0.99389  0.98495  0.96080  1.0000
  H   H147      1.0  0.27612  0.13275  0.81585  1.0000
  H   H148      1.0  0.13067  0.15596  0.07937  1.0000
  H   H149      1.0  0.15152  0.97813  0.74336  1.0000
  H   H150      1.0  0.25935  0.05506  0.90774  1.0000
  C   C88       1.0  0.15811  0.10217  0.73353  1.0000
  H   H151      1.0  0.36667  0.05488  0.16540  1.0000
  H   H152      1.0  0.13781  0.08769  0.15871  1.0000
  H   H153      1.0  0.31402  0.03684  0.76644  1.0000
  H   H154      1.0  0.07914  0.13135  0.75435  1.0000
  C   C89       1.0  0.30121  0.12194  0.84901  1.0000
  Fe  Fe10      1.0  0.16738  0.18499  0.77263  1.0000
  H   H155      1.0  0.06266  0.03252  0.16280  1.0000
  C   C90       1.0  0.41284  0.18987  0.98619  1.0000
  H   H156      1.0  0.27829  0.06869  0.97734  1.0000
  H   H157      1.0  0.09637  0.10046  0.87726  1.0000
  Fe  Fe11      1.0  0.43909  0.10188  0.96866  1.0000
  S   S22       1.0  0.30463  0.21762  0.71440  1.0000
  H   H158      1.0  0.30540  0.99480  0.90769  1.0000
  S   S23       1.0  0.27343  0.16774  0.87923  1.0000
  H   H159      1.0  0.06973  0.97757  0.84492  1.0000
  H   H160      1.0  0.24452  0.07060  0.02887  1.0000
  H   H161      1.0  0.41253  0.14993  0.72510  1.0000
  H   H162      1.0  0.16408  0.19987  0.98618  1.0000
  S   S24       1.0  0.40061  0.09881  0.99148  1.0000
  H   H163      1.0  0.36167  0.21896  0.03080  1.0000
  H   H164      1.0  0.98367  0.12621  0.87125  1.0000
  H   H165      1.0  0.10801  0.08476  0.16044  1.0000
  Fe  Fe12      1.0  0.13019  0.97676  0.05669  1.0000
  H   H166      1.0  0.02165  0.97211  0.90364  1.0000
  H   H167      1.0  0.02634  0.12347  0.96069  1.0000
  S   S25       1.0  0.14337  0.99099  0.95409  1.0000
  C   C91       1.0  0.27991  0.00128  0.83709  1.0000
  H   H168      1.0  0.06584  0.13782  0.85131  1.0000
  Fe  Fe13      1.0  0.41540  0.12151  0.89080  1.0000
  H   H169      1.0  0.14066  0.15436  0.00528  1.0000
  H   H170      1.0  0.22153  0.07583  0.00810  1.0000
  H   H171      1.0  0.40257  0.11669  0.75346  1.0000
  H   H172      1.0  0.44391  0.02092  0.12003  1.0000
  H   H173      1.0  0.06129  0.05533  0.72190  1.0000
  C   C92       1.0  0.37718  0.16939  0.85012  1.0000
  H   H174      1.0  0.10928  0.98701  0.86487  1.0000
  H   H175      1.0  0.20506  0.10548  0.86824  1.0000
  H   H176      1.0  0.42755  0.05694  0.15652  1.0000
  S   S26       1.0  0.41229  0.15465  0.84560  1.0000
  C   C93       1.0  0.01189  0.97933  0.88151  1.0000
  H   H177      1.0  0.39086  0.99673  0.72820  1.0000
  C   C94       1.0  0.34571  0.13735  0.97314  1.0000
  C   C95       1.0  0.46421  0.18795  0.69975  1.0000
  C   C96       1.0  0.35575  0.00334  0.99330  1.0000
  H   H178      1.0  0.14241  0.10599  0.74830  1.0000
  H   H179      1.0  0.44887  0.14535  0.97495  1.0000
  C   C97       1.0  0.00091  0.98916  0.79388  1.0000
  H   H180      1.0  0.18593  0.18973  0.97753  1.0000
  C   C98       1.0  0.01369  0.14768  0.71187  1.0000
  H   H181      1.0  0.41930  0.18045  0.95770  1.0000
  H   H182      1.0  0.13076  0.19662  0.05922  1.0000
  H   H183      1.0  0.38621  0.02118  0.79848  1.0000
  C   C99       1.0  0.15812  0.19933  0.10483  1.0000
  S   S27       1.0  0.17552  0.05085  0.11919  1.0000
  Fe  Fe14      1.0  0.11946  0.18912  0.79951  1.0000
  C   C100      1.0  0.22650  0.19568  0.69976  1.0000
  H   H184      1.0  0.22799  0.14841  0.74123  1.0000
  H   H185      1.0  0.10507  0.99115  0.70553  1.0000
  H   H186      1.0  0.22947  0.05489  0.98088  1.0000
  Fe  Fe15      1.0  0.99053  0.20997  0.95008  1.0000
  S   S28       1.0  0.34992  0.02633  0.01188  1.0000
  C   C101      1.0  0.11225  0.99650  0.81660  1.0000
  H   H187      1.0  0.23778  0.12641  0.75670  1.0000
  C   C102      1.0  0.18289  0.08202  0.08349  1.0000
  H   H188      1.0  0.29819  0.18784  0.10641  1.0000
  H   H189      1.0  0.02222  0.04938  0.74505  1.0000
  H   H190      1.0  0.39846  0.06673  0.11279  1.0000
  Fe  Fe16      1.0  0.16361  0.02999  0.05685  1.0000
  N   N9        1.0  0.17961  0.20014  0.05795  1.0000
  C   C103      1.0  0.25178  0.19627  0.76230  1.0000
  C   C104      1.0  0.29266  0.08843  0.94194  1.0000
  C   C105      1.0  0.18936  0.08195  0.78686  1.0000
  H   H191      1.0  0.08821  0.00479  0.77252  1.0000
  H   H192      1.0  0.36925  0.99268  0.13284  1.0000
  H   H193      1.0  0.22557  0.21644  0.96640  1.0000
  C   C106      1.0  0.05442  0.20436  0.79630  1.0000
  C   C107      1.0  0.43123  0.21969  0.95929  1.0000
  H   H194      1.0  0.45654  0.98793  0.69873  1.0000
  H   H195      1.0  0.24346  0.06131  0.43782  1.0000
  H   H196      1.0  0.27018  0.05622  0.34927  1.0000
  H   H197      1.0  0.33076  0.19040  0.63498  1.0000
  H   H198      1.0  0.11875  0.17817  0.67203  1.0000
  H   H199      1.0  0.11872  0.05837  0.37038  1.0000
  S   S29       1.0  0.34330  0.10363  0.50299  1.0000
  H   H200      1.0  0.41479  0.15418  0.55341  1.0000
  H   H201      1.0  0.11071  0.07596  0.26395  1.0000
  C   C108      1.0  0.18797  0.97082  0.64883  1.0000
  C   C109      1.0  0.11533  0.00400  0.46719  1.0000
  H   H202      1.0  0.46354  0.11272  0.58706  1.0000
  C   C110      1.0  0.09316  0.99242  0.28040  1.0000
  H   H203      1.0  0.03466  0.06063  0.39651  1.0000
  H   H204      1.0  0.44551  0.98733  0.45265  1.0000
  C   C111      1.0  0.21262  0.19649  0.38672  1.0000
  H   H205      1.0  0.40464  0.14366  0.35840  1.0000
  H   H206      1.0  0.10947  0.14968  0.36061  1.0000
  C   C112      1.0  0.01060  0.99732  0.47555  1.0000
  C   C113      1.0  0.09360  0.05406  0.67360  1.0000
  S   S30       1.0  0.01137  0.09083  0.42642  1.0000
  S   S31       1.0  0.33441  0.04595  0.55229  1.0000
  H   H207      1.0  0.16626  0.20377  0.50171  1.0000
  C   C114      1.0  0.02888  0.04069  0.40485  1.0000
  H   H208      1.0  0.19435  0.03834  0.32003  1.0000
  C   C115      1.0  0.13344  0.13820  0.31166  1.0000
  C   C116      1.0  0.44362  0.14092  0.38341  1.0000
  H   H209      1.0  0.44527  0.17886  0.61397  1.0000
  H   H210      1.0  0.06081  0.01418  0.55836  1.0000
  H   H211      1.0  0.22911  0.11285  0.67387  1.0000
  H   H212      1.0  0.23003  0.99478  0.50420  1.0000
  N   N10       1.0  0.46591  0.17031  0.66675  1.0000
  C   C117      1.0  0.27296  0.21444  0.65134  1.0000
  H   H213      1.0  0.17542  0.00106  0.48883  1.0000
  H   H214      1.0  0.14965  0.06370  0.20837  1.0000
  S   S32       1.0  0.03538  0.14327  0.46108  1.0000
  H   H215      1.0  0.17195  0.02957  0.54096  1.0000
  C   C118      1.0  0.36405  0.18181  0.47854  1.0000
  H   H216      1.0  0.40188  0.99214  0.29451  1.0000
  H   H217      1.0  0.43346  0.97632  0.27959  1.0000
  N   N11       1.0  0.44622  0.16103  0.33080  1.0000
  H   H218      1.0  0.99899  0.18075  0.52018  1.0000
  C   C119      1.0  0.12607  0.12936  0.22237  1.0000
  C   C120      1.0  0.39458  0.99937  0.21056  1.0000
  C   C121      1.0  0.46326  0.16169  0.56715  1.0000
  H   H219      1.0  0.45262  0.14208  0.23010  1.0000
  H   H220      1.0  0.12636  0.02201  0.42821  1.0000
  H   H221      1.0  0.08707  0.03438  0.42714  1.0000
  Fe  Fe17      1.0  0.15178  0.07144  0.46041  1.0000
  H   H222      1.0  0.19982  0.00973  0.64385  1.0000
  C   C122      1.0  0.04653  0.18858  0.62883  1.0000
  S   S33       1.0  0.20522  0.14172  0.34637  1.0000
  C   C123      1.0  0.25921  0.12196  0.50511  1.0000
  S   S34       1.0  0.34061  0.06893  0.38168  1.0000
  C   C124      1.0  0.10025  0.14183  0.28347  1.0000
  H   H223      1.0  0.23296  0.04331  0.33515  1.0000
  H   H224      1.0  0.30456  0.98426  0.39185  1.0000
  H   H225      1.0  0.28948  0.10762  0.36791  1.0000
  H   H226      1.0  0.44756  0.02404  0.48031  1.0000
  C   C125      1.0  0.11058  0.00452  0.52660  1.0000
  H   H227      1.0  0.45650  0.20100  0.30342  1.0000
  H   H228      1.0  0.25064  0.12579  0.54348  1.0000
  Fe  Fe18      1.0  0.17862  0.12891  0.44361  1.0000
  H   H229      1.0  0.46392  0.18117  0.42148  1.0000
  H   H230      1.0  0.41717  0.13033  0.31221  1.0000
  C   C126      1.0  0.30687  0.97908  0.56868  1.0000
  C   C127      1.0  0.10401  0.06007  0.24573  1.0000
  Fe  Fe19      1.0  0.04334  0.12131  0.53122  1.0000
  S   S35       1.0  0.17639  0.07987  0.36436  1.0000
  H   H231      1.0  0.17453  0.02214  0.40013  1.0000
  H   H232      1.0  0.33413  0.98413  0.38160  1.0000
  H   H233      1.0  0.38376  0.03572  0.22106  1.0000
  H   H234      1.0  0.09263  0.98157  0.62340  1.0000
  H   H235      1.0  0.26338  0.16864  0.33316  1.0000
  C   C128      1.0  0.16916  0.21013  0.60191  1.0000
  H   H236      1.0  0.37713  0.06981  0.43776  1.0000
  C   C129      1.0  0.27284  0.18974  0.32296  1.0000
  C   C130      1.0  0.40472  0.07657  0.26838  1.0000
  N   N12       1.0  0.41192  0.04782  0.66342  1.0000
  C   C131      1.0  0.13925  0.13059  0.26224  1.0000
  H   H237      1.0  0.13911  0.19798  0.45150  1.0000
  H   H238      1.0  0.14523  0.07009  0.27541  1.0000
  H   H239      1.0  0.16829  0.04974  0.27999  1.0000
  C   C132      1.0  0.46318  0.17827  0.60663  1.0000
  H   H240      1.0  0.41951  0.00120  0.67511  1.0000
  S   S36       1.0  0.16256  0.12213  0.25037  1.0000
  H   H241      1.0  0.42757  0.12647  0.48373  1.0000
  H   H242      1.0  0.40364  0.11278  0.45100  1.0000
  Fe  Fe20      1.0  0.20972  0.10869  0.38145  1.0000
  C   C133      1.0  0.45945  0.99719  0.47186  1.0000
  C   C134      1.0  0.41850  0.07589  0.30594  1.0000
  H   H243      1.0  0.46014  0.16903  0.52570  1.0000
  C   C135      1.0  0.35252  0.13536  0.68531  1.0000
  C   C136      1.0  0.40848  0.07340  0.36717  1.0000
  C   C137      1.0  0.46914  0.00091  0.19937  1.0000
  H   H244      1.0  0.09717  0.01294  0.36407  1.0000
  C   C138      1.0  0.09648  0.98127  0.57741  1.0000
  H   H245      1.0  0.14422  0.14018  0.34120  1.0000
  Fe  Fe21      1.0  0.17009  0.11248  0.33604  1.0000
  C   C139      1.0  0.21210  0.11504  0.68295  1.0000
  C   C140      1.0  0.09806  0.04618  0.37715  1.0000
  C   C141      1.0  0.46840  0.14901  0.24777  1.0000
  N   N13       1.0  0.06085  0.05780  0.63096  1.0000
  C   C142      1.0  0.05748  0.17638  0.60159  1.0000
  H   H246      1.0  0.11460  0.19002  0.51999  1.0000
  H   H247      1.0  0.04089  0.98140  0.19997  1.0000
  C   C143      1.0  0.02447  0.17425  0.68349  1.0000
  H   H248      1.0  0.07820  0.09473  0.64412  1.0000
  C   C144      1.0  0.44338  0.97994  0.23200  1.0000
  C   C145      1.0  0.26701  0.04785  0.39801  1.0000
  H   H249      1.0  0.30273  0.99462  0.56594  1.0000
  H   H250      1.0  0.13694  0.02313  0.32805  1.0000
  C   C146      1.0  0.11385  0.14369  0.32248  1.0000
  H   H251      1.0  0.08483  0.01781  0.23084  1.0000
  C   C147      1.0  0.24127  0.04223  0.44290  1.0000
  H   H252      1.0  0.33551  0.01389  0.35747  1.0000
  C   C148      1.0  0.10264  0.10188  0.55350  1.0000
  C   C149      1.0  0.10651  0.13488  0.23308  1.0000
  C   C150      1.0  0.26196  0.11739  0.40625  1.0000
  C   C151      1.0  0.39517  0.16815  0.60737  1.0000
  H   H253      1.0  0.33031  0.15520  0.56059  1.0000
  S   S37       1.0  0.06136  0.13519  0.59676  1.0000
  H   H254      1.0  0.39708  0.04550  0.53199  1.0000
  H   H255      1.0  0.25473  0.16707  0.21626  1.0000
  C   C152      1.0  0.37076  0.07195  0.35315  1.0000
  H   H256      1.0  0.33611  0.97283  0.59224  1.0000
  S   S38       1.0  0.38061  0.09861  0.60342  1.0000
  S   S39       1.0  0.00356  0.08558  0.56887  1.0000
  H   H257      1.0  0.35892  0.01068  0.20811  1.0000
  H   H258      1.0  0.43996  0.12347  0.37219  1.0000
  H   H259      1.0  0.26816  0.03034  0.40579  1.0000
  H   H260      1.0  0.28351  0.06240  0.40600  1.0000
  H   H261      1.0  0.19514  0.00720  0.53223  1.0000
  H   H262      1.0  0.04084  0.04622  0.30847  1.0000
  H   H263      1.0  0.22121  0.14131  0.59300  1.0000
  S   S40       1.0  0.01110  0.03206  0.52824  1.0000
  H   H264      1.0  0.41881  0.07242  0.39667  1.0000
  H   H265      1.0  0.25300  0.19587  0.26631  1.0000
  H   H266      1.0  0.10768  0.07517  0.65735  1.0000
  H   H267      1.0  0.98215  0.10803  0.38559  1.0000
  S   S41       1.0  0.06107  0.10732  0.46685  1.0000
  H   H268      1.0  0.43695  0.17079  0.21809  1.0000
  H   H269      1.0  0.41066  0.18821  0.58306  1.0000
  Fe  Fe22      1.0  0.29350  0.03198  0.61015  1.0000
  H   H270      1.0  0.41671  0.08554  0.63108  1.0000
  C   C153      1.0  0.13844  0.05381  0.25870  1.0000
  C   C154      1.0  0.23496  0.98226  0.66143  1.0000
  H   H271      1.0  0.19876  0.10028  0.66818  1.0000
  C   C155      1.0  0.01765  0.02296  0.46515  1.0000
  C   C156      1.0  0.37261  0.16131  0.65488  1.0000
  C   C157      1.0  0.10173  0.02019  0.24264  1.0000
  Fe  Fe23      1.0  0.05033  0.12663  0.39899  1.0000
  H   H272      1.0  0.21178  0.19806  0.52772  1.0000
  H   H273      1.0  0.42881  0.04582  0.57604  1.0000
  C   C158      1.0  0.03228  0.04824  0.65127  1.0000
  H   H274      1.0  0.07407  0.98265  0.31917  1.0000
  S   S42       1.0  0.44790  0.07774  0.27527  1.0000
  H   H275      1.0  0.21110  0.15079  0.65308  1.0000
  H   H276      1.0  0.15059  0.02636  0.24945  1.0000
  C   C159      1.0  0.45489  0.09173  0.59668  1.0000
  H   H277      1.0  0.29238  0.19767  0.32488  1.0000
  H   H278      1.0  0.44754  0.14103  0.59158  1.0000
  H   H279      1.0  0.00203  0.98358  0.52210  1.0000
  C   C160      1.0  0.22844  0.00101  0.65454  1.0000
  S   S43       1.0  0.07509  0.14767  0.29824  1.0000
  H   H280      1.0  0.43127  0.18095  0.37632  1.0000
  H   H281      1.0  0.37902  0.04769  0.59810  1.0000
  C   C161      1.0  0.27360  0.20419  0.26139  1.0000
  H   H282      1.0  0.22494  0.97234  0.46643  1.0000
  H   H283      1.0  0.28143  0.15032  0.62149  1.0000
  C   C162      1.0  0.21622  0.00067  0.42841  1.0000
  C   C163      1.0  0.20502  0.18769  0.45069  1.0000
  H   H284      1.0  0.27582  0.16292  0.24657  1.0000
  H   H285      1.0  0.38352  0.00707  0.29504  1.0000
  C   C164      1.0  0.42131  0.13078  0.44558  1.0000
  H   H286      1.0  0.44532  0.04451  0.65546  1.0000
  S   S44       1.0  0.02913  0.99616  0.30391  1.0000
  H   H287      1.0  0.22073  0.05853  0.37518  1.0000
  S   S45       1.0  0.24908  0.11409  0.34930  1.0000
  H   H288      1.0  0.28112  0.18291  0.49861  1.0000
  C   C165      1.0  0.27675  0.11417  0.50710  1.0000
  H   H289      1.0  0.10762  0.99175  0.29823  1.0000
  C   C166      1.0  0.25187  0.12365  0.45448  1.0000
  C   C167      1.0  0.05332  0.01839  0.59884  1.0000
  S   S46       1.0  0.28713  0.05203  0.53342  1.0000
  C   C168      1.0  0.42577  0.03683  0.69018  1.0000
  C   C169      1.0  0.28114  0.11180  0.40594  1.0000
  H   H290      1.0  0.10936  0.97962  0.41290  1.0000
  C   C170      1.0  0.01419  0.98922  0.42585  1.0000
  C   C171      1.0  0.29814  0.19610  0.50751  1.0000
  H   H291      1.0  0.41179  0.07433  0.54819  1.0000
  H   H292      1.0  0.27311  0.98593  0.46943  1.0000
  H   H293      1.0  0.19735  0.96979  0.51955  1.0000
  C   C172      1.0  0.38084  0.07447  0.29199  1.0000
  H   H294      1.0  0.19799  0.98760  0.42351  1.0000
  S   S47       1.0  0.14293  0.10180  0.43097  1.0000
  H   H295      1.0  0.09596  0.13339  0.20295  1.0000
  H   H296      1.0  0.34928  0.00541  0.54138  1.0000
  C   C173      1.0  0.09388  0.02776  0.34102  1.0000
  H   H297      1.0  0.33009  0.99436  0.62136  1.0000
  N   N14       1.0  0.10973  0.04016  0.27263  1.0000
  H   H298      1.0  0.42946  0.08173  0.68739  1.0000
  H   H299      1.0  0.42423  0.18432  0.26664  1.0000
  H   H300      1.0  0.35388  0.17656  0.44700  1.0000
  H   H301      1.0  0.31606  0.01036  0.46128  1.0000
  H   H302      1.0  0.37028  0.07501  0.26264  1.0000
  H   H303      1.0  0.26098  0.19207  0.36092  1.0000
  C   C174      1.0  0.38469  0.07161  0.39066  1.0000
  S   S48       1.0  0.18563  0.09775  0.47968  1.0000
  H   H304      1.0  0.23819  0.12946  0.45319  1.0000
  H   H305      1.0  0.09029  0.05855  0.36573  1.0000
  N   N15       1.0  0.30713  0.97220  0.51204  1.0000
  C   C175      1.0  0.29509  0.15705  0.64497  1.0000
  C   C176      1.0  0.18987  0.03820  0.49949  1.0000
  H   H306      1.0  0.34359  0.00806  0.45241  1.0000
  C   C177      1.0  0.21685  0.03914  0.37618  1.0000
  H   H307      1.0  0.41581  0.14484  0.45205  1.0000
  H   H308      1.0  0.30392  0.16418  0.51798  1.0000
  H   H309      1.0  0.37448  0.98191  0.22921  1.0000
  S   S49       1.0  0.46787  0.10006  0.40952  1.0000
  H   H310      1.0  0.24793  0.21192  0.60173  1.0000
  H   H311      1.0  0.03209  0.00896  0.61094  1.0000
  C   C178      1.0  0.37788  0.12284  0.62317  1.0000
  C   C179      1.0  0.19371  0.01634  0.48967  1.0000
  H   H312      1.0  0.32833  0.19260  0.45626  1.0000
  C   C180      1.0  0.21709  0.98357  0.48315  1.0000
  H   H313      1.0  0.06315  0.05561  0.54120  1.0000
  C   C181      1.0  0.15548  0.21318  0.51521  1.0000
  Fe  Fe24      1.0  0.02074  0.07298  0.49964  1.0000
  H   H314      1.0  0.46216  0.14760  0.39077  1.0000
  N   N16       1.0  0.28902  0.20319  0.20427  1.0000
  C   C182      1.0  0.03256  0.03257  0.35498  1.0000
  H   H315      1.0  0.30249  0.10463  0.45712  1.0000
  H   H316      1.0  0.98416  0.12667  0.64278  1.0000
  C   C183      1.0  0.33220  0.98845  0.58082  1.0000
  H   H317      1.0  0.11599  0.09599  0.56270  1.0000
  N   N17       1.0  0.33289  0.19216  0.54280  1.0000
  C   C184      1.0  0.42175  0.14902  0.31809  1.0000
  H   H318      1.0  0.38076  0.20218  0.45684  1.0000
  H   H319      1.0  0.30842  0.21571  0.47162  1.0000
  C   C185      1.0  0.42180  0.16615  0.26170  1.0000
  C   C186      1.0  0.27582  0.17564  0.20675  1.0000
  H   H320      1.0  0.10027  0.09959  0.51043  1.0000
  C   C187      1.0  0.35526  0.11608  0.67006  1.0000
  H   H321      1.0  0.41270  0.07907  0.22066  1.0000
  H   H322      1.0  0.17506  0.19705  0.58846  1.0000
  C   C188      1.0  0.02498  0.00674  0.36555  1.0000
  C   C189      1.0  0.44993  0.18456  0.34578  1.0000
  C   C190      1.0  0.14879  0.03694  0.28030  1.0000
  C   C191      1.0  0.28835  0.10992  0.45667  1.0000
  S   S50       1.0  0.18052  0.15526  0.49626  1.0000
  C   C192      1.0  0.13440  0.20559  0.48747  1.0000
  C   C193      1.0  0.32409  0.99421  0.39379  1.0000
  Fe  Fe25      1.0  0.32894  0.06837  0.47779  1.0000
  C   C194      1.0  0.46021  0.01756  0.48869  1.0000
  S   S51       1.0  0.26494  0.98990  0.66590  1.0000
  H   H323      1.0  0.30904  0.19732  0.61447  1.0000
  H   H324      1.0  0.13029  0.98615  0.68135  1.0000
  H   H325      1.0  0.46636  0.13227  0.28075  1.0000
  H   H326      1.0  0.46790  0.08682  0.61235  1.0000
  H   H327      1.0  0.08264  0.05109  0.25952  1.0000
  H   H328      1.0  0.44796  0.12875  0.69010  1.0000
  C   C195      1.0  0.21722  0.20488  0.47838  1.0000
  C   C196      1.0  0.32306  0.99708  0.45647  1.0000
  H   H329      1.0  0.37223  0.16944  0.48526  1.0000
  H   H330      1.0  0.16308  0.02859  0.65105  1.0000
  C   C197      1.0  0.07581  0.08713  0.60652  1.0000
  H   H331      1.0  0.18700  0.04803  0.46069  1.0000
  C   C198      1.0  0.12667  0.15872  0.61312  1.0000
  H   H332      1.0  0.28954  0.19646  0.55276  1.0000
  H   H333      1.0  0.20262  0.18364  0.36527  1.0000
  C   C199      1.0  0.34525  0.17630  0.54193  1.0000
  C   C200      1.0  0.19172  0.02552  0.36395  1.0000
  C   C201      1.0  0.31607  0.18548  0.50577  1.0000
  C   C202      1.0  0.06736  0.04809  0.58072  1.0000
  N   N18       1.0  0.21700  0.02456  0.43433  1.0000
  H   H334      1.0  0.07285  0.01694  0.34965  1.0000
  H   H335      1.0  0.23999  0.03475  0.49056  1.0000
  H   H336      1.0  0.45504  0.08887  0.55268  1.0000
  Fe  Fe26      1.0  0.99685  0.10608  0.49312  1.0000
  H   H337      1.0  0.20624  0.05272  0.50774  1.0000
  H   H338      1.0  0.35637  0.17923  0.57219  1.0000
  H   H339      1.0  0.05533  0.20916  0.60732  1.0000
  H   H340      1.0  0.07420  0.18752  0.55858  1.0000
  S   S52       1.0  0.12185  0.03380  0.53923  1.0000
  H   H341      1.0  0.23161  0.00524  0.38510  1.0000
  N   N19       1.0  0.14704  0.20793  0.58346  1.0000
  Fe  Fe27      1.0  0.30188  0.08549  0.56538  1.0000
  H   H342      1.0  0.09052  0.98084  0.25031  1.0000
  S   S53       1.0  0.28329  0.10859  0.57350  1.0000
  H   H343      1.0  0.08842  0.05548  0.56150  1.0000
  H   H344      1.0  0.41336  0.13273  0.67358  1.0000
  C   C203      1.0  0.22252  0.14239  0.63776  1.0000
  H   H345      1.0  0.14007  0.15655  0.63329  1.0000
  H   H346      1.0  0.98342  0.14650  0.54842  1.0000
  H   H347      1.0  0.02001  0.02683  0.67038  1.0000
  H   H348      1.0  0.09894  0.20778  0.63266  1.0000
  Fe  Fe28      1.0  0.34538  0.07968  0.58217  1.0000
  H   H349      1.0  0.40276  0.15536  0.25752  1.0000
  H   H350      1.0  0.24306  0.15606  0.63008  1.0000
  H   H351      1.0  0.10588  0.17802  0.61514  1.0000
  C   C204      1.0  0.39873  0.05295  0.56996  1.0000
  H   H352      1.0  0.26517  0.97956  0.55086  1.0000
  H   H353      1.0  0.06477  0.09411  0.58719  1.0000
  H   H354      1.0  0.41814  0.02593  0.25049  1.0000
  C   C205      1.0  0.98019  0.16242  0.55016  1.0000
  H   H355      1.0  0.16293  0.20360  0.65282  1.0000
  C   C206      1.0  0.31760  0.18548  0.60931  1.0000
  H   H356      1.0  0.18766  0.00705  0.35812  1.0000
  H   H357      1.0  0.02783  0.05439  0.61099  1.0000
  C   C207      1.0  0.39993  0.00689  0.26533  1.0000
  H   H358      1.0  0.39705  0.01940  0.62155  1.0000
  C   C208      1.0  0.39762  0.14890  0.59083  1.0000
  C   C209      1.0  0.40972  0.04077  0.60783  1.0000
  C   C210      1.0  0.04686  0.14995  0.62991  1.0000
  H   H359      1.0  0.11215  0.12291  0.54457  1.0000
  C   C211      1.0  0.12370  0.18107  0.62227  1.0000
  C   C212      1.0  0.42724  0.07680  0.64650  1.0000
  C   C213      1.0  0.20483  0.99520  0.64894  1.0000
  H   H360      1.0  0.98833  0.16463  0.63139  1.0000
  H   H361      1.0  0.97307  0.18094  0.61202  1.0000
  H   H362      1.0  0.13344  0.16125  0.56390  1.0000
  C   C214      1.0  0.24898  0.20754  0.64663  1.0000
  H   H363      1.0  0.03231  0.07890  0.68487  1.0000
  C   C215      1.0  0.26506  0.97080  0.51526  1.0000
  H   H364      1.0  0.09961  0.04582  0.64088  1.0000
  H   H365      1.0  0.24142  0.01990  0.65451  1.0000
  H   H366      1.0  0.30232  0.14396  0.65350  1.0000
  H   H367      1.0  0.31631  0.19774  0.23675  1.0000
  C   C216      1.0  0.10563  0.98012  0.45874  1.0000
  H   H368      1.0  0.13729  0.03271  0.64309  1.0000
  C   C217      1.0  0.14367  0.02480  0.67678  1.0000
  S   S54       1.0  0.30489  0.06398  0.64696  1.0000
  H   H369      1.0  0.05735  0.00927  0.63631  1.0000
  H   H370      1.0  0.97419  0.03404  0.46511  1.0000
  H   H371      1.0  0.10743  0.14029  0.63727  1.0000
  H   H372      1.0  0.16713  0.11117  0.68256  1.0000
  S   S55       1.0  0.36882  0.18514  0.67444  1.0000
  C   C218      1.0  0.06572  0.04762  0.68593  1.0000
  H   H373      1.0  0.97399  0.15220  0.26377  1.0000
  C   C219      1.0  0.02491  0.13549  0.68492  1.0000
  C   C220      1.0  0.97238  0.16252  0.61603  1.0000
  C   C221      1.0  0.31629  0.21188  0.20003  1.0000
  H   H374      1.0  0.37704  0.04890  0.69343  1.0000
  H   H375      1.0  0.28395  0.15548  0.69071  1.0000
  S   S56       1.0  0.19685  0.18758  0.69267  1.0000
  H   H376      1.0  0.33998  0.09596  0.69504  1.0000
  C   C222      1.0  0.46992  0.19513  0.37557  1.0000
  C   C223      1.0  0.46979  0.16964  0.27553  1.0000
  H   H377      1.0  0.11765  0.02673  0.19812  1.0000
  H   H378      1.0  0.42417  0.22683  0.99384  1.0000
  H   H379      1.0  0.13607  0.25701  0.97229  1.0000
  C   C224      1.0  0.97183  0.38312  0.75362  1.0000
  H   H380      1.0  0.11503  0.26481  0.75189  1.0000
  C   C225      1.0  0.43921  0.22158  0.85113  1.0000
  S   S57       1.0  0.98873  0.36270  0.11722  1.0000
  H   H381      1.0  0.07344  0.45431  0.90222  1.0000
  C   C226      1.0  0.05455  0.33628  0.85107  1.0000
  C   C227      1.0  0.41494  0.31305  0.81268  1.0000
  H   H382      1.0  0.19489  0.45676  0.87891  1.0000
  C   C228      1.0  0.97936  0.23533  0.10794  1.0000
  H   H383      1.0  0.27575  0.26885  0.74682  1.0000
  H   H384      1.0  0.09743  0.33516  0.73859  1.0000
  C   C229      1.0  0.38047  0.34908  0.15639  1.0000
  H   H385      1.0  0.26675  0.30906  0.77848  1.0000
  C   C230      1.0  0.37325  0.25506  0.04490  1.0000
  C   C231      1.0  0.07217  0.26304  0.09823  1.0000
  N   N20       1.0  0.35084  0.36608  0.14274  1.0000
  C   C232      1.0  0.22744  0.23255  0.98171  1.0000
  H   H386      1.0  0.09926  0.44604  0.99609  1.0000
  C   C233      1.0  0.44031  0.40857  0.15888  1.0000
  C   C234      1.0  0.28000  0.40522  0.92403  1.0000
  H   H387      1.0  0.00133  0.25233  0.76670  1.0000
  H   H388      1.0  0.23489  0.26447  0.82112  1.0000
  C   C235      1.0  0.35358  0.27782  0.00883  1.0000
  H   H389      1.0  0.11594  0.35404  0.84069  1.0000
  H   H390      1.0  0.33446  0.25435  0.16420  1.0000
  H   H391      1.0  0.43466  0.28066  0.89663  1.0000
  H   H392      1.0  0.40435  0.37955  0.77103  1.0000
  H   H393      1.0  0.39207  0.43372  0.07346  1.0000
  C   C236      1.0  0.11051  0.33146  0.70769  1.0000
  H   H394      1.0  0.00178  0.42041  0.74754  1.0000
  Fe  Fe29      1.0  0.42610  0.29699  0.04632  1.0000
  H   H395      1.0  0.97572  0.33390  0.80355  1.0000
  H   H396      1.0  0.01887  0.26728  0.07417  1.0000
  H   H397      1.0  0.15591  0.22957  0.04418  1.0000
  H   H398      1.0  0.33514  0.31537  0.86398  1.0000
  H   H399      1.0  0.26232  0.44553  0.82250  1.0000
  H   H400      1.0  0.15828  0.40795  0.11688  1.0000
  H   H401      1.0  0.03597  0.27188  0.79609  1.0000
  C   C237      1.0  0.42603  0.39964  0.96532  1.0000
  H   H402      1.0  0.98124  0.33017  0.70877  1.0000
  H   H403      1.0  0.08764  0.28283  0.09153  1.0000
  C   C238      1.0  0.40370  0.37636  0.72777  1.0000
  H   H404      1.0  0.19783  0.41110  0.11774  1.0000
  Fe  Fe30      1.0  0.45931  0.34708  0.06450  1.0000
  C   C239      1.0  0.10576  0.29861  0.79651  1.0000
  H   H405      1.0  0.97296  0.28256  0.85431  1.0000
  H   H406      1.0  0.42441  0.26318  0.81435  1.0000
  C   C240      1.0  0.41225  0.33338  0.77143  1.0000
  H   H407      1.0  0.38412  0.42227  0.90903  1.0000
  H   H408      1.0  0.21545  0.34227  0.78930  1.0000
  C   C241      1.0  0.35951  0.23543  0.02459  1.0000
  C   C242      1.0  0.10349  0.44341  0.81616  1.0000
  H   H409      1.0  0.13455  0.31185  0.83723  1.0000
  C   C243      1.0  0.40773  0.23084  0.90321  1.0000
  S   S58       1.0  0.13822  0.40402  0.74807  1.0000
  C   C244      1.0  0.11695  0.25425  0.97524  1.0000
  C   C245      1.0  0.17816  0.42337  0.96163  1.0000
  C   C246      1.0  0.45533  0.26130  0.87365  1.0000
  C   C247      1.0  0.36980  0.27591  0.03777  1.0000
  H   H410      1.0  0.03793  0.38647  0.18020  1.0000
  C   C248      1.0  0.06035  0.35860  0.80668  1.0000
  H   H411      1.0  0.40658  0.30955  0.86216  1.0000
  N   N21       1.0  0.05400  0.44921  0.99580  1.0000
  H   H412      1.0  0.46799  0.29783  0.88724  1.0000
  C   C249      1.0  0.99493  0.32349  0.70499  1.0000
  H   H413      1.0  0.08151  0.23594  0.90595  1.0000
  H   H414      1.0  0.12273  0.30554  0.95164  1.0000
  N   N22       1.0  0.38514  0.32808  0.78705  1.0000
  H   H415      1.0  0.12069  0.26853  0.93235  1.0000
  H   H416      1.0  0.98043  0.23497  0.06274  1.0000
  H   H417      1.0  0.23881  0.23763  0.83923  1.0000
  C   C250      1.0  0.36639  0.30118  0.79103  1.0000
  H   H418      1.0  0.21521  0.41783  0.98022  1.0000
  H   H419      1.0  0.17454  0.29596  0.69694  1.0000
  H   H420      1.0  0.03974  0.41152  0.06167  1.0000
  S   S59       1.0  0.17626  0.24839  0.88349  1.0000
  H   H421      1.0  0.43716  0.39312  0.98299  1.0000
  H   H422      1.0  0.08916  0.44012  0.79600  1.0000
  C   C251      1.0  0.10509  0.25809  0.03373  1.0000
  H   H423      1.0  0.29515  0.33525  0.16187  1.0000
  H   H424      1.0  0.10501  0.22134  0.84260  1.0000
  C   C252      1.0  0.12717  0.46721  0.79105  1.0000
  C   C253      1.0  0.18225  0.27654  0.83000  1.0000
  H   H425      1.0  0.33910  0.36970  0.06504  1.0000
  H   H426      1.0  0.18843  0.46329  0.94751  1.0000
  S   S60       1.0  0.04527  0.35336  0.10581  1.0000
  H   H427      1.0  0.35871  0.43515  0.70548  1.0000
  H   H428      1.0  0.14888  0.42150  0.06197  1.0000
  H   H429      1.0  0.99998  0.41560  0.95861  1.0000
  S   S61       1.0  0.27884  0.22391  0.86624  1.0000
  S   S62       1.0  0.44396  0.45112  0.08711  1.0000
  C   C254      1.0  0.03076  0.22124  0.07557  1.0000
  C   C255      1.0  0.35205  0.33178  0.86612  1.0000
  H   H430      1.0  0.39104  0.24909  0.85738  1.0000
  H   H431      1.0  0.39636  0.38796  0.70801  1.0000
  C   C256      1.0  0.10051  0.35511  0.83045  1.0000
  H   H432      1.0  0.36572  0.34351  0.74381  1.0000
  H   H433      1.0  0.06304  0.22434  0.01116  1.0000
  C   C257      1.0  0.02005  0.42184  0.95546  1.0000
  H   H434      1.0  0.44318  0.42695  0.83515  1.0000
  H   H435      1.0  0.09241  0.27760  0.82449  1.0000
  C   C258      1.0  0.18107  0.29744  0.73460  1.0000
  S   S63       1.0  0.21042  0.38618  0.91549  1.0000
  H   H436      1.0  0.40598  0.29451  0.80514  1.0000
  C   C259      1.0  0.25043  0.38103  0.86006  1.0000
  S   S64       1.0  0.06084  0.32919  0.00746  1.0000
  H   H437      1.0  0.02252  0.45288  0.98303  1.0000
  H   H438      1.0  0.97090  0.31807  0.87997  1.0000
  H   H439      1.0  0.37886  0.33098  0.18123  1.0000
  H   H440      1.0  0.43590  0.32026  0.80060  1.0000
  C   C260      1.0  0.38559  0.34764  0.73743  1.0000
  H   H441      1.0  0.35588  0.35044  0.83711  1.0000
  S   S65       1.0  0.99906  0.30745  0.08179  1.0000
  H   H442      1.0  0.05716  0.28796  0.83080  1.0000
  H   H443      1.0  0.02358  0.22127  0.12237  1.0000
  C   C261      1.0  0.08097  0.27409  0.98825  1.0000
  H   H444      1.0  0.01851  0.35299  0.73831  1.0000
  H   H445      1.0  0.37958  0.29078  0.05446  1.0000
  H   H446      1.0  0.36937  0.37255  0.04787  1.0000
  C   C262      1.0  0.10625  0.37760  0.78693  1.0000
  C   C263      1.0  0.13255  0.30557  0.79791  1.0000
  C   C264      1.0  0.98232  0.30149  0.81644  1.0000
  H   H447      1.0  0.25407  0.24282  0.73039  1.0000
  H   H448      1.0  0.07010  0.26566  0.76132  1.0000
  H   H449      1.0  0.21620  0.46038  0.91768  1.0000
  C   C265      1.0  0.00025  0.25455  0.17252  1.0000
  H   H450      1.0  0.35133  0.29423  0.00331  1.0000
  H   H451      1.0  0.19202  0.44670  0.10715  1.0000
  H   H452      1.0  0.13378  0.28812  0.80790  1.0000
  Fe  Fe31      1.0  0.02703  0.32528  0.98413  1.0000
  C   C266      1.0  0.98714  0.25806  0.78067  1.0000
  H   H453      1.0  0.21756  0.26776  0.73804  1.0000
  C   C267      1.0  0.45272  0.42871  0.78778  1.0000
  H   H454      1.0  0.05595  0.30642  0.76416  1.0000
  H   H455      1.0  0.03274  0.43347  0.90632  1.0000
  C   C268      1.0  0.97038  0.36861  0.07922  1.0000
  H   H456      1.0  0.22974  0.42068  0.06936  1.0000
  H   H457      1.0  0.34654  0.33087  0.91446  1.0000
  H   H458      1.0  0.21593  0.23575  0.80594  1.0000
  C   C269      1.0  0.34360  0.23758  0.99418  1.0000
  C   C270      1.0  0.19719  0.30091  0.83303  1.0000
  H   H459      1.0  0.44534  0.43665  0.97495  1.0000
  C   C271      1.0  0.20887  0.40998  0.07611  1.0000
  H   H460      1.0  0.15956  0.25647  0.78266  1.0000
  H   H461      1.0  0.02788  0.23406  0.04314  1.0000
  H   H462      1.0  0.24720  0.40655  0.97175  1.0000
  H   H463      1.0  0.43791  0.42459  0.76679  1.0000
  Fe  Fe32      1.0  0.34382  0.44111  0.88366  1.0000
  C   C272      1.0  0.46460  0.22184  0.83960  1.0000
  H   H464      1.0  0.05458  0.26400  0.10322  1.0000
  H   H465      1.0  0.15529  0.45401  0.88674  1.0000
  H   H466      1.0  0.39608  0.36517  0.16298  1.0000
  N   N23       1.0  0.98287  0.29794  0.75612  1.0000
  H   H467      1.0  0.03566  0.34046  0.69840  1.0000
  C   C273      1.0  0.99589  0.40686  0.72426  1.0000
  H   H468      1.0  0.45061  0.22423  0.95933  1.0000
  H   H469      1.0  0.17241  0.37700  0.01875  1.0000
  C   C274      1.0  0.07617  0.28625  0.74235  1.0000
  H   H470      1.0  0.04047  0.45050  0.08584  1.0000
  C   C275      1.0  0.07286  0.46634  0.93021  1.0000
  Fe  Fe33      1.0  0.42791  0.34556  0.98520  1.0000
  H   H471      1.0  0.20284  0.38954  0.08364  1.0000
  C   C276      1.0  0.34088  0.25899  0.98583  1.0000
  C   C277      1.0  0.05923  0.22846  0.05406  1.0000
  H   H472      1.0  0.34656  0.29765  0.80100  1.0000
  C   C278      1.0  0.20142  0.22805  0.02247  1.0000
  H   H473      1.0  0.18377  0.41389  0.93157  1.0000
  C   C279      1.0  0.26430  0.46402  0.82352  1.0000
  H   H474      1.0  0.10090  0.31170  0.00020  1.0000
  C   C280      1.0  0.16251  0.38424  0.04703  1.0000
  C   C281      1.0  0.39595  0.41607  0.92425  1.0000
  H   H475      1.0  0.33574  0.33324  0.04097  1.0000
  S   S66       1.0  0.05632  0.45747  0.76937  1.0000
  C   C282      1.0  0.35433  0.34703  0.18322  1.0000
  H   H476      1.0  0.45733  0.46759  0.69709  1.0000
  H   H477      1.0  0.08069  0.40499  0.88405  1.0000
  C   C283      1.0  0.07463  0.33437  0.86211  1.0000
  H   H478      1.0  0.42064  0.33548  0.72312  1.0000
  H   H479      1.0  0.42862  0.45420  0.80617  1.0000
  C   C284      1.0  0.17315  0.27496  0.78237  1.0000
  H   H480      1.0  0.19916  0.46359  0.02787  1.0000
  H   H481      1.0  0.26654  0.33327  0.72286  1.0000
  C   C285      1.0  0.26045  0.31259  0.73995  1.0000
  H   H482      1.0  0.08009  0.41436  0.05261  1.0000
  Fe  Fe34      1.0  0.38895  0.46576  0.92233  1.0000
  C   C286      1.0  0.45761  0.40634  0.79291  1.0000
  C   C287      1.0  0.05703  0.42682  0.01933  1.0000
  H   H483      1.0  0.10269  0.31395  0.92428  1.0000
  N   N24       1.0  0.10395  0.30412  0.73424  1.0000
  S   S67       1.0  0.46946  0.28051  0.69856  1.0000
  C   C288      1.0  0.34960  0.36166  0.08386  1.0000
  H   H484      1.0  0.21252  0.34514  0.16398  1.0000
  C   C289      1.0  0.37381  0.39295  0.12699  1.0000
  H   H485      1.0  0.00243  0.31292  0.81448  1.0000
  H   H486      1.0  0.09897  0.30858  0.82247  1.0000
  C   C290      1.0  0.27536  0.38531  0.84756  1.0000
  H   H487      1.0  0.23904  0.30170  0.75779  1.0000
  C   C291      1.0  0.31454  0.45421  0.76455  1.0000
  H   H488      1.0  0.21846  0.44332  0.00357  1.0000
  C   C292      1.0  0.37269  0.41559  0.09064  1.0000
  C   C293      1.0  0.05549  0.28864  0.78578  1.0000
  H   H489      1.0  0.37224  0.31325  0.88637  1.0000
  C   C294      1.0  0.23534  0.24926  0.80510  1.0000
  H   H490      1.0  0.20392  0.30240  0.87035  1.0000
  S   S68       1.0  0.32147  0.26243  0.94762  1.0000
  H   H491      1.0  0.32403  0.37930  0.15092  1.0000
  H   H492      1.0  0.98242  0.25492  0.83016  1.0000
  H   H493      1.0  0.12343  0.37882  0.07306  1.0000
  C   C295      1.0  0.19647  0.32176  0.73673  1.0000
  C   C296      1.0  0.08625  0.37920  0.77429  1.0000
  C   C297      1.0  0.05597  0.46371  0.03932  1.0000
  H   H494      1.0  0.39264  0.29712  0.71939  1.0000
  H   H495      1.0  0.15832  0.41825  0.96523  1.0000
  Fe  Fe35      1.0  0.01257  0.34809  0.07587  1.0000
  H   H496      1.0  0.33355  0.22269  0.97728  1.0000
  H   H497      1.0  0.31796  0.31984  0.12221  1.0000
  C   C298      1.0  0.10320  0.30277  0.96564  1.0000
  Fe  Fe36      1.0  0.03362  0.31384  0.10476  1.0000
  S   S69       1.0  0.41700  0.32320  0.08332  1.0000
  C   C299      1.0  0.40665  0.38356  0.94800  1.0000
  H   H498      1.0  0.23899  0.37160  0.83553  1.0000
  C   C300      1.0  0.37641  0.33010  0.84881  1.0000
  H   H499      1.0  0.13451  0.37466  0.00132  1.0000
  C   C301      1.0  0.44690  0.38988  0.17018  1.0000
  C   C302      1.0  0.32676  0.36484  0.17863  1.0000
  H   H500      1.0  0.46129  0.27102  0.82364  1.0000
  H   H501      1.0  0.32662  0.41128  0.71639  1.0000
  C   C303      1.0  0.41524  0.43209  0.94201  1.0000
  H   H502      1.0  0.10320  0.24335  0.07295  1.0000
  C   C304      1.0  0.08079  0.43273  0.03619  1.0000
  S   S70       1.0  0.34672  0.43575  0.97595  1.0000
  N   N25       1.0  0.43339  0.23338  0.89671  1.0000
  C   C305      1.0  0.00128  0.25354  0.11453  1.0000
  H   H503      1.0  0.20577  0.23845  0.05469  1.0000
  C   C306      1.0  0.11547  0.27195  0.70547  1.0000
  H   H504      1.0  0.12146  0.44808  0.09444  1.0000
  C   C307      1.0  0.18361  0.44861  0.07211  1.0000
  S   S71       1.0  0.39943  0.35236  0.95738  1.0000
  H   H505      1.0  0.44435  0.39069  0.83866  1.0000
  H   H506      1.0  0.02053  0.40411  0.97015  1.0000
  N   N26       1.0  0.17837  0.41352  0.02418  1.0000
  S   S72       1.0  0.46980  0.37192  0.96856  1.0000
  C   C308      1.0  0.39189  0.39188  0.92639  1.0000
  H   H507      1.0  0.40120  0.23715  0.94036  1.0000
  H   H508      1.0  0.26547  0.45886  0.10242  1.0000
  C   C309      1.0  0.25488  0.40045  0.93737  1.0000
  C   C310      1.0  0.13454  0.37166  0.04846  1.0000
  C   C311      1.0  0.13220  0.46897  0.08763  1.0000
  C   C312      1.0  0.14090  0.45093  0.86694  1.0000
  C   C313      1.0  0.98780  0.45056  0.17847  1.0000
  H   H509      1.0  0.10466  0.23432  0.97673  1.0000
  H   H510      1.0  0.25460  0.46947  0.79559  1.0000
  H   H511      1.0  0.42555  0.35233  0.77369  1.0000
  H   H512      1.0  0.30258  0.44733  0.81381  1.0000
  C   C314      1.0  0.45197  0.42760  0.10006  1.0000
  H   H513      1.0  0.37676  0.37932  0.91341  1.0000
  H   H514      1.0  0.97058  0.43301  0.11830  1.0000
  H   H515      1.0  0.06264  0.27401  0.99786  1.0000
  S   S73       1.0  0.02265  0.31399  0.90362  1.0000
  C   C315      1.0  0.20394  0.32349  0.78690  1.0000
  H   H516      1.0  0.36414  0.28624  0.83042  1.0000
  S   S74       1.0  0.42004  0.46183  0.94165  1.0000
  Fe  Fe37      1.0  0.20569  0.39522  0.82592  1.0000
  H   H517      1.0  0.00539  0.45735  0.13788  1.0000
  S   S75       1.0  0.03715  0.36540  0.97594  1.0000
  H   H518      1.0  0.29156  0.41498  0.94810  1.0000
  S   S76       1.0  0.10991  0.40402  0.96199  1.0000
  H   H519      1.0  0.97384  0.27360  0.00125  1.0000
  C   C316      1.0  0.05020  0.22327  0.87374  1.0000
  C   C317      1.0  0.19558  0.45271  0.92541  1.0000
  H   H520      1.0  0.39220  0.34712  0.85241  1.0000
  S   S77       1.0  0.46782  0.31867  0.03709  1.0000
  H   H521      1.0  0.08269  0.26754  0.94864  1.0000
  C   C318      1.0  0.16593  0.42194  0.06950  1.0000
  H   H522      1.0  0.05803  0.41745  0.98493  1.0000
  H   H523      1.0  0.25353  0.46010  0.87206  1.0000
  C   C319      1.0  0.43051  0.42409  0.96148  1.0000
  H   H524      1.0  0.30456  0.43667  0.19359  1.0000
  H   H525      1.0  0.23682  0.24994  0.93937  1.0000
  H   H526      1.0  0.12396  0.35038  0.07276  1.0000
  H   H527      1.0  0.08546  0.24638  0.16205  1.0000
  H   H528      1.0  0.37650  0.39615  0.16942  1.0000
  Fe  Fe38      1.0  0.20379  0.37831  0.71873  1.0000
  C   C320      1.0  0.37323  0.29467  0.73321  1.0000
  H   H529      1.0  0.16054  0.37566  0.09476  1.0000
  H   H530      1.0  0.01213  0.42487  0.04492  1.0000
  S   S78       1.0  0.19998  0.42745  0.78904  1.0000
  C   C321      1.0  0.09852  0.42346  0.86677  1.0000
  N   N27       1.0  0.07938  0.25591  0.04355  1.0000
  H   H531      1.0  0.01814  0.29793  0.74444  1.0000
  H   H532      1.0  0.35884  0.27396  0.74353  1.0000
  S   S79       1.0  0.17276  0.36587  0.80912  1.0000
  S   S80       1.0  0.43543  0.31871  0.94878  1.0000
  H   H533      1.0  0.08048  0.43962  0.07508  1.0000
  H   H534      1.0  0.35028  0.32608  0.09081  1.0000
  S   S81       1.0  0.32316  0.40796  0.85425  1.0000
  H   H535      1.0  0.28335  0.37969  0.81240  1.0000
  H   H536      1.0  0.28867  0.45850  0.72427  1.0000
  H   H537      1.0  0.33546  0.46450  0.75706  1.0000
  S   S82       1.0  0.02687  0.27999  0.17736  1.0000
  C   C322      1.0  0.07350  0.22659  0.87667  1.0000
  H   H538      1.0  0.06994  0.31718  0.89709  1.0000
  H   H539      1.0  0.31001  0.43688  0.75216  1.0000
  C   C323      1.0  0.11687  0.42739  0.89355  1.0000
  C   C324      1.0  0.07320  0.39305  0.19232  1.0000
  C   C325      1.0  0.06738  0.24514  0.16073  1.0000
  C   C326      1.0  0.24039  0.38904  0.90411  1.0000
  C   C327      1.0  0.40621  0.24446  0.84426  1.0000
  H   H540      1.0  0.07411  0.28917  0.69721  1.0000
  H   H541      1.0  0.19550  0.23828  0.99185  1.0000
  H   H542      1.0  0.14117  0.35399  0.73748  1.0000
  C   C328      1.0  0.46446  0.38970  0.12209  1.0000
  H   H543      1.0  0.04484  0.36066  0.80009  1.0000
  C   C329      1.0  0.20586  0.42207  0.01801  1.0000
  H   H544      1.0  0.38655  0.35227  0.10663  1.0000
  C   C330      1.0  0.99914  0.28659  0.74062  1.0000
  Fe  Fe39      1.0  0.16979  0.39912  0.76355  1.0000
  C   C331      1.0  0.33754  0.33350  0.08575  1.0000
  H   H545      1.0  0.39227  0.39554  0.09826  1.0000
  S   S83       1.0  0.39594  0.25478  0.07573  1.0000
  H   H546      1.0  0.17130  0.45594  0.08906  1.0000
  C   C332      1.0  0.29041  0.39807  0.87833  1.0000
  H   H547      1.0  0.09069  0.39681  0.74137  1.0000
  C   C333      1.0  0.02669  0.43767  0.99714  1.0000
  C   C334      1.0  0.45003  0.27818  0.90598  1.0000
  H   H548      1.0  0.14928  0.32142  0.75648  1.0000
  H   H549      1.0  0.45233  0.39740  0.75913  1.0000
  H   H550      1.0  0.40115  0.23180  0.81699  1.0000
  H   H551      1.0  0.11985  0.27708  0.03311  1.0000
  H   H552      1.0  0.38901  0.44274  0.16714  1.0000
  S   S84       1.0  0.23696  0.40610  0.73726  1.0000
  C   C335      1.0  0.25680  0.26017  0.74109  1.0000
  H   H553      1.0  0.36815  0.41292  0.04993  1.0000
  S   S85       1.0  0.03417  0.23434  0.91860  1.0000
  H   H554      1.0  0.23689  0.37231  0.17265  1.0000
  H   H555      1.0  0.44468  0.27030  0.95633  1.0000
  H   H556      1.0  0.26812  0.22691  0.09725  1.0000
  Fe  Fe40      1.0  0.06938  0.36844  0.00518  1.0000
  Fe  Fe41      1.0  0.30521  0.22915  0.91711  1.0000
  S   S86       1.0  0.38644  0.46893  0.83044  1.0000
  H   H557      1.0  0.07347  0.37835  0.17578  1.0000
  H   H558      1.0  0.35862  0.41871  0.12004  1.0000
  C   C336      1.0  0.02104  0.34586  0.70016  1.0000
  H   H559      1.0  0.44056  0.23175  0.80538  1.0000
  H   H560      1.0  0.09710  0.25826  0.70217  1.0000
  H   H561      1.0  0.05196  0.22467  0.17327  1.0000
  H   H562      1.0  0.97470  0.34931  0.01658  1.0000
  Fe  Fe42      1.0  0.22854  0.43588  0.69860  1.0000
  H   H563      1.0  0.35134  0.40351  0.71015  1.0000
  H   H564      1.0  0.24132  0.23712  0.00529  1.0000
  S   S87       1.0  0.47018  0.36448  0.13347  1.0000
  H   H565      1.0  0.09121  0.32796  0.17872  1.0000
  H   H566      1.0  0.29604  0.24031  0.15288  1.0000
  H   H567      1.0  0.24250  0.41154  0.17016  1.0000
  H   H568      1.0  0.30586  0.22571  0.10623  1.0000
  C   C337      1.0  0.05336  0.39788  0.19413  1.0000
  C   C338      1.0  0.29032  0.22112  0.14897  1.0000
  C   C339      1.0  0.47019  0.42790  0.05273  1.0000
  H   H569      1.0  0.37922  0.46830  0.10050  1.0000
  H   H570      1.0  0.42624  0.40832  0.19574  1.0000
  H   H571      1.0  0.33863  0.32671  0.19494  1.0000
  H   H572      1.0  0.26652  0.41658  0.42269  1.0000
  H   H573      1.0  0.13395  0.22273  0.46505  1.0000
  H   H574      1.0  0.29043  0.22461  0.61018  1.0000
  H   H575      1.0  0.10780  0.43770  0.24684  1.0000
  C   C340      1.0  0.05027  0.45796  0.37265  1.0000
  C   C341      1.0  0.05826  0.35293  0.35564  1.0000
  H   H576      1.0  0.12782  0.44485  0.68748  1.0000
  C   C342      1.0  0.31588  0.46353  0.23995  1.0000
  H   H577      1.0  0.11581  0.24191  0.60681  1.0000
  H   H578      1.0  0.97649  0.41124  0.51808  1.0000
  S   S88       1.0  0.27030  0.27140  0.33142  1.0000
  H   H579      1.0  0.05911  0.37145  0.34019  1.0000
  Fe  Fe43      1.0  0.45051  0.26760  0.63366  1.0000
  H   H580      1.0  0.39175  0.26710  0.26793  1.0000
  C   C343      1.0  0.00446  0.29959  0.28730  1.0000
  H   H581      1.0  0.30344  0.39472  0.53752  1.0000
  Fe  Fe44      1.0  0.15323  0.46442  0.31056  1.0000
  H   H582      1.0  0.06071  0.25163  0.19729  1.0000
  H   H583      1.0  0.23662  0.40425  0.57768  1.0000
  H   H584      1.0  0.07039  0.46553  0.34125  1.0000
  C   C344      1.0  0.32191  0.44914  0.33316  1.0000
  H   H585      1.0  0.44719  0.44776  0.22945  1.0000
  H   H586      1.0  0.99187  0.40906  0.44847  1.0000
  Fe  Fe45      1.0  0.43246  0.27760  0.52911  1.0000
  Fe  Fe46      1.0  0.01957  0.25769  0.53859  1.0000
  S   S89       1.0  0.43344  0.45094  0.50016  1.0000
  S   S90       1.0  0.98979  0.35337  0.33004  1.0000
  H   H587      1.0  0.06086  0.27385  0.39876  1.0000
  C   C345      1.0  0.23273  0.22219  0.35040  1.0000
  H   H588      1.0  0.37107  0.22340  0.52854  1.0000
  H   H589      1.0  0.33284  0.38316  0.39828  1.0000
  H   H590      1.0  0.29063  0.45354  0.51672  1.0000
  S   S91       1.0  0.03359  0.23058  0.54131  1.0000
  H   H591      1.0  0.05197  0.34668  0.40653  1.0000
  H   H592      1.0  0.28084  0.22457  0.25808  1.0000
  S   S92       1.0  0.05966  0.29259  0.50541  1.0000
  C   C346      1.0  0.06538  0.45956  0.45701  1.0000
  C   C347      1.0  0.00470  0.39516  0.63538  1.0000
  H   H593      1.0  0.43743  0.30355  0.20648  1.0000
  H   H594      1.0  0.13124  0.27182  0.67275  1.0000
  H   H595      1.0  0.11538  0.22721  0.55095  1.0000
  H   H596      1.0  0.17561  0.39326  0.55619  1.0000
  C   C348      1.0  0.34818  0.24003  0.53110  1.0000
  H   H597      1.0  0.24091  0.36339  0.27607  1.0000
  H   H598      1.0  0.08118  0.34782  0.25101  1.0000
  C   C349      1.0  0.35584  0.42818  0.62178  1.0000
  H   H599      1.0  0.24581  0.43669  0.56418  1.0000
  C   C350      1.0  0.13683  0.29210  0.51303  1.0000
  C   C351      1.0  0.98983  0.31609  0.53469  1.0000
  C   C352      1.0  0.44395  0.25249  0.32958  1.0000
  C   C353      1.0  0.05399  0.41810  0.21170  1.0000
  H   H600      1.0  0.14191  0.31257  0.67805  1.0000
  C   C354      1.0  0.24337  0.40918  0.21646  1.0000
  H   H601      1.0  0.20301  0.39533  0.24747  1.0000
  H   H602      1.0  0.01553  0.45302  0.46531  1.0000
  C   C355      1.0  0.09102  0.42201  0.61422  1.0000
  Fe  Fe47      1.0  0.28707  0.35634  0.34424  1.0000
  C   C356      1.0  0.34742  0.41858  0.69239  1.0000
  C   C357      1.0  0.07397  0.43285  0.22953  1.0000
  H   H603      1.0  0.15877  0.30759  0.56683  1.0000
  C   C358      1.0  0.30077  0.33893  0.20088  1.0000
  H   H604      1.0  0.36680  0.46664  0.19844  1.0000
  H   H605      1.0  0.13390  0.40817  0.47235  1.0000
  H   H606      1.0  0.36253  0.22708  0.46332  1.0000
  Fe  Fe48      1.0  0.14438  0.42563  0.24748  1.0000
  C   C359      1.0  0.42836  0.32901  0.48907  1.0000
  H   H607      1.0  0.24672  0.24373  0.46366  1.0000
  H   H608      1.0  0.12104  0.29379  0.53588  1.0000
  H   H609      1.0  0.18295  0.32936  0.27271  1.0000
  C   C360      1.0  0.21583  0.39182  0.26758  1.0000
  H   H610      1.0  0.46499  0.28673  0.34757  1.0000
  H   H611      1.0  0.20720  0.28092  0.65199  1.0000
  H   H612      1.0  0.23831  0.29253  0.59717  1.0000
  H   H613      1.0  0.33518  0.37108  0.59417  1.0000
  S   S93       1.0  0.41878  0.45750  0.35240  1.0000
  H   H614      1.0  0.45169  0.33311  0.25471  1.0000
  C   C361      1.0  0.40490  0.27561  0.29170  1.0000
  Fe  Fe49      1.0  0.27268  0.30012  0.37673  1.0000
  S   S94       1.0  0.41190  0.25977  0.63235  1.0000
  C   C362      1.0  0.42279  0.32499  0.55139  1.0000
  H   H615      1.0  0.97613  0.23853  0.26896  1.0000
  C   C363      1.0  0.98484  0.28051  0.50090  1.0000
  H   H616      1.0  0.99507  0.30766  0.31372  1.0000
  N   N28       1.0  0.04451  0.31425  0.31789  1.0000
  Fe  Fe50      1.0  0.45815  0.43417  0.49047  1.0000
  H   H617      1.0  0.19607  0.38516  0.58333  1.0000
  C   C364      1.0  0.99380  0.41148  0.49156  1.0000
  C   C365      1.0  0.30905  0.43984  0.23309  1.0000
  Fe  Fe51      1.0  0.29718  0.33196  0.44924  1.0000
  H   H618      1.0  0.07470  0.31813  0.35214  1.0000
  C   C366      1.0  0.27261  0.30630  0.68692  1.0000
  S   S95       1.0  0.42419  0.24020  0.51728  1.0000
  H   H619      1.0  0.30631  0.28100  0.57459  1.0000
  H   H620      1.0  0.99309  0.39452  0.51977  1.0000
  H   H621      1.0  0.15619  0.27270  0.39930  1.0000
  H   H622      1.0  0.24630  0.36461  0.37036  1.0000
  H   H623      1.0  0.07827  0.35733  0.33495  1.0000
  C   C367      1.0  0.07856  0.31595  0.22792  1.0000
  C   C368      1.0  0.05381  0.30404  0.36308  1.0000
  H   H624      1.0  0.28530  0.34025  0.23094  1.0000
  C   C369      1.0  0.15683  0.28045  0.43562  1.0000
  H   H625      1.0  0.41396  0.41374  0.43743  1.0000
  H   H626      1.0  0.36500  0.26003  0.50225  1.0000
  H   H627      1.0  0.21954  0.37000  0.53645  1.0000
  H   H628      1.0  0.00565  0.29294  0.55920  1.0000
  C   C370      1.0  0.99444  0.29606  0.53432  1.0000
  C   C371      1.0  0.09293  0.42694  0.23111  1.0000
  C   C372      1.0  0.43323  0.28790  0.24770  1.0000
  H   H629      1.0  0.09116  0.42938  0.65241  1.0000
  S   S96       1.0  0.20506  0.34963  0.67799  1.0000
  H   H630      1.0  0.14781  0.34639  0.48684  1.0000
  H   H631      1.0  0.15342  0.35221  0.66304  1.0000
  H   H632      1.0  0.23849  0.22890  0.30096  1.0000
  H   H633      1.0  0.43874  0.35573  0.40015  1.0000
  C   C373      1.0  0.13535  0.35334  0.50198  1.0000
  H   H634      1.0  0.06662  0.40241  0.40767  1.0000
  C   C374      1.0  0.17896  0.29801  0.50056  1.0000
  H   H635      1.0  0.09009  0.37766  0.55687  1.0000
  H   H636      1.0  0.21472  0.43434  0.52400  1.0000
  H   H637      1.0  0.46411  0.43175  0.66827  1.0000
  H   H638      1.0  0.09133  0.31476  0.25175  1.0000
  H   H639      1.0  0.21357  0.33575  0.33654  1.0000
  H   H640      1.0  0.06449  0.29661  0.22966  1.0000
  H   H641      1.0  0.19099  0.38030  0.51469  1.0000
  H   H642      1.0  0.25670  0.40253  0.22038  1.0000
  H   H643      1.0  0.24245  0.39063  0.34137  1.0000
  C   C375      1.0  0.03794  0.33264  0.33797  1.0000
  C   C376      1.0  0.97102  0.28519  0.46762  1.0000
  C   C377      1.0  0.09281  0.40735  0.21144  1.0000
  H   H644      1.0  0.27859  0.42409  0.57736  1.0000
  C   C378      1.0  0.38391  0.44390  0.21317  1.0000
  H   H645      1.0  0.27437  0.29314  0.58884  1.0000
  C   C379      1.0  0.39404  0.42449  0.38684  1.0000
  H   H646      1.0  0.31405  0.41013  0.36030  1.0000
  C   C380      1.0  0.46637  0.45834  0.23317  1.0000
  Fe  Fe52      1.0  0.02777  0.22787  0.63882  1.0000
  H   H647      1.0  0.44311  0.39115  0.43790  1.0000
  C   C381      1.0  0.30805  0.42042  0.27661  1.0000
  C   C382      1.0  0.38330  0.46847  0.21136  1.0000
  H   H648      1.0  0.40149  0.29026  0.30407  1.0000
  C   C383      1.0  0.45240  0.32002  0.29229  1.0000
  C   C384      1.0  0.01860  0.43692  0.48084  1.0000
  S   S97       1.0  0.17357  0.39990  0.41238  1.0000
  S   S98       1.0  0.10887  0.27204  0.44504  1.0000
  H   H649      1.0  0.33370  0.43953  0.50890  1.0000
  C   C385      1.0  0.17839  0.28843  0.45276  1.0000
  S   S99       1.0  0.04194  0.44254  0.62517  1.0000
  H   H650      1.0  0.20199  0.24557  0.52389  1.0000
  H   H651      1.0  0.16732  0.44104  0.52366  1.0000
  S   S100      1.0  0.02966  0.42467  0.21197  1.0000
  H   H652      1.0  0.32351  0.24010  0.24698  1.0000
  H   H653      1.0  0.32714  0.45286  0.37143  1.0000
  C   C386      1.0  0.22300  0.35712  0.31482  1.0000
  C   C387      1.0  0.33212  0.23902  0.20245  1.0000
  H   H654      1.0  0.27667  0.37675  0.61002  1.0000
  H   H655      1.0  0.15731  0.46876  0.45223  1.0000
  C   C388      1.0  0.13588  0.28208  0.46621  1.0000
  C   C389      1.0  0.24493  0.23939  0.37800  1.0000
  C   C390      1.0  0.43745  0.37277  0.46963  1.0000
  Fe  Fe53      1.0  0.99174  0.38816  0.27498  1.0000
  C   C391      1.0  0.37556  0.38143  0.46061  1.0000
  H   H656      1.0  0.01762  0.39940  0.59049  1.0000
  C   C392      1.0  0.05036  0.27725  0.37022  1.0000
  H   H657      1.0  0.02435  0.27956  0.29791  1.0000
  S   S101      1.0  0.43963  0.39432  0.55952  1.0000
  C   C393      1.0  0.04421  0.41831  0.44277  1.0000
  H   H658      1.0  0.02595  0.42423  0.35075  1.0000
  H   H659      1.0  0.33101  0.23841  0.52288  1.0000
  C   C394      1.0  0.23705  0.23075  0.44210  1.0000
  H   H660      1.0  0.30062  0.32233  0.22869  1.0000
  H   H661      1.0  0.43369  0.27308  0.22975  1.0000
  H   H662      1.0  0.25293  0.42872  0.21944  1.0000
  C   C395      1.0  0.29742  0.38346  0.58656  1.0000
  C   C396      1.0  0.32250  0.46838  0.28950  1.0000
  N   N29       1.0  0.13571  0.46349  0.54423  1.0000
  H   H663      1.0  0.43765  0.37503  0.21547  1.0000
  H   H664      1.0  0.36160  0.44860  0.44490  1.0000
  H   H665      1.0  0.97464  0.35861  0.63980  1.0000
  C   C397      1.0  0.09414  0.34480  0.56750  1.0000
  H   H666      1.0  0.27728  0.32064  0.64263  1.0000
  H   H667      1.0  0.45761  0.35185  0.63187  1.0000
  H   H668      1.0  0.07462  0.44854  0.24302  1.0000
  H   H669      1.0  0.34545  0.23813  0.57968  1.0000
  H   H670      1.0  0.41702  0.30668  0.58342  1.0000
  Fe  Fe54      1.0  0.40611  0.22317  0.62040  1.0000
  C   C398      1.0  0.22801  0.28943  0.64506  1.0000
  H   H671      1.0  0.08585  0.43193  0.41723  1.0000
  C   C399      1.0  0.97564  0.32042  0.50180  1.0000
  H   H672      1.0  0.18854  0.35861  0.22386  1.0000
  H   H673      1.0  0.04301  0.30182  0.41011  1.0000
  C   C400      1.0  0.18026  0.35114  0.34985  1.0000
  Fe  Fe55      1.0  0.05171  0.28582  0.60500  1.0000
  C   C401      1.0  0.14361  0.37921  0.47417  1.0000
  C   C402      1.0  0.46616  0.34429  0.65725  1.0000
  H   H674      1.0  0.21548  0.40015  0.30440  1.0000
  C   C403      1.0  0.46220  0.31996  0.66222  1.0000
  H   H675      1.0  0.14983  0.33901  0.31082  1.0000
  H   H676      1.0  0.00421  0.28811  0.69178  1.0000
  H   H677      1.0  0.10734  0.33463  0.66412  1.0000
  H   H678      1.0  0.98858  0.28188  0.28595  1.0000
  C   C404      1.0  0.14536  0.45685  0.64403  1.0000
  Fe  Fe56      1.0  0.46165  0.24982  0.52827  1.0000
  C   C405      1.0  0.31369  0.40001  0.61783  1.0000
  C   C406      1.0  0.37117  0.41559  0.37548  1.0000
  C   C407      1.0  0.21661  0.42113  0.50099  1.0000
  Fe  Fe57      1.0  0.07332  0.26516  0.51686  1.0000
  S   S102      1.0  0.18027  0.42602  0.24692  1.0000
  H   H679      1.0  0.37729  0.36833  0.49382  1.0000
  C   C408      1.0  0.35470  0.41991  0.52701  1.0000
  S   S103      1.0  0.01067  0.25244  0.63766  1.0000
  C   C409      1.0  0.12741  0.38812  0.49399  1.0000
  N   N30       1.0  0.20488  0.36313  0.29379  1.0000
  C   C410      1.0  0.06965  0.42182  0.40252  1.0000
  H   H680      1.0  0.07826  0.42504  0.59300  1.0000
  H   H681      1.0  0.02964  0.26132  0.39463  1.0000
  H   H682      1.0  0.99863  0.32129  0.65954  1.0000
  H   H683      1.0  0.21252  0.42552  0.45915  1.0000
  H   H684      1.0  0.36426  0.42650  0.24254  1.0000
  H   H685      1.0  0.16168  0.37087  0.31603  1.0000
  C   C411      1.0  0.37076  0.38970  0.60793  1.0000
  C   C412      1.0  0.19383  0.39328  0.54134  1.0000
  H   H686      1.0  0.03467  0.34350  0.30140  1.0000
  S   S104      1.0  0.29918  0.39109  0.26507  1.0000
  H   H687      1.0  0.17321  0.33067  0.37530  1.0000
  S   S105      1.0  0.42809  0.30483  0.46218  1.0000
  Fe  Fe58      1.0  0.19956  0.46883  0.22062  1.0000
  C   C413      1.0  0.17773  0.46245  0.50762  1.0000
  H   H688      1.0  0.43182  0.27441  0.37229  1.0000
  C   C414      1.0  0.02010  0.29214  0.31884  1.0000
  H   H689      1.0  0.21587  0.36102  0.40546  1.0000
  C   C415      1.0  0.03132  0.44444  0.34303  1.0000
  C   C416      1.0  0.43495  0.35269  0.44830  1.0000
  N   N31       1.0  0.24363  0.42591  0.48495  1.0000
  S   S106      1.0  0.25053  0.31918  0.36348  1.0000
  H   H690      1.0  0.34622  0.40512  0.50677  1.0000
  C   C417      1.0  0.24624  0.40748  0.45593  1.0000
  H   H691      1.0  0.35266  0.44431  0.60969  1.0000
  H   H692      1.0  0.32879  0.36999  0.21955  1.0000
  H   H693      1.0  0.15162  0.44432  0.62953  1.0000
  H   H694      1.0  0.31179  0.41715  0.61221  1.0000
  C   C418      1.0  0.43312  0.36900  0.53171  1.0000
  H   H695      1.0  0.22626  0.33970  0.21811  1.0000
  H   H696      1.0  0.01622  0.31335  0.23919  1.0000
  H   H697      1.0  0.03992  0.40768  0.49116  1.0000
  Fe  Fe59      1.0  0.16820  0.42489  0.34346  1.0000
  H   H698      1.0  0.07545  0.43206  0.35300  1.0000
  H   H699      1.0  0.33102  0.37325  0.66787  1.0000
  H   H700      1.0  0.25341  0.38349  0.52174  1.0000
  H   H701      1.0  0.39920  0.25974  0.33396  1.0000
  H   H702      1.0  0.01866  0.43569  0.52768  1.0000
  H   H703      1.0  0.23405  0.40313  0.42803  1.0000
  H   H704      1.0  0.31263  0.30181  0.61715  1.0000
  H   H705      1.0  0.42029  0.34136  0.62088  1.0000
  H   H706      1.0  0.08199  0.40072  0.63469  1.0000
  S   S107      1.0  0.11738  0.40096  0.20937  1.0000
  C   C419      1.0  0.35246  0.37273  0.45040  1.0000
  H   H707      1.0  0.38064  0.40223  0.63159  1.0000
  S   S108      1.0  0.20414  0.30563  0.52773  1.0000
  H   H708      1.0  0.11613  0.42856  0.52557  1.0000
  C   C420      1.0  0.31442  0.42497  0.32697  1.0000
  N   N32       1.0  0.45350  0.29853  0.27475  1.0000
  S   S109      1.0  0.19816  0.40891  0.67214  1.0000
  S   S110      1.0  0.13049  0.42098  0.34647  1.0000
  H   H709      1.0  0.35276  0.34948  0.22840  1.0000
  H   H710      1.0  0.26219  0.46753  0.46129  1.0000
  H   H711      1.0  0.19407  0.28631  0.43051  1.0000
  H   H712      1.0  0.02854  0.40451  0.43135  1.0000
  H   H713      1.0  0.05808  0.27536  0.32648  1.0000
  H   H714      1.0  0.18384  0.36110  0.38307  1.0000
  H   H715      1.0  0.12731  0.42440  0.58493  1.0000
  C   C421      1.0  0.98048  0.37192  0.66373  1.0000
  H   H716      1.0  0.37569  0.42680  0.51143  1.0000
  Fe  Fe60      1.0  0.05398  0.46896  0.67737  1.0000
  S   S111      1.0  0.27676  0.35319  0.44227  1.0000
  H   H717      1.0  0.02926  0.36249  0.65690  1.0000
  H   H718      1.0  0.30356  0.38847  0.66813  1.0000
  C   C422      1.0  0.26254  0.45343  0.43959  1.0000
  C   C423      1.0  0.19778  0.35053  0.24819  1.0000
  C   C424      1.0  0.97713  0.23731  0.22428  1.0000
  C   C425      1.0  0.10277  0.37096  0.54162  1.0000
  H   H719      1.0  0.43510  0.24622  0.29686  1.0000
  C   C426      1.0  0.42466  0.34473  0.57268  1.0000
  H   H720      1.0  0.10367  0.31597  0.56749  1.0000
  H   H721      1.0  0.06381  0.44802  0.50145  1.0000
  H   H722      1.0  0.46237  0.25289  0.31872  1.0000
  H   H723      1.0  0.28597  0.42534  0.49916  1.0000
  C   C427      1.0  0.25849  0.46019  0.37894  1.0000
  C   C428      1.0  0.01224  0.41289  0.66486  1.0000
  H   H724      1.0  0.43016  0.23699  0.37535  1.0000
  H   H725      1.0  0.36917  0.37098  0.62666  1.0000
  H   H726      1.0  0.39775  0.44269  0.23303  1.0000
  S   S112      1.0  0.16503  0.46881  0.21138  1.0000
  S   S113      1.0  0.06293  0.32234  0.62397  1.0000
  H   H727      1.0  0.24189  0.46291  0.38564  1.0000
  H   H728      1.0  0.08489  0.46670  0.42325  1.0000
  H   H729      1.0  0.25936  0.25919  0.62492  1.0000
  C   C429      1.0  0.11649  0.22562  0.59659  1.0000
  H   H730      1.0  0.43426  0.31216  0.33263  1.0000
  H   H731      1.0  0.38338  0.39831  0.55856  1.0000
  H   H732      1.0  0.00246  0.46315  0.26886  1.0000
  C   C430      1.0  0.24963  0.42408  0.54220  1.0000
  H   H733      1.0  0.11598  0.46636  0.48274  1.0000
  C   C431      1.0  0.23214  0.36922  0.36073  1.0000
  C   C432      1.0  0.35362  0.44334  0.49558  1.0000
  S   S114      1.0  0.31016  0.33780  0.34915  1.0000
  C   C433      1.0  0.35054  0.38968  0.40659  1.0000
  H   H734      1.0  0.04121  0.45449  0.29240  1.0000
  C   C434      1.0  0.29848  0.28229  0.61958  1.0000
  H   H735      1.0  0.28287  0.45799  0.42542  1.0000
  C   C435      1.0  0.15707  0.35104  0.33805  1.0000
  H   H736      1.0  0.20953  0.23582  0.58779  1.0000
  C   C436      1.0  0.11856  0.43439  0.56552  1.0000
  Fe  Fe61      1.0  0.44754  0.46483  0.39764  1.0000
  C   C437      1.0  0.23920  0.38121  0.49992  1.0000
  H   H737      1.0  0.36613  0.46047  0.50486  1.0000
  C   C438      1.0  0.27135  0.27812  0.62926  1.0000
  C   C439      1.0  0.15826  0.30001  0.53024  1.0000
  H   H738      1.0  0.05746  0.33463  0.22037  1.0000
  H   H739      1.0  0.01363  0.44524  0.35855  1.0000
  H   H740      1.0  0.37732  0.43745  0.60047  1.0000
  Fe  Fe62      1.0  0.24177  0.31463  0.46230  1.0000
  N   N33       1.0  0.34190  0.40819  0.59619  1.0000
  S   S115      1.0  0.26130  0.29279  0.47778  1.0000
  S   S116      1.0  0.06827  0.26070  0.61501  1.0000
  C   C440      1.0  0.06524  0.32916  0.25379  1.0000
  C   C441      1.0  0.27790  0.43216  0.53259  1.0000
  C   C442      1.0  0.44848  0.27868  0.33236  1.0000
  H   H741      1.0  0.23959  0.36879  0.47333  1.0000
  H   H742      1.0  0.36900  0.42891  0.34437  1.0000
  C   C443      1.0  0.39637  0.40721  0.42856  1.0000
  S   S117      1.0  0.32535  0.34151  0.49604  1.0000
  N   N34       1.0  0.25747  0.27899  0.68878  1.0000
  S   S118      1.0  0.44279  0.22948  0.63017  1.0000
  N   N35       1.0  0.04424  0.44285  0.43773  1.0000
  S   S119      1.0  0.18970  0.46782  0.31738  1.0000
  C   C444      1.0  0.11041  0.33609  0.54746  1.0000
  H   H743      1.0  0.25604  0.44564  0.35711  1.0000
  C   C445      1.0  0.35454  0.22046  0.51444  1.0000
  H   H744      1.0  0.14064  0.34223  0.38308  1.0000
  H   H745      1.0  0.01946  0.32142  0.37925  1.0000
  H   H746      1.0  0.00635  0.27940  0.36716  1.0000
  H   H747      1.0  0.11926  0.30463  0.64283  1.0000
  H   H748      1.0  0.15781  0.24759  0.56696  1.0000
  C   C446      1.0  0.34329  0.38457  0.61802  1.0000
  H   H749      1.0  0.19136  0.25094  0.59397  1.0000
  H   H750      1.0  0.99777  0.32859  0.55901  1.0000
  H   H751      1.0  0.29781  0.26726  0.65510  1.0000
  H   H752      1.0  0.45034  0.30866  0.64077  1.0000
  H   H753      1.0  0.17009  0.23416  0.48859  1.0000
  C   C447      1.0  0.19427  0.23733  0.57482  1.0000
  H   H754      1.0  0.23483  0.30836  0.65093  1.0000
  H   H755      1.0  0.29835  0.36600  0.58964  1.0000
  S   S120      1.0  0.99024  0.25549  0.49852  1.0000
  H   H756      1.0  0.10353  0.46928  0.55338  1.0000
  H   H757      1.0  0.14110  0.22711  0.64571  1.0000
  H   H758      1.0  0.46593  0.44492  0.27214  1.0000
  H   H759      1.0  0.14066  0.37213  0.67102  1.0000
  C   C448      1.0  0.12100  0.29967  0.68805  1.0000
  C   C449      1.0  0.14175  0.22775  0.59859  1.0000
  H   H760      1.0  0.98789  0.43660  0.21560  1.0000
  H   H761      1.0  0.29207  0.31133  0.68698  1.0000
  C   C450      1.0  0.21990  0.35234  0.19820  1.0000
  H   H762      1.0  0.22058  0.25134  0.68823  1.0000
  H   H763      1.0  0.37191  0.30609  0.69377  1.0000
  H   H764      1.0  0.39244  0.34629  0.69199  1.0000
  C   C451      1.0  0.13818  0.35333  0.69425  1.0000
  C   C452      1.0  0.23024  0.27066  0.69267  1.0000
  H   H765      1.0  0.37774  0.46743  0.25979  1.0000
  S   S121      1.0  0.97082  0.34612  0.49833  1.0000
  H   H766      1.0  0.42384  0.38413  0.69595  1.0000
  H   H767      1.0  0.35201  0.24352  0.19707  1.0000
  H   H768      1.0  0.20578  0.60195  0.15790  1.0000
  H   H769      1.0  0.45342  0.60797  0.89663  1.0000
  H   H770      1.0  0.34121  0.67184  0.03037  1.0000
  H   H771      1.0  0.00481  0.51388  0.15384  1.0000
  S   S122      1.0  0.02229  0.56934  0.05515  1.0000
  H   H772      1.0  0.43061  0.54967  0.83818  1.0000
  H   H773      1.0  0.34276  0.50243  0.76900  1.0000
  S   S123      1.0  0.23827  0.49671  0.14488  1.0000
  H   H774      1.0  0.02208  0.67840  0.74574  1.0000
  H   H775      1.0  0.45416  0.48254  0.81118  1.0000
  H   H776      1.0  0.35496  0.67109  0.90903  1.0000
  H   H777      1.0  0.27871  0.66321  0.05601  1.0000
  H   H778      1.0  0.40562  0.63458  0.80738  1.0000
  H   H779      1.0  0.10659  0.59204  0.74839  1.0000
  H   H780      1.0  0.44012  0.48582  0.75665  1.0000
  H   H781      1.0  0.37951  0.56192  0.94384  1.0000
  C   C453      1.0  0.24266  0.52724  0.13183  1.0000
  Fe  Fe63      1.0  0.16849  0.61667  0.81249  1.0000
  H   H782      1.0  0.13782  0.61306  0.11148  1.0000
  H   H783      1.0  0.17395  0.54468  0.71433  1.0000
  H   H784      1.0  0.19817  0.56535  0.13329  1.0000
  H   H785      1.0  0.29218  0.50265  0.81201  1.0000
  H   H786      1.0  0.46656  0.63483  0.09510  1.0000
  H   H787      1.0  0.18522  0.50053  0.06337  1.0000
  H   H788      1.0  0.34018  0.64480  0.98276  1.0000
  C   C454      1.0  0.01169  0.63540  0.17469  1.0000
  C   C455      1.0  0.42360  0.61322  0.87744  1.0000
  H   H789      1.0  0.30010  0.47981  0.83807  1.0000
  C   C456      1.0  0.05394  0.62071  0.98279  1.0000
  H   H790      1.0  0.22097  0.55514  0.96365  1.0000
  H   H791      1.0  0.43389  0.51444  0.07369  1.0000
  Fe  Fe64      1.0  0.37922  0.50033  0.83776  1.0000
  C   C457      1.0  0.08410  0.55525  0.85853  1.0000
  C   C458      1.0  0.03098  0.67183  0.00030  1.0000
  H   H792      1.0  0.99479  0.48980  0.80198  1.0000
  C   C459      1.0  0.21458  0.53946  0.00669  1.0000
  H   H793      1.0  0.03810  0.53600  0.75357  1.0000
  C   C460      1.0  0.41896  0.60402  0.76133  1.0000
  S   S124      1.0  0.26464  0.61466  0.89941  1.0000
  H   H794      1.0  0.25538  0.70843  0.97723  1.0000
  C   C461      1.0  0.34528  0.53829  0.73635  1.0000
  Fe  Fe65      1.0  0.97272  0.60271  0.96593  1.0000
  H   H795      1.0  0.07858  0.68581  0.78107  1.0000
  C   C462      1.0  0.03739  0.55354  0.73875  1.0000
  Fe  Fe66      1.0  0.15573  0.65817  0.81155  1.0000
  C   C463      1.0  0.01414  0.69935  0.98138  1.0000
  C   C464      1.0  0.06134  0.68588  0.77675  1.0000
  H   H796      1.0  0.33662  0.69842  0.85339  1.0000
  C   C465      1.0  0.16040  0.52608  0.03678  1.0000
  C   C466      1.0  0.06212  0.55191  0.83559  1.0000
  C   C467      1.0  0.43435  0.54430  0.75153  1.0000
  H   H797      1.0  0.33345  0.53626  0.78172  1.0000
  H   H798      1.0  0.10451  0.49159  0.95772  1.0000
  H   H799      1.0  0.34326  0.55004  0.69909  1.0000
  H   H800      1.0  0.32589  0.68175  0.12179  1.0000
  H   H801      1.0  0.20723  0.58879  0.78791  1.0000
  H   H802      1.0  0.16610  0.55969  0.15621  1.0000
  H   H803      1.0  0.07021  0.62686  0.77164  1.0000
  S   S125      1.0  0.44787  0.67447  0.93520  1.0000
  H   H804      1.0  0.36589  0.54943  0.73123  1.0000
  C   C468      1.0  0.07958  0.67161  0.07380  1.0000
  H   H805      1.0  0.03880  0.47706  0.16692  1.0000
  S   S126      1.0  0.30263  0.61165  0.74765  1.0000
  H   H806      1.0  0.16525  0.64020  0.04411  1.0000
  H   H807      1.0  0.31528  0.51270  0.12794  1.0000
  H   H808      1.0  0.04385  0.54140  0.87727  1.0000
  H   H809      1.0  0.38365  0.62372  0.94443  1.0000
  H   H810      1.0  0.06593  0.47777  0.90708  1.0000
  C   C469      1.0  0.06017  0.61324  0.81977  1.0000
  H   H811      1.0  0.11931  0.50656  0.04347  1.0000
  H   H812      1.0  0.18411  0.69197  0.95546  1.0000
  C   C470      1.0  0.02843  0.62040  0.69941  1.0000
  C   C471      1.0  0.31269  0.50212  0.96215  1.0000
  C   C472      1.0  0.27457  0.47279  0.05602  1.0000
  H   H813      1.0  0.26354  0.64326  0.98566  1.0000
  H   H814      1.0  0.28238  0.67818  0.76800  1.0000
  H   H815      1.0  0.29452  0.69503  0.00233  1.0000
  H   H816      1.0  0.04160  0.58608  0.75940  1.0000
  H   H817      1.0  0.28552  0.65096  0.77504  1.0000
  H   H818      1.0  0.05159  0.67007  0.76016  1.0000
  C   C473      1.0  0.20347  0.69578  0.93760  1.0000
  H   H819      1.0  0.00248  0.49740  0.97061  1.0000
  C   C474      1.0  0.40983  0.69026  0.71241  1.0000
  H   H820      1.0  0.01378  0.65449  0.15767  1.0000
  H   H821      1.0  0.42416  0.48172  0.10169  1.0000
  H   H822      1.0  0.03890  0.60316  0.83232  1.0000
  S   S127      1.0  0.03988  0.49485  0.69746  1.0000
  H   H823      1.0  0.15167  0.69852  0.94791  1.0000
  C   C475      1.0  0.44231  0.65989  0.11398  1.0000
  H   H824      1.0  0.30705  0.52333  0.89009  1.0000
  S   S128      1.0  0.24966  0.55789  0.84525  1.0000
  C   C476      1.0  0.44202  0.54756  0.80079  1.0000
  H   H825      1.0  0.45387  0.53992  0.15868  1.0000
  H   H826      1.0  0.04816  0.68118  0.82340  1.0000
  H   H827      1.0  0.11354  0.47732  0.90604  1.0000
  H   H828      1.0  0.29666  0.63615  0.99391  1.0000
  Fe  Fe67      1.0  0.32402  0.59310  0.77309  1.0000
  S   S129      1.0  0.46413  0.51487  0.95160  1.0000
  S   S130      1.0  0.38513  0.49930  0.92617  1.0000
  H   H829      1.0  0.43334  0.48164  0.19172  1.0000
  H   H830      1.0  0.20013  0.50431  0.98729  1.0000
  C   C477      1.0  0.04151  0.56883  0.78235  1.0000
  H   H831      1.0  0.15619  0.47414  0.99938  1.0000
  H   H832      1.0  0.39929  0.56971  0.84289  1.0000
  Fe  Fe68      1.0  0.27922  0.59484  0.84877  1.0000
  H   H833      1.0  0.07831  0.66079  0.92195  1.0000
  H   H834      1.0  0.20964  0.54528  0.04619  1.0000
  C   C478      1.0  0.23259  0.55574  0.17042  1.0000
  H   H835      1.0  0.33880  0.63230  0.79733  1.0000
  S   S131      1.0  0.31809  0.47225  0.05139  1.0000
  H   H836      1.0  0.33315  0.51081  0.93600  1.0000
  S   S132      1.0  0.41355  0.71313  0.90806  1.0000
  C   C479      1.0  0.13620  0.52607  0.03223  1.0000
  C   C480      1.0  0.24368  0.70508  0.94976  1.0000
  C   C481      1.0  0.07387  0.59551  0.97985  1.0000
  H   H837      1.0  0.30854  0.65814  0.91894  1.0000
  C   C482      1.0  0.29079  0.67540  0.00634  1.0000
  H   H838      1.0  0.08833  0.56877  0.88370  1.0000
  C   C483      1.0  0.23859  0.70113  0.85510  1.0000
  H   H839      1.0  0.20290  0.69571  0.84882  1.0000
  H   H840      1.0  0.16485  0.48880  0.79472  1.0000
  H   H841      1.0  0.33597  0.55134  0.98794  1.0000
  H   H842      1.0  0.99317  0.51378  0.06492  1.0000
  C   C484      1.0  0.97902  0.51012  0.94103  1.0000
  C   C485      1.0  0.19023  0.59294  0.92893  1.0000
  H   H843      1.0  0.43384  0.67150  0.10130  1.0000
  H   H844      1.0  0.21590  0.61369  0.07734  1.0000
  Fe  Fe69      1.0  0.01289  0.71346  0.10926  1.0000
  S   S133      1.0  0.24926  0.69866  0.78421  1.0000
  C   C486      1.0  0.21435  0.60254  0.93490  1.0000
  S   S134      1.0  0.29792  0.55588  0.76429  1.0000
  Fe  Fe70      1.0  0.04561  0.48609  0.78613  1.0000
  C   C487      1.0  0.39080  0.61954  0.85292  1.0000
  C   C488      1.0  0.00061  0.49256  0.88559  1.0000
  C   C489      1.0  0.36510  0.67231  0.77728  1.0000
  H   H845      1.0  0.35715  0.70451  0.93225  1.0000
  C   C490      1.0  0.32517  0.68975  0.07707  1.0000
  C   C491      1.0  0.14810  0.48493  0.01820  1.0000
  C   C492      1.0  0.24175  0.51923  0.70226  1.0000
  H   H846      1.0  0.30153  0.58231  0.19557  1.0000
  C   C493      1.0  0.07716  0.64262  0.93795  1.0000
  C   C494      1.0  0.08938  0.58894  0.73831  1.0000
  H   H847      1.0  0.22946  0.51679  0.74625  1.0000
  H   H848      1.0  0.03865  0.62306  0.73008  1.0000
  H   H849      1.0  0.37454  0.63951  0.89368  1.0000
  C   C495      1.0  0.99302  0.58063  0.19454  1.0000
  C   C496      1.0  0.25979  0.47930  0.02942  1.0000
  H   H850      1.0  0.42164  0.57940  0.93569  1.0000
  H   H851      1.0  0.05695  0.58190  0.88369  1.0000
  S   S135      1.0  0.14586  0.62814  0.76869  1.0000
  S   S136      1.0  0.33604  0.47283  0.88338  1.0000
  C   C497      1.0  0.01695  0.65692  0.97074  1.0000
  H   H852      1.0  0.01815  0.64067  0.96592  1.0000
  H   H853      1.0  0.43828  0.63030  0.83454  1.0000
  C   C498      1.0  0.33699  0.65267  0.94198  1.0000
  C   C499      1.0  0.15367  0.70641  0.11159  1.0000
  C   C500      1.0  0.03703  0.49030  0.18935  1.0000
  H   H854      1.0  0.01794  0.54717  0.73686  1.0000
  S   S137      1.0  0.99418  0.58392  0.93697  1.0000
  H   H855      1.0  0.97604  0.58551  0.82655  1.0000
  Fe  Fe71      1.0  0.27496  0.57337  0.74657  1.0000
  H   H856      1.0  0.15770  0.58658  0.08221  1.0000
  H   H857      1.0  0.39018  0.50229  0.07118  1.0000
  S   S138      1.0  0.04339  0.70904  0.05180  1.0000
  C   C501      1.0  0.39755  0.58667  0.82642  1.0000
  C   C502      1.0  0.98300  0.49493  0.10364  1.0000
  C   C503      1.0  0.97436  0.50557  0.84638  1.0000
  S   S139      1.0  0.19267  0.68808  0.73068  1.0000
  C   C504      1.0  0.38942  0.63473  0.89552  1.0000
  C   C505      1.0  0.10532  0.68922  0.07926  1.0000
  H   H858      1.0  0.41696  0.61991  0.73832  1.0000
  H   H859      1.0  0.03738  0.62197  0.00227  1.0000
  H   H860      1.0  0.37242  0.61099  0.84471  1.0000
  H   H861      1.0  0.99252  0.58454  0.14785  1.0000
  H   H862      1.0  0.40288  0.62628  0.16249  1.0000
  H   H863      1.0  0.31534  0.56789  0.08309  1.0000
  H   H864      1.0  0.98889  0.68982  0.93157  1.0000
  H   H865      1.0  0.46535  0.70490  0.01331  1.0000
  C   C506      1.0  0.46329  0.69099  0.16026  1.0000
  S   S140      1.0  0.08712  0.51925  0.74758  1.0000
  Fe  Fe72      1.0  0.09736  0.49148  0.72380  1.0000
  C   C507      1.0  0.30082  0.48363  0.02181  1.0000
  H   H866      1.0  0.08689  0.57578  0.71222  1.0000
  C   C508      1.0  0.02910  0.69271  0.00698  1.0000
  C   C509      1.0  0.33843  0.51168  0.73246  1.0000
  C   C510      1.0  0.03577  0.71737  0.79311  1.0000
  H   H867      1.0  0.11357  0.61583  0.91515  1.0000
  H   H868      1.0  0.02068  0.69686  0.82316  1.0000
  H   H869      1.0  0.13688  0.70408  0.14660  1.0000
  H   H870      1.0  0.41694  0.59206  0.73221  1.0000
  H   H871      1.0  0.09390  0.64012  0.04505  1.0000
  C   C511      1.0  0.18751  0.58734  0.87661  1.0000
  H   H872      1.0  0.22019  0.66896  0.14155  1.0000
  C   C512      1.0  0.32246  0.67089  0.04249  1.0000
  C   C513      1.0  0.00031  0.49663  0.14051  1.0000
  C   C514      1.0  0.43474  0.59620  0.89175  1.0000
  H   H873      1.0  0.01899  0.50157  0.10674  1.0000
  C   C515      1.0  0.27224  0.66445  0.97322  1.0000
  C   C516      1.0  0.31333  0.65540  0.96036  1.0000
  C   C517      1.0  0.00116  0.66286  0.94757  1.0000
  H   H874      1.0  0.05994  0.53834  0.81100  1.0000
  S   S141      1.0  0.15828  0.57756  0.86618  1.0000
  C   C518      1.0  0.40330  0.51548  0.16883  1.0000
  H   H875      1.0  0.06637  0.67853  0.08699  1.0000
  H   H876      1.0  0.40846  0.65310  0.88022  1.0000
  C   C519      1.0  0.33804  0.70269  0.94114  1.0000
  H   H877      1.0  0.01386  0.59319  0.18710  1.0000
  H   H878      1.0  0.98003  0.48018  0.08241  1.0000
  H   H879      1.0  0.02381  0.55752  0.82578  1.0000
  C   C520      1.0  0.46336  0.54610  0.80425  1.0000
  C   C521      1.0  0.23562  0.60650  0.88859  1.0000
  H   H880      1.0  0.17601  0.54681  0.02041  1.0000
  C   C522      1.0  0.20906  0.59230  0.82929  1.0000
  C   C523      1.0  0.37747  0.57900  0.93497  1.0000
  C   C524      1.0  0.14623  0.47064  0.81514  1.0000
  H   H881      1.0  0.99469  0.69762  0.75997  1.0000
  H   H882      1.0  0.14425  0.47163  0.11541  1.0000
  H   H883      1.0  0.35037  0.67433  0.80533  1.0000
  H   H884      1.0  0.19447  0.54705  0.91707  1.0000
  H   H885      1.0  0.19692  0.52864  0.84212  1.0000
  H   H886      1.0  0.11819  0.68169  0.96565  1.0000
  H   H887      1.0  0.14052  0.53886  0.98636  1.0000
  S   S142      1.0  0.17534  0.64425  0.86191  1.0000
  H   H888      1.0  0.98224  0.61540  0.77881  1.0000
  C   C525      1.0  0.12725  0.66493  0.06719  1.0000
  C   C526      1.0  0.39079  0.69312  0.74814  1.0000
  C   C527      1.0  0.00025  0.68449  0.95148  1.0000
  H   H889      1.0  0.10841  0.70887  0.06998  1.0000
  H   H890      1.0  0.23161  0.53788  0.00548  1.0000
  S   S143      1.0  0.30250  0.57907  0.87520  1.0000
  H   H891      1.0  0.22047  0.64016  0.16506  1.0000
  C   C528      1.0  0.18456  0.51384  0.88940  1.0000
  S   S144      1.0  0.20560  0.69915  0.04704  1.0000
  C   C529      1.0  0.23303  0.60172  0.83546  1.0000
  C   C530      1.0  0.21830  0.69965  0.97362  1.0000
  C   C531      1.0  0.06865  0.59373  0.83367  1.0000
  C   C532      1.0  0.15236  0.71134  0.04719  1.0000
  H   H892      1.0  0.03456  0.48280  0.02271  1.0000
  C   C533      1.0  0.05212  0.59709  0.00307  1.0000
  H   H893      1.0  0.41120  0.71317  0.16383  1.0000
  H   H894      1.0  0.01326  0.71598  0.98465  1.0000
  C   C534      1.0  0.10151  0.48546  0.91900  1.0000
  N   N36       1.0  0.16948  0.51263  0.00102  1.0000
  H   H895      1.0  0.30375  0.67482  0.80289  1.0000
  H   H896      1.0  0.18641  0.61652  0.02933  1.0000
  H   H897      1.0  0.07784  0.53615  0.89108  1.0000
  H   H898      1.0  0.17372  0.58995  0.96442  1.0000
  H   H899      1.0  0.00113  0.55075  0.18775  1.0000
  H   H900      1.0  0.11343  0.50044  0.16826  1.0000
  H   H901      1.0  0.30162  0.52301  0.70800  1.0000
  N   N37       1.0  0.46759  0.67640  0.12039  1.0000
  H   H902      1.0  0.19596  0.50569  0.90101  1.0000
  H   H903      1.0  0.28021  0.55762  0.17579  1.0000
  C   C535      1.0  0.37702  0.64562  0.73450  1.0000
  H   H904      1.0  0.31463  0.59586  0.08570  1.0000
  C   C536      1.0  0.26481  0.57256  0.06789  1.0000
  H   H905      1.0  0.38061  0.58587  0.97321  1.0000
  H   H906      1.0  0.35336  0.71437  0.73936  1.0000
  H   H907      1.0  0.16652  0.49837  0.88858  1.0000
  C   C537      1.0  0.17805  0.52678  0.93332  1.0000
  H   H908      1.0  0.15517  0.68934  0.12724  1.0000
  N   N38       1.0  0.12904  0.69024  0.04186  1.0000
  S   S145      1.0  0.09859  0.53763  0.17233  1.0000
  C   C538      1.0  0.11283  0.64328  0.04413  1.0000
  H   H909      1.0  0.34364  0.70881  0.05132  1.0000
  H   H910      1.0  0.27305  0.70890  0.87269  1.0000
  H   H911      1.0  0.07260  0.57729  0.99594  1.0000
  S   S146      1.0  0.36748  0.61570  0.72646  1.0000
  H   H912      1.0  0.44535  0.65312  0.07506  1.0000
  H   H913      1.0  0.04243  0.66651  0.01978  1.0000
  H   H914      1.0  0.12521  0.64747  0.99682  1.0000
  H   H915      1.0  0.38578  0.51131  0.15807  1.0000
  C   C539      1.0  0.25378  0.70555  0.89052  1.0000
  H   H916      1.0  0.22769  0.47885  0.72681  1.0000
  H   H917      1.0  0.43905  0.58934  0.85404  1.0000
  H   H918      1.0  0.16248  0.52886  0.92376  1.0000
  H   H919      1.0  0.30741  0.65090  0.07617  1.0000
  H   H920      1.0  0.25580  0.66712  0.98893  1.0000
  S   S147      1.0  0.40349  0.53799  0.75726  1.0000
  H   H921      1.0  0.13406  0.48400  0.99653  1.0000
  C   C540      1.0  0.15311  0.61878  0.06698  1.0000
  H   H922      1.0  0.34352  0.58293  0.94783  1.0000
  C   C541      1.0  0.07046  0.71256  0.73061  1.0000
  C   C542      1.0  0.09856  0.64079  0.91251  1.0000
  C   C543      1.0  0.34875  0.56839  0.94414  1.0000
  H   H923      1.0  0.08917  0.60499  0.82945  1.0000
  N   N39       1.0  0.18017  0.61082  0.12527  1.0000
  C   C544      1.0  0.13356  0.69708  0.97434  1.0000
  H   H924      1.0  0.97710  0.61339  0.15862  1.0000
  N   N40       1.0  0.39739  0.59963  0.87299  1.0000
  S   S148      1.0  0.27028  0.71648  0.08082  1.0000
  H   H925      1.0  0.99313  0.68320  0.70328  1.0000
  C   C545      1.0  0.30009  0.56734  0.17595  1.0000
  C   C546      1.0  0.35842  0.64848  0.77177  1.0000
  H   H926      1.0  0.11779  0.65662  0.11831  1.0000
  H   H927      1.0  0.27874  0.58854  0.02492  1.0000
  N   N41       1.0  0.31612  0.67619  0.98639  1.0000
  H   H928      1.0  0.37871  0.57845  0.82019  1.0000
  C   C547      1.0  0.19185  0.51287  0.01490  1.0000
  H   H929      1.0  0.24950  0.60523  0.79888  1.0000
  C   C548      1.0  0.21396  0.69739  0.87766  1.0000
  C   C549      1.0  0.33623  0.71120  0.87879  1.0000
  C   C550      1.0  0.26115  0.54798  0.07673  1.0000
  H   H930      1.0  0.14703  0.66811  0.05634  1.0000
  N   N42       1.0  0.31085  0.49413  0.73898  1.0000
  H   H931      1.0  0.27224  0.54491  0.04070  1.0000
  Fe  Fe73      1.0  0.27453  0.54325  0.86413  1.0000
  H   H932      1.0  0.30868  0.69262  0.08736  1.0000
  C   C551      1.0  0.19542  0.63940  0.11313  1.0000
  H   H933      1.0  0.34412  0.56183  0.90673  1.0000
  C   C552      1.0  0.40287  0.66651  0.70485  1.0000
  S   S149      1.0  0.02168  0.48114  0.87959  1.0000
  C   C553      1.0  0.22798  0.53105  0.17786  1.0000
  H   H934      1.0  0.21110  0.65022  0.06616  1.0000
  H   H935      1.0  0.43880  0.61198  0.76136  1.0000
  H   H936      1.0  0.42282  0.62153  0.91418  1.0000
  H   H937      1.0  0.40531  0.48939  0.02824  1.0000
  H   H938      1.0  0.14323  0.61125  0.03642  1.0000
  H   H939      1.0  0.04688  0.51009  0.15472  1.0000
  H   H940      1.0  0.46508  0.52467  0.11325  1.0000
  S   S150      1.0  0.12688  0.66792  0.85342  1.0000
  H   H941      1.0  0.10944  0.50361  0.87987  1.0000
  C   C554      1.0  0.19821  0.60102  0.12065  1.0000
  H   H942      1.0  0.41962  0.53405  0.13139  1.0000
  H   H943      1.0  0.06469  0.62521  0.84846  1.0000
  S   S151      1.0  0.20656  0.64330  0.73213  1.0000
  Fe  Fe74      1.0  0.98933  0.57017  0.03532  1.0000
  H   H944      1.0  0.31882  0.71242  0.88410  1.0000
  C   C555      1.0  0.09701  0.61729  0.93402  1.0000
  C   C556      1.0  0.44634  0.47370  0.77957  1.0000
  H   H945      1.0  0.10556  0.63059  0.71389  1.0000
  C   C557      1.0  0.31873  0.58150  0.10797  1.0000
  H   H946      1.0  0.05906  0.49854  0.05108  1.0000
  H   H947      1.0  0.00418  0.57881  0.74425  1.0000
  Fe  Fe75      1.0  0.21180  0.67221  0.77758  1.0000
  H   H948      1.0  0.33406  0.54708  0.10589  1.0000
  H   H949      1.0  0.33924  0.71766  0.96057  1.0000
  C   C558      1.0  0.44895  0.54106  0.70396  1.0000
  H   H950      1.0  0.10225  0.56129  0.82081  1.0000
  H   H951      1.0  0.17078  0.71516  0.01456  1.0000
  C   C559      1.0  0.29801  0.50922  0.93622  1.0000
  C   C560      1.0  0.29644  0.67205  0.76559  1.0000
  C   C561      1.0  0.29284  0.48598  0.80405  1.0000
  H   H952      1.0  0.10873  0.62465  0.07416  1.0000
  H   H953      1.0  0.33290  0.63840  0.91870  1.0000
  S   S152      1.0  0.25697  0.60730  0.10816  1.0000
  C   C562      1.0  0.17000  0.60749  0.07464  1.0000
  H   H954      1.0  0.17725  0.57463  0.71409  1.0000
  H   H955      1.0  0.08162  0.67243  0.02642  1.0000
  H   H956      1.0  0.21656  0.60645  0.97556  1.0000
  H   H957      1.0  0.46859  0.54775  0.84346  1.0000
  H   H958      1.0  0.13019  0.53422  0.06530  1.0000
  C   C563      1.0  0.27140  0.49728  0.96948  1.0000
  S   S153      1.0  0.98199  0.64252  0.91590  1.0000
  H   H959      1.0  0.18657  0.57272  0.07598  1.0000
  N   N43       1.0  0.06564  0.57642  0.79639  1.0000
  H   H960      1.0  0.15662  0.51790  0.08636  1.0000
  Fe  Fe76      1.0  0.44824  0.70949  0.88589  1.0000
  H   H961      1.0  0.28169  0.67412  0.92256  1.0000
  C   C564      1.0  0.39645  0.48827  0.07551  1.0000
  C   C565      1.0  0.25087  0.57646  0.11546  1.0000
  C   C566      1.0  0.99451  0.49952  0.93612  1.0000
  H   H962      1.0  0.02326  0.63369  0.13498  1.0000
  C   C567      1.0  0.03019  0.69831  0.71365  1.0000
  H   H963      1.0  0.05134  0.71293  0.86480  1.0000
  S   S154      1.0  0.13305  0.49328  0.73133  1.0000
  C   C568      1.0  0.18631  0.57301  0.12193  1.0000
  H   H964      1.0  0.18265  0.64720  0.11451  1.0000
  C   C569      1.0  0.05434  0.48789  0.01964  1.0000
  H   H965      1.0  0.33938  0.59240  0.10227  1.0000
  H   H966      1.0  0.06862  0.50149  0.97266  1.0000
  C   C570      1.0  0.41693  0.49480  0.10490  1.0000
  S   S155      1.0  0.25213  0.50363  0.93574  1.0000
  C   C571      1.0  0.46673  0.47337  0.72973  1.0000
  H   H967      1.0  0.10143  0.68220  0.12916  1.0000
  C   C572      1.0  0.20784  0.64753  0.15899  1.0000
  C   C573      1.0  0.32244  0.52867  0.14587  1.0000
  C   C574      1.0  0.99036  0.49539  0.84085  1.0000
  H   H968      1.0  0.28354  0.49396  0.69975  1.0000
  H   H969      1.0  0.45364  0.70070  0.14412  1.0000
  H   H970      1.0  0.07009  0.65124  0.10470  1.0000
  H   H971      1.0  0.33237  0.67924  0.70687  1.0000
  H   H972      1.0  0.33536  0.52661  0.16811  1.0000
  S   S156      1.0  0.97312  0.69051  0.10910  1.0000
  N   N44       1.0  0.40815  0.49390  0.16990  1.0000
  H   H973      1.0  0.42612  0.62147  0.18408  1.0000
  C   C575      1.0  0.42080  0.63599  0.17192  1.0000
  C   C576      1.0  0.00912  0.59554  0.70721  1.0000
  C   C577      1.0  0.45539  0.52281  0.16051  1.0000
  H   H974      1.0  0.34604  0.56939  0.17177  1.0000
  H   H975      1.0  0.11749  0.47344  0.10683  1.0000
  H   H976      1.0  0.28388  0.52188  0.17276  1.0000
  N   N45       1.0  0.04960  0.71842  0.73103  1.0000
  C   C578      1.0  0.30837  0.47110  0.72375  1.0000
  S   S157      1.0  0.97090  0.59188  0.06232  1.0000
  H   H977      1.0  0.97483  0.51582  0.97967  1.0000
  H   H978      1.0  0.46839  0.52331  0.18522  1.0000
  H   H979      1.0  0.15264  0.70381  0.70123  1.0000
  C   C579      1.0  0.15749  0.59644  0.18656  1.0000
  H   H980      1.0  0.42734  0.71664  0.08736  1.0000
  C   C580      1.0  0.00614  0.69965  0.71406  1.0000
  H   H981      1.0  0.14079  0.57942  0.18530  1.0000
  C   C581      1.0  0.31890  0.68582  0.70209  1.0000
  C   C582      1.0  0.29888  0.52599  0.19310  1.0000
  H   H982      1.0  0.23942  0.47066  0.05583  1.0000
  C   C583      1.0  0.42897  0.49687  0.19436  1.0000
  N   N46       1.0  0.98976  0.47304  0.19637  1.0000
  H   H983      1.0  0.07426  0.47042  0.04718  1.0000
  Fe  Fe77      1.0  0.34258  0.46977  0.97173  1.0000
  C   C584      1.0  0.07355  0.65971  0.28557  1.0000
  H   H984      1.0  0.24312  0.51133  0.33917  1.0000
  C   C585      1.0  0.06618  0.48395  0.46439  1.0000
  S   S158      1.0  0.13691  0.48627  0.34736  1.0000
  Fe  Fe78      1.0  0.25067  0.60971  0.20154  1.0000
  S   S159      1.0  0.03088  0.71559  0.41545  1.0000
  H   H985      1.0  0.14471  0.57787  0.28508  1.0000
  H   H986      1.0  0.99280  0.61951  0.32083  1.0000
  C   C586      1.0  0.98319  0.65544  0.39388  1.0000
  H   H987      1.0  0.17873  0.60105  0.24937  1.0000
  C   C587      1.0  0.14042  0.47272  0.59598  1.0000
  H   H988      1.0  0.05617  0.69893  0.28999  1.0000
  H   H989      1.0  0.98363  0.63754  0.40113  1.0000
  H   H990      1.0  0.38330  0.56282  0.61570  1.0000
  H   H991      1.0  0.33873  0.64911  0.49195  1.0000
  S   S160      1.0  0.38156  0.55573  0.44716  1.0000
  H   H992      1.0  0.04788  0.49179  0.22015  1.0000
  C   C588      1.0  0.16040  0.59125  0.39035  1.0000
  C   C589      1.0  0.39898  0.56710  0.57392  1.0000
  C   C590      1.0  0.39877  0.52080  0.22905  1.0000
  H   H993      1.0  0.19281  0.64197  0.20372  1.0000
  H   H994      1.0  0.46169  0.65140  0.49914  1.0000
  H   H995      1.0  0.07090  0.49815  0.42016  1.0000
  C   C591      1.0  0.11542  0.50555  0.20778  1.0000
  S   S161      1.0  0.99890  0.69868  0.21200  1.0000
  C   C592      1.0  0.37944  0.66793  0.52412  1.0000
  C   C593      1.0  0.98122  0.58565  0.29359  1.0000
  H   H996      1.0  0.12334  0.47285  0.62275  1.0000
  C   C594      1.0  0.10863  0.52280  0.22155  1.0000
  H   H997      1.0  0.01945  0.61065  0.42616  1.0000
  H   H998      1.0  0.18415  0.70387  0.62418  1.0000
  N   N47       1.0  0.97614  0.58710  0.23501  1.0000
  C   C595      1.0  0.16584  0.63583  0.58760  1.0000
  C   C596      1.0  0.28418  0.53731  0.28013  1.0000
  S   S162      1.0  0.32482  0.66743  0.24563  1.0000
  C   C597      1.0  0.42809  0.64177  0.33462  1.0000
  H   H999      1.0  0.11426  0.64123  0.22497  1.0000
  H   H1000     1.0  0.36383  0.66009  0.39195  1.0000
  C   C598      1.0  0.40932  0.68371  0.50356  1.0000
  Fe  Fe79      1.0  0.06079  0.58755  0.25669  1.0000
  Fe  Fe80      1.0  0.08215  0.52633  0.65799  1.0000
  S   S163      1.0  0.08345  0.54995  0.42591  1.0000
  S   S164      1.0  0.09580  0.50134  0.63082  1.0000
  C   C599      1.0  0.02756  0.59873  0.43889  1.0000
  H   H1001     1.0  0.08195  0.68643  0.33329  1.0000
  C   C600      1.0  0.35731  0.59615  0.55236  1.0000
  C   C601      1.0  0.12621  0.50030  0.29838  1.0000
  H   H1002     1.0  0.12852  0.48056  0.23605  1.0000
  C   C602      1.0  0.33857  0.68961  0.40794  1.0000
  S   S165      1.0  0.20127  0.64068  0.31800  1.0000
  S   S166      1.0  0.32685  0.50993  0.45122  1.0000
  C   C603      1.0  0.33764  0.58301  0.24377  1.0000
  H   H1003     1.0  0.32066  0.53622  0.60248  1.0000
  H   H1004     1.0  0.26353  0.68577  0.31801  1.0000
  H   H1005     1.0  0.44486  0.51190  0.46235  1.0000
  Fe  Fe81      1.0  0.02046  0.53006  0.31805  1.0000
  C   C604      1.0  0.03562  0.64172  0.64968  1.0000
  N   N48       1.0  0.33323  0.71496  0.67770  1.0000
  S   S167      1.0  0.06811  0.68365  0.46028  1.0000
  C   C605      1.0  0.31341  0.65808  0.36876  1.0000
  S   S168      1.0  0.21351  0.58708  0.28489  1.0000
  H   H1006     1.0  0.97740  0.67265  0.46097  1.0000
  H   H1007     1.0  0.28714  0.52796  0.54706  1.0000
  H   H1008     1.0  0.44863  0.62729  0.57287  1.0000
  H   H1009     1.0  0.12781  0.55234  0.44597  1.0000
  H   H1010     1.0  0.00904  0.49523  0.24697  1.0000
  S   S169      1.0  0.04977  0.52022  0.32572  1.0000
  S   S170      1.0  0.26038  0.57080  0.67103  1.0000
  S   S171      1.0  0.04407  0.55625  0.21889  1.0000
  C   C606      1.0  0.25528  0.52132  0.28914  1.0000
  H   H1011     1.0  0.99178  0.61097  0.58868  1.0000
  C   C607      1.0  0.32144  0.62456  0.58668  1.0000
  C   C608      1.0  0.12469  0.59152  0.58623  1.0000
  C   C609      1.0  0.27496  0.68530  0.39899  1.0000
  C   C610      1.0  0.33049  0.56103  0.21786  1.0000
  H   H1012     1.0  0.00363  0.67122  0.38079  1.0000
  C   C611      1.0  0.13736  0.50443  0.48560  1.0000
  H   H1013     1.0  0.35792  0.58318  0.59029  1.0000
  H   H1014     1.0  0.21861  0.54741  0.63807  1.0000
  H   H1015     1.0  0.97802  0.69717  0.35417  1.0000
  S   S172      1.0  0.33108  0.49876  0.29424  1.0000
  H   H1016     1.0  0.28602  0.55308  0.29731  1.0000
  H   H1017     1.0  0.29457  0.69518  0.40094  1.0000
  S   S173      1.0  0.35788  0.49278  0.56632  1.0000
  H   H1018     1.0  0.05035  0.47587  0.37034  1.0000
  C   C612      1.0  0.28905  0.54365  0.43177  1.0000
  S   S174      1.0  0.46476  0.50627  0.55520  1.0000
  H   H1019     1.0  0.08022  0.71364  0.68388  1.0000
  S   S175      1.0  0.27348  0.60213  0.25210  1.0000
  H   H1020     1.0  0.46786  0.47537  0.24342  1.0000
  C   C613      1.0  0.12405  0.49426  0.24627  1.0000
  H   H1021     1.0  0.33207  0.61724  0.50374  1.0000
  C   C614      1.0  0.00862  0.48014  0.22846  1.0000
  H   H1022     1.0  0.16527  0.56989  0.24212  1.0000
  H   H1023     1.0  0.15366  0.51152  0.44165  1.0000
  N   N49       1.0  0.04815  0.58954  0.51465  1.0000
  H   H1024     1.0  0.22084  0.68929  0.44812  1.0000
  Fe  Fe82      1.0  0.36059  0.51286  0.47401  1.0000
  H   H1025     1.0  0.42222  0.49390  0.24413  1.0000
  C   C615      1.0  0.11590  0.57557  0.39962  1.0000
  C   C616      1.0  0.41719  0.49855  0.61519  1.0000
  H   H1026     1.0  0.39216  0.54924  0.56289  1.0000
  S   S176      1.0  0.44376  0.58782  0.31002  1.0000
  H   H1027     1.0  0.29693  0.63951  0.37671  1.0000
  H   H1028     1.0  0.20199  0.52326  0.54378  1.0000
  H   H1029     1.0  0.42977  0.70638  0.69008  1.0000
  Fe  Fe83      1.0  0.46920  0.48734  0.48741  1.0000
  H   H1030     1.0  0.26627  0.66452  0.42627  1.0000
  C   C617      1.0  0.98623  0.55248  0.21851  1.0000
  C   C618      1.0  0.13515  0.58935  0.63085  1.0000
  C   C619      1.0  0.99653  0.59202  0.66623  1.0000
  H   H1031     1.0  0.36914  0.69967  0.60830  1.0000
  S   S177      1.0  0.03566  0.56162  0.35525  1.0000
  H   H1032     1.0  0.18616  0.52583  0.65099  1.0000
  C   C620      1.0  0.26465  0.53595  0.42845  1.0000
  Fe  Fe84      1.0  0.07936  0.69699  0.53432  1.0000
  C   C621      1.0  0.17625  0.56252  0.68554  1.0000
  H   H1033     1.0  0.27592  0.47899  0.34569  1.0000
  H   H1034     1.0  0.14453  0.51444  0.51622  1.0000
  H   H1035     1.0  0.18167  0.54378  0.53388  1.0000
  H   H1036     1.0  0.31112  0.67784  0.66904  1.0000
  H   H1037     1.0  0.97069  0.56514  0.32509  1.0000
  C   C622      1.0  0.37526  0.71864  0.61358  1.0000
  H   H1038     1.0  0.42428  0.58530  0.61813  1.0000
  H   H1039     1.0  0.46388  0.56908  0.40782  1.0000
  H   H1040     1.0  0.41511  0.70041  0.51910  1.0000
  H   H1041     1.0  0.22729  0.64786  0.40973  1.0000
  H   H1042     1.0  0.25467  0.60768  0.55941  1.0000
  C   C623      1.0  0.25447  0.68911  0.49390  1.0000
  H   H1043     1.0  0.01102  0.71739  0.67842  1.0000
  H   H1044     1.0  0.05284  0.70509  0.21673  1.0000
  H   H1045     1.0  0.22166  0.55860  0.20713  1.0000
  H   H1046     1.0  0.98548  0.71749  0.46052  1.0000
  H   H1047     1.0  0.42087  0.55598  0.61577  1.0000
  H   H1048     1.0  0.42087  0.49562  0.65701  1.0000
  H   H1049     1.0  0.30386  0.65239  0.46509  1.0000
  H   H1050     1.0  0.00960  0.55501  0.56884  1.0000
  S   S178      1.0  0.09611  0.56514  0.59090  1.0000
  S   S179      1.0  0.26249  0.64787  0.21127  1.0000
  C   C624      1.0  0.27854  0.70077  0.51050  1.0000
  H   H1051     1.0  0.03627  0.58771  0.60832  1.0000
  H   H1052     1.0  0.24158  0.69509  0.51628  1.0000
  H   H1053     1.0  0.33660  0.58727  0.55856  1.0000
  H   H1054     1.0  0.29136  0.69368  0.49549  1.0000
  H   H1055     1.0  0.41742  0.66433  0.67647  1.0000
  H   H1056     1.0  0.00223  0.59312  0.28322  1.0000
  C   C625      1.0  0.09719  0.61534  0.69478  1.0000
  H   H1057     1.0  0.12045  0.52200  0.35303  1.0000
  C   C626      1.0  0.15647  0.63779  0.54077  1.0000
  H   H1058     1.0  0.41144  0.64359  0.34191  1.0000
  H   H1059     1.0  0.36483  0.71240  0.25149  1.0000
  S   S180      1.0  0.22887  0.54604  0.40336  1.0000
  H   H1060     1.0  0.12683  0.57077  0.66594  1.0000
  C   C627      1.0  0.30345  0.50769  0.69540  1.0000
  H   H1061     1.0  0.01991  0.63542  0.21069  1.0000
  H   H1062     1.0  0.07317  0.62605  0.60218  1.0000
  Fe  Fe85      1.0  0.40109  0.55741  0.35436  1.0000
  C   C628      1.0  0.13686  0.68926  0.61193  1.0000
  C   C629      1.0  0.33052  0.67515  0.30856  1.0000
  H   H1063     1.0  0.31463  0.60424  0.61252  1.0000
  H   H1064     1.0  0.21356  0.51516  0.22023  1.0000
  H   H1065     1.0  0.22775  0.57391  0.48984  1.0000
  H   H1066     1.0  0.04596  0.62374  0.48334  1.0000
  H   H1067     1.0  0.20884  0.70853  0.30487  1.0000
  H   H1068     1.0  0.11237  0.62114  0.65017  1.0000
  H   H1069     1.0  0.12306  0.68185  0.58889  1.0000
  H   H1070     1.0  0.01230  0.57833  0.44977  1.0000
  C   C630      1.0  0.31744  0.66530  0.41857  1.0000
  C   C631      1.0  0.27593  0.58030  0.40210  1.0000
  C   C632      1.0  0.38821  0.49835  0.56356  1.0000
  N   N50       1.0  0.44869  0.58869  0.53083  1.0000
  H   H1071     1.0  0.08179  0.49392  0.48086  1.0000
  H   H1072     1.0  0.06633  0.63711  0.53979  1.0000
  H   H1073     1.0  0.41629  0.52816  0.24060  1.0000
  H   H1074     1.0  0.06422  0.58598  0.58365  1.0000
  C   C633      1.0  0.36953  0.62346  0.55566  1.0000
  C   C634      1.0  0.35607  0.70638  0.34781  1.0000
  H   H1075     1.0  0.29409  0.52941  0.44295  1.0000
  C   C635      1.0  0.02150  0.63853  0.61156  1.0000
  C   C636      1.0  0.16223  0.58596  0.24326  1.0000
  H   H1076     1.0  0.12800  0.61725  0.50509  1.0000
  Fe  Fe86      1.0  0.34978  0.51466  0.35720  1.0000
  H   H1077     1.0  0.39011  0.63027  0.54817  1.0000
  H   H1078     1.0  0.31636  0.47823  0.20590  1.0000
  H   H1079     1.0  0.40257  0.65262  0.43921  1.0000
  C   C637      1.0  0.23359  0.68445  0.41982  1.0000
  C   C638      1.0  0.08910  0.67680  0.30915  1.0000
  S   S181      1.0  0.06400  0.67134  0.63237  1.0000
  H   H1080     1.0  0.08631  0.63926  0.43569  1.0000
  H   H1081     1.0  0.17408  0.49444  0.47697  1.0000
  C   C639      1.0  0.24063  0.49763  0.69116  1.0000
  S   S182      1.0  0.37093  0.55806  0.32126  1.0000
  C   C640      1.0  0.32079  0.51906  0.62618  1.0000
  C   C641      1.0  0.11894  0.51719  0.31276  1.0000
  H   H1082     1.0  0.35280  0.51476  0.68930  1.0000
  C   C642      1.0  0.35198  0.69914  0.29814  1.0000
  C   C643      1.0  0.30626  0.56949  0.42325  1.0000
  C   C644      1.0  0.45174  0.66196  0.33024  1.0000
  H   H1083     1.0  0.21149  0.51120  0.60105  1.0000
  C   C645      1.0  0.10727  0.65133  0.24775  1.0000
  Fe  Fe87      1.0  0.11021  0.71115  0.39938  1.0000
  H   H1084     1.0  0.34553  0.71721  0.58348  1.0000
  H   H1085     1.0  0.16172  0.53725  0.60752  1.0000
  C   C646      1.0  0.25307  0.59525  0.53167  1.0000
  Fe  Fe88      1.0  0.34999  0.55322  0.41652  1.0000
  H   H1086     1.0  0.41583  0.64134  0.21218  1.0000
  Fe  Fe89      1.0  0.07499  0.54902  0.22997  1.0000
  H   H1087     1.0  0.12437  0.51029  0.47322  1.0000
  H   H1088     1.0  0.33624  0.59891  0.21816  1.0000
  C   C647      1.0  0.13403  0.57129  0.41565  1.0000
  S   S183      1.0  0.13350  0.70314  0.32991  1.0000
  C   C648      1.0  0.00183  0.61358  0.61992  1.0000
  Fe  Fe90      1.0  0.23747  0.58273  0.33696  1.0000
  C   C649      1.0  0.34001  0.63364  0.52016  1.0000
  H   H1089     1.0  0.38018  0.71829  0.65471  1.0000
  S   S184      1.0  0.34252  0.69957  0.46947  1.0000
  H   H1090     1.0  0.24385  0.66779  0.51797  1.0000
  H   H1091     1.0  0.30710  0.71104  0.59531  1.0000
  H   H1092     1.0  0.12482  0.68169  0.66162  1.0000
  H   H1093     1.0  0.04484  0.60526  0.39794  1.0000
  H   H1094     1.0  0.10484  0.54151  0.28613  1.0000
  C   C650      1.0  0.39324  0.49529  0.61745  1.0000
  Fe  Fe91      1.0  0.06470  0.71822  0.43570  1.0000
  H   H1095     1.0  0.16451  0.65651  0.50616  1.0000
  H   H1096     1.0  0.02259  0.52250  0.57527  1.0000
  S   S185      1.0  0.24792  0.61911  0.35704  1.0000
  C   C651      1.0  0.16836  0.61586  0.35186  1.0000
  C   C652      1.0  0.13579  0.61563  0.54027  1.0000
  H   H1097     1.0  0.40344  0.50708  0.46610  1.0000
  C   C653      1.0  0.43576  0.50438  0.55923  1.0000
  N   N51       1.0  0.25953  0.69590  0.42634  1.0000
  H   H1098     1.0  0.21757  0.58282  0.64428  1.0000
  H   H1099     1.0  0.37153  0.66396  0.57421  1.0000
  C   C654      1.0  0.25826  0.55446  0.41266  1.0000
  H   H1100     1.0  0.31292  0.60777  0.40129  1.0000
  H   H1101     1.0  0.09307  0.63180  0.52795  1.0000
  C   C655      1.0  0.38307  0.66771  0.39566  1.0000
  H   H1102     1.0  0.03497  0.54306  0.61598  1.0000
  S   S186      1.0  0.18897  0.66394  0.59303  1.0000
  H   H1103     1.0  0.26875  0.60780  0.48541  1.0000
  H   H1104     1.0  0.03984  0.69924  0.66701  1.0000
  H   H1105     1.0  0.45820  0.59369  0.64211  1.0000
  H   H1106     1.0  0.18500  0.71378  0.34563  1.0000
  H   H1107     1.0  0.37863  0.49018  0.66094  1.0000
  C   C656      1.0  0.17360  0.57315  0.53720  1.0000
  H   H1108     1.0  0.25086  0.50617  0.26868  1.0000
  H   H1109     1.0  0.28791  0.56604  0.56430  1.0000
  H   H1110     1.0  0.41936  0.69194  0.45273  1.0000
  C   C657      1.0  0.07277  0.62436  0.55757  1.0000
  C   C658      1.0  0.40710  0.50479  0.50773  1.0000
  C   C659      1.0  0.05444  0.59563  0.56829  1.0000
  H   H1111     1.0  0.14916  0.68100  0.60419  1.0000
  H   H1112     1.0  0.16310  0.60998  0.66764  1.0000
  N   N52       1.0  0.36786  0.64310  0.51153  1.0000
  H   H1113     1.0  0.15877  0.55763  0.67455  1.0000
  C   C660      1.0  0.09100  0.62564  0.42209  1.0000
  H   H1114     1.0  0.15245  0.56331  0.54662  1.0000
  H   H1115     1.0  0.38212  0.50340  0.26816  1.0000
  C   C661      1.0  0.15009  0.62038  0.33754  1.0000
  H   H1116     1.0  0.01628  0.59552  0.53329  1.0000
  S   S187      1.0  0.38198  0.51429  0.38238  1.0000
  H   H1117     1.0  0.32161  0.47740  0.67606  1.0000
  H   H1118     1.0  0.11026  0.60346  0.34694  1.0000
  S   S188      1.0  0.06264  0.62507  0.22731  1.0000
  C   C662      1.0  0.44714  0.61638  0.31792  1.0000
  C   C663      1.0  0.22664  0.58301  0.52482  1.0000
  C   C664      1.0  0.20513  0.54161  0.61394  1.0000
  C   C665      1.0  0.15559  0.61157  0.63193  1.0000
  H   H1119     1.0  0.15698  0.49316  0.57737  1.0000
  H   H1120     1.0  0.40171  0.58285  0.53613  1.0000
  H   H1121     1.0  0.42849  0.62680  0.52962  1.0000
  H   H1122     1.0  0.32962  0.63729  0.61155  1.0000
  H   H1123     1.0  0.21306  0.64462  0.48845  1.0000
  H   H1124     1.0  0.27135  0.59466  0.38951  1.0000
  H   H1125     1.0  0.23452  0.54183  0.54121  1.0000
  H   H1126     1.0  0.08060  0.61472  0.68535  1.0000
  N   N53       1.0  0.30382  0.54824  0.21535  1.0000
  H   H1127     1.0  0.43870  0.55201  0.52107  1.0000
  C   C666      1.0  0.17952  0.55327  0.56737  1.0000
  C   C667      1.0  0.10998  0.52822  0.27476  1.0000
  H   H1128     1.0  0.19867  0.64862  0.43486  1.0000
  C   C668      1.0  0.42571  0.61898  0.32934  1.0000
  H   H1129     1.0  0.37335  0.62913  0.43727  1.0000
  C   C669      1.0  0.27455  0.54697  0.59974  1.0000
  C   C670      1.0  0.12191  0.47464  0.51729  1.0000
  S   S189      1.0  0.97787  0.56059  0.66797  1.0000
  C   C671      1.0  0.07229  0.59667  0.46357  1.0000
  C   C672      1.0  0.15301  0.71917  0.58405  1.0000
  C   C673      1.0  0.21758  0.65468  0.43967  1.0000
  H   H1130     1.0  0.30375  0.62441  0.58556  1.0000
  H   H1131     1.0  0.24883  0.53409  0.27075  1.0000
  C   C674      1.0  0.25682  0.50066  0.63491  1.0000
  H   H1132     1.0  0.35813  0.59166  0.23960  1.0000
  H   H1133     1.0  0.41658  0.67222  0.52409  1.0000
  H   H1134     1.0  0.05436  0.65609  0.29180  1.0000
  H   H1135     1.0  0.15626  0.63934  0.30725  1.0000
  C   C675      1.0  0.08249  0.64670  0.25558  1.0000
  C   C676      1.0  0.02891  0.56065  0.53645  1.0000
  C   C677      1.0  0.29958  0.58773  0.40869  1.0000
  S   S190      1.0  0.09393  0.58279  0.25823  1.0000
  C   C678      1.0  0.12328  0.66932  0.26896  1.0000
  H   H1136     1.0  0.17458  0.58760  0.40028  1.0000
  H   H1137     1.0  0.09177  0.62797  0.37470  1.0000
  S   S191      1.0  0.45355  0.68993  0.33909  1.0000
  H   H1138     1.0  0.22496  0.59946  0.50336  1.0000
  C   C679      1.0  0.43061  0.50737  0.50572  1.0000
  H   H1139     1.0  0.31354  0.50450  0.60444  1.0000
  H   H1140     1.0  0.39400  0.53600  0.22359  1.0000
  C   C680      1.0  0.29684  0.71113  0.63951  1.0000
  H   H1141     1.0  0.02542  0.55479  0.49721  1.0000
  H   H1142     1.0  0.25105  0.51587  0.43692  1.0000
  H   H1143     1.0  0.36038  0.62112  0.60414  1.0000
  C   C681      1.0  0.12404  0.60008  0.36010  1.0000
  H   H1144     1.0  0.32587  0.57569  0.29357  1.0000
  C   C682      1.0  0.44784  0.63039  0.52672  1.0000
  H   H1145     1.0  0.04803  0.47942  0.49923  1.0000
  H   H1146     1.0  0.42998  0.56989  0.47439  1.0000
  C   C683      1.0  0.21371  0.52899  0.57192  1.0000
  C   C684      1.0  0.25862  0.54386  0.65641  1.0000
  Fe  Fe92      1.0  0.22683  0.62507  0.29831  1.0000
  H   H1147     1.0  0.05606  0.54775  0.54227  1.0000
  H   H1148     1.0  0.20424  0.59677  0.60416  1.0000
  C   C685      1.0  0.28031  0.68892  0.33053  1.0000
  H   H1149     1.0  0.39701  0.67195  0.35044  1.0000
  H   H1150     1.0  0.36839  0.59621  0.50871  1.0000
  C   C686      1.0  0.20146  0.57779  0.62736  1.0000
  H   H1151     1.0  0.29757  0.70840  0.29981  1.0000
  H   H1152     1.0  0.38948  0.68640  0.40238  1.0000
  C   C687      1.0  0.42379  0.57436  0.58708  1.0000
  H   H1153     1.0  0.21673  0.71798  0.53070  1.0000
  H   H1154     1.0  0.44419  0.61221  0.46045  1.0000
  Fe  Fe93      1.0  0.06744  0.55422  0.35382  1.0000
  H   H1155     1.0  0.17794  0.58880  0.55574  1.0000
  Fe  Fe94      1.0  0.28274  0.63871  0.26830  1.0000
  S   S192      1.0  0.97835  0.49916  0.34974  1.0000
  H   H1156     1.0  0.34142  0.52611  0.61673  1.0000
  H   H1157     1.0  0.98245  0.52511  0.43658  1.0000
  N   N54       1.0  0.20323  0.56399  0.58335  1.0000
  H   H1158     1.0  0.03273  0.70665  0.27927  1.0000
  H   H1159     1.0  0.23578  0.69297  0.37175  1.0000
  H   H1160     1.0  0.44252  0.53751  0.66713  1.0000
  C   C688      1.0  0.05267  0.71098  0.25710  1.0000
  H   H1161     1.0  0.28391  0.67412  0.32047  1.0000
  C   C689      1.0  0.11405  0.68179  0.30044  1.0000
  C   C690      1.0  0.38233  0.64736  0.44652  1.0000
  C   C691      1.0  0.27385  0.52539  0.58947  1.0000
  C   C692      1.0  0.97478  0.60095  0.33055  1.0000
  H   H1162     1.0  0.15012  0.60891  0.19712  1.0000
  H   H1163     1.0  0.14250  0.67295  0.26262  1.0000
  H   H1164     1.0  0.40725  0.60361  0.33310  1.0000
  H   H1165     1.0  0.27166  0.69427  0.56136  1.0000
  H   H1166     1.0  0.28109  0.69098  0.67026  1.0000
  H   H1167     1.0  0.02616  0.65513  0.57479  1.0000
  H   H1168     1.0  0.18476  0.58211  0.48674  1.0000
  H   H1169     1.0  0.29074  0.50770  0.23230  1.0000
  H   H1170     1.0  0.10045  0.71793  0.21196  1.0000
  C   C693      1.0  0.03639  0.54281  0.56926  1.0000
  H   H1171     1.0  0.06694  0.58596  0.43244  1.0000
  H   H1172     1.0  0.33262  0.54626  0.24663  1.0000
  H   H1173     1.0  0.11106  0.63216  0.41976  1.0000
  S   S193      1.0  0.33631  0.57972  0.43000  1.0000
  H   H1174     1.0  0.08382  0.59014  0.48240  1.0000
  C   C694      1.0  0.03465  0.60261  0.49468  1.0000
  H   H1175     1.0  0.37392  0.68110  0.50250  1.0000
  H   H1176     1.0  0.25701  0.58055  0.55168  1.0000
  C   C695      1.0  0.45487  0.61474  0.49207  1.0000
  C   C696      1.0  0.44536  0.57195  0.49233  1.0000
  H   H1177     1.0  0.98622  0.54691  0.26529  1.0000
  H   H1178     1.0  0.28775  0.52489  0.31226  1.0000
  S   S194      1.0  0.25820  0.47438  0.62294  1.0000
  H   H1179     1.0  0.05173  0.56591  0.69102  1.0000
  H   H1180     1.0  0.97164  0.62023  0.22580  1.0000
  H   H1181     1.0  0.97810  0.65948  0.35374  1.0000
  H   H1182     1.0  0.46788  0.57195  0.56939  1.0000
  H   H1183     1.0  0.46349  0.64839  0.19947  1.0000
  C   C697      1.0  0.16101  0.47301  0.49305  1.0000
  Fe  Fe95      1.0  0.18443  0.65687  0.69143  1.0000
  C   C698      1.0  0.98280  0.61369  0.19905  1.0000
  H   H1184     1.0  0.44969  0.67738  0.20811  1.0000
  H   H1185     1.0  0.16078  0.47030  0.65681  1.0000
  H   H1186     1.0  0.18599  0.46978  0.54051  1.0000
  H   H1187     1.0  0.19465  0.46997  0.46453  1.0000
  C   C699      1.0  0.46964  0.58138  0.43562  1.0000
  H   H1188     1.0  0.07905  0.75622  0.06411  1.0000
  H   H1189     1.0  0.11792  0.88692  0.02549  1.0000
  Fe  Fe96      1.0  0.24055  0.72447  0.06340  1.0000
  H   H1190     1.0  0.21413  0.74870  0.89696  1.0000
  S   S195      1.0  0.45155  0.77088  0.79863  1.0000
  H   H1191     1.0  0.10498  0.89694  0.88504  1.0000
  H   H1192     1.0  0.08930  0.95366  0.01631  1.0000
  Fe  Fe97      1.0  0.20224  0.88632  0.04235  1.0000
  C   C700      1.0  0.99912  0.87578  0.70465  1.0000
  S   S196      1.0  0.98057  0.86504  0.00270  1.0000
  H   H1193     1.0  0.25894  0.75985  0.74355  1.0000
  C   C701      1.0  0.06090  0.81100  0.72588  1.0000
  C   C702      1.0  0.24449  0.86400  0.17754  1.0000
  H   H1194     1.0  0.45729  0.90425  0.04972  1.0000
  S   S197      1.0  0.21535  0.81118  0.72166  1.0000
  H   H1195     1.0  0.45930  0.75008  0.10808  1.0000
  N   N55       1.0  0.27791  0.78699  0.78534  1.0000
  C   C703      1.0  0.05286  0.84048  0.08610  1.0000
  H   H1196     1.0  0.01032  0.75785  0.84910  1.0000
  H   H1197     1.0  0.38103  0.76005  0.05396  1.0000
  H   H1198     1.0  0.05765  0.74517  0.14179  1.0000
  H   H1199     1.0  0.19204  0.86272  0.79206  1.0000
  H   H1200     1.0  0.44381  0.82974  0.89266  1.0000
  H   H1201     1.0  0.13865  0.84298  0.88918  1.0000
  H   H1202     1.0  0.26332  0.83438  0.76113  1.0000
  C   C704      1.0  0.97303  0.82177  0.80040  1.0000
  H   H1203     1.0  0.22659  0.96080  0.90677  1.0000
  N   N56       1.0  0.09822  0.75198  0.18971  1.0000
  H   H1204     1.0  0.08793  0.72899  0.13248  1.0000
  H   H1205     1.0  0.02634  0.83395  0.80167  1.0000
  H   H1206     1.0  0.29095  0.81852  0.70197  1.0000
  H   H1207     1.0  0.44009  0.85385  0.85044  1.0000
  H   H1208     1.0  0.09327  0.78062  0.83633  1.0000
  H   H1209     1.0  0.97819  0.82890  0.94963  1.0000
  S   S198      1.0  0.97754  0.91519  0.94431  1.0000
  C   C705      1.0  0.28390  0.89870  0.73455  1.0000
  C   C706      1.0  0.17658  0.84203  0.80612  1.0000
  H   H1210     1.0  0.43319  0.95701  0.11820  1.0000
  S   S199      1.0  0.30297  0.77736  0.07005  1.0000
  C   C707      1.0  0.21396  0.82803  0.02724  1.0000
  C   C708      1.0  0.15732  0.85086  0.73483  1.0000
  H   H1211     1.0  0.46253  0.80208  0.15842  1.0000
  Fe  Fe98      1.0  0.99788  0.90572  0.00027  1.0000
  H   H1212     1.0  0.11300  0.80369  0.75995  1.0000
  H   H1213     1.0  0.05775  0.86228  0.76659  1.0000
  H   H1214     1.0  0.02506  0.72731  0.78860  1.0000
  C   C709      1.0  0.34439  0.72471  0.72268  1.0000
  H   H1215     1.0  0.04530  0.88837  0.72073  1.0000
  Fe  Fe99      1.0  0.01301  0.92858  0.86312  1.0000
  C   C710      1.0  0.40267  0.77082  0.95780  1.0000
  C   C711      1.0  0.05065  0.78944  0.19228  1.0000
  H   H1216     1.0  0.22384  0.75048  0.81899  1.0000
  C   C712      1.0  0.23643  0.83111  0.03487  1.0000
  H   H1217     1.0  0.33600  0.94017  0.05561  1.0000
  C   C713      1.0  0.10528  0.88494  0.06966  1.0000
  C   C714      1.0  0.26818  0.88031  0.18111  1.0000
  C   C715      1.0  0.98518  0.81616  0.95825  1.0000
  H   H1218     1.0  0.24973  0.84859  0.04009  1.0000
  C   C716      1.0  0.17640  0.88053  0.70464  1.0000
  H   H1219     1.0  0.28545  0.86456  0.84603  1.0000
  H   H1220     1.0  0.16175  0.80701  0.88650  1.0000
  Fe  Fe100     1.0  0.97100  0.72529  0.10910  1.0000
  H   H1221     1.0  0.46259  0.80901  0.08325  1.0000
  H   H1222     1.0  0.06944  0.77137  0.73078  1.0000
  C   C717      1.0  0.20153  0.78571  0.02321  1.0000
  H   H1223     1.0  0.08533  0.77832  0.10305  1.0000
  H   H1224     1.0  0.14730  0.73902  0.18733  1.0000
  H   H1225     1.0  0.29804  0.96591  0.83114  1.0000
  C   C718      1.0  0.25151  0.89965  0.09580  1.0000
  H   H1226     1.0  0.44750  0.93401  0.87502  1.0000
  H   H1227     1.0  0.12435  0.87389  0.84064  1.0000
  H   H1228     1.0  0.32358  0.95824  0.73667  1.0000
  H   H1229     1.0  0.04343  0.83822  0.13431  1.0000
  C   C719      1.0  0.32660  0.87948  0.95602  1.0000
  C   C720      1.0  0.27517  0.82745  0.77617  1.0000
  H   H1230     1.0  0.10400  0.94317  0.72234  1.0000
  H   H1231     1.0  0.08349  0.90536  0.92283  1.0000
  C   C721      1.0  0.41006  0.78728  0.16193  1.0000
  C   C722      1.0  0.99180  0.83227  0.73295  1.0000
  C   C723      1.0  0.28324  0.90642  0.14287  1.0000
  Fe  Fe101     1.0  0.36778  0.92150  0.06895  1.0000
  H   H1232     1.0  0.16771  0.89077  0.72345  1.0000
  H   H1233     1.0  0.11901  0.85686  0.79085  1.0000
  S   S200      1.0  0.42826  0.76848  0.96897  1.0000
  C   C724      1.0  0.04823  0.93784  0.04709  1.0000
  H   H1234     1.0  0.11203  0.91143  0.94008  1.0000
  S   S201      1.0  0.02858  0.96574  0.78706  1.0000
  C   C725      1.0  0.04384  0.87297  0.03771  1.0000
  H   H1235     1.0  0.97387  0.95190  0.11699  1.0000
  H   H1236     1.0  0.41487  0.92579  0.89626  1.0000
  H   H1237     1.0  0.28312  0.85651  0.92365  1.0000
  H   H1238     1.0  0.10381  0.78993  0.16704  1.0000
  H   H1239     1.0  0.46919  0.86721  0.14217  1.0000
  H   H1240     1.0  0.11483  0.76079  0.09189  1.0000
  C   C726      1.0  0.30283  0.89584  0.69882  1.0000
  C   C727      1.0  0.34751  0.96000  0.02410  1.0000
  S   S202      1.0  0.38157  0.94764  0.97151  1.0000
  H   H1241     1.0  0.32794  0.84601  0.99766  1.0000
  H   H1242     1.0  0.19537  0.88728  0.70914  1.0000
  H   H1243     1.0  0.43529  0.94693  0.92594  1.0000
  H   H1244     1.0  0.18822  0.76830  0.01832  1.0000
  C   C728      1.0  0.00261  0.78239  0.97813  1.0000
  C   C729      1.0  0.07012  0.93187  0.11387  1.0000
  C   C730      1.0  0.10757  0.80156  0.80915  1.0000
  H   H1245     1.0  0.29709  0.76718  0.86428  1.0000
  C   C731      1.0  0.14399  0.85280  0.83948  1.0000
  H   H1246     1.0  0.22671  0.96135  0.00926  1.0000
  C   C732      1.0  0.34602  0.81171  0.17105  1.0000
  S   S203      1.0  0.99552  0.91457  0.08626  1.0000
  C   C733      1.0  0.17462  0.82839  0.87009  1.0000
  Fe  Fe102     1.0  0.32172  0.88577  0.19077  1.0000
  C   C734      1.0  0.37656  0.94036  0.81142  1.0000
  H   H1247     1.0  0.42698  0.80697  0.14967  1.0000
  C   C735      1.0  0.02371  0.91379  0.15630  1.0000
  H   H1248     1.0  0.12357  0.80279  0.87884  1.0000
  H   H1249     1.0  0.04905  0.94595  0.00186  1.0000
  H   H1250     1.0  0.46193  0.90795  0.84069  1.0000
  H   H1251     1.0  0.02272  0.80014  0.11220  1.0000
  Fe  Fe103     1.0  0.44143  0.75351  0.89952  1.0000
  Fe  Fe104     1.0  0.29921  0.75548  0.00656  1.0000
  Fe  Fe105     1.0  0.27034  0.78008  0.05609  1.0000
  N   N57       1.0  0.33421  0.89997  0.89652  1.0000
  C   C736      1.0  0.34753  0.79216  0.15410  1.0000
  H   H1252     1.0  0.32526  0.92933  0.86901  1.0000
  H   H1253     1.0  0.42242  0.78018  0.07974  1.0000
  H   H1254     1.0  0.29889  0.92461  0.96670  1.0000
  C   C737      1.0  0.24243  0.96060  0.91944  1.0000
  H   H1255     1.0  0.15299  0.73978  0.94018  1.0000
  C   C738      1.0  0.25610  0.77132  0.84806  1.0000
  H   H1256     1.0  0.09337  0.86346  0.98173  1.0000
  S   S204      1.0  0.35147  0.92847  0.15256  1.0000
  C   C739      1.0  0.07831  0.75781  0.10960  1.0000
  Fe  Fe106     1.0  0.16777  0.83602  0.02770  1.0000
  Fe  Fe107     1.0  0.42599  0.73037  0.80609  1.0000
  H   H1257     1.0  0.05265  0.79774  0.82310  1.0000
  H   H1258     1.0  0.01952  0.96653  0.07820  1.0000
  H   H1259     1.0  0.08622  0.72726  0.73982  1.0000
  H   H1260     1.0  0.28631  0.93642  0.07186  1.0000
  H   H1261     1.0  0.09167  0.94667  0.85150  1.0000
  C   C740      1.0  0.97605  0.77293  0.00470  1.0000
  H   H1262     1.0  0.03396  0.86291  0.01009  1.0000
  H   H1263     1.0  0.32796  0.87507  0.84341  1.0000
  N   N58       1.0  0.43848  0.76784  0.14056  1.0000
  H   H1264     1.0  0.45382  0.86151  0.06483  1.0000
  H   H1265     1.0  0.20641  0.92905  0.14941  1.0000
  C   C741      1.0  0.03319  0.81840  0.07163  1.0000
  H   H1266     1.0  0.38111  0.77950  0.84319  1.0000
  S   S205      1.0  0.42786  0.90706  0.77890  1.0000
  C   C742      1.0  0.03987  0.85096  0.75821  1.0000
  H   H1267     1.0  0.43031  0.86382  0.03880  1.0000
  C   C743      1.0  0.09550  0.74923  0.13048  1.0000
  C   C744      1.0  0.22843  0.76171  0.84929  1.0000
  H   H1268     1.0  0.23466  0.93979  0.94395  1.0000
  H   H1269     1.0  0.33574  0.88891  0.98557  1.0000
  C   C745      1.0  0.32739  0.91929  0.90940  1.0000
  S   S206      1.0  0.24120  0.91276  0.04384  1.0000
  H   H1270     1.0  0.30253  0.81155  0.82402  1.0000
  S   S207      1.0  0.09145  0.83837  0.70903  1.0000
  C   C746      1.0  0.07579  0.81038  0.17716  1.0000
  H   H1271     1.0  0.06831  0.83646  0.08641  1.0000
  N   N59       1.0  0.15170  0.83906  0.80203  1.0000
  H   H1272     1.0  0.32356  0.84713  0.92688  1.0000
  S   S208      1.0  0.98258  0.73719  0.77469  1.0000
  H   H1273     1.0  0.97923  0.82734  0.70613  1.0000
  C   C747      1.0  0.13130  0.81039  0.82760  1.0000
  C   C748      1.0  0.02049  0.80887  0.94265  1.0000
  C   C749      1.0  0.45483  0.84996  0.85933  1.0000
  H   H1274     1.0  0.15312  0.72989  0.03430  1.0000
  H   H1275     1.0  0.09608  0.76748  0.70179  1.0000
  C   C750      1.0  0.01185  0.82594  0.93438  1.0000
  H   H1276     1.0  0.45131  0.76470  0.05264  1.0000
  H   H1277     1.0  0.22800  0.77351  0.03242  1.0000
  H   H1278     1.0  0.00542  0.90314  0.19538  1.0000
  C   C751      1.0  0.09589  0.89774  0.92967  1.0000
  H   H1279     1.0  0.98321  0.82494  0.83254  1.0000
  S   S209      1.0  0.13517  0.84255  0.03488  1.0000
  H   H1280     1.0  0.26631  0.81963  0.82700  1.0000
  H   H1281     1.0  0.98748  0.87209  0.75221  1.0000
  H   H1282     1.0  0.37978  0.95592  0.83019  1.0000
  C   C752      1.0  0.05269  0.72862  0.82971  1.0000
  H   H1283     1.0  0.43936  0.95688  0.79113  1.0000
  H   H1284     1.0  0.08362  0.91748  0.79525  1.0000
  H   H1285     1.0  0.39565  0.78974  0.14696  1.0000
  H   H1286     1.0  0.13723  0.72437  0.89469  1.0000
  Fe  Fe108     1.0  0.14322  0.85581  0.11183  1.0000
  C   C753      1.0  0.43501  0.94190  0.88443  1.0000
  H   H1287     1.0  0.34333  0.93483  0.91671  1.0000
  C   C754      1.0  0.02189  0.77101  0.80172  1.0000
  H   H1288     1.0  0.05009  0.96411  0.15945  1.0000
  C   C755      1.0  0.13545  0.72242  0.94287  1.0000
  H   H1289     1.0  0.08962  0.90689  0.03599  1.0000
  H   H1290     1.0  0.11777  0.93589  0.77643  1.0000
  H   H1291     1.0  0.25596  0.75386  0.87099  1.0000
  H   H1292     1.0  0.24576  0.92184  0.85570  1.0000
  H   H1293     1.0  0.07946  0.95437  0.79564  1.0000
  S   S210      1.0  0.37281  0.84358  0.13489  1.0000
  C   C756      1.0  0.32183  0.88825  0.85508  1.0000
  H   H1294     1.0  0.16828  0.83565  0.90489  1.0000
  H   H1295     1.0  0.14151  0.74950  0.12050  1.0000
  S   S211      1.0  0.17337  0.84598  0.10947  1.0000
  H   H1296     1.0  0.25725  0.79840  0.73733  1.0000
  C   C757      1.0  0.44372  0.75309  0.10237  1.0000
  C   C758      1.0  0.12103  0.85544  0.83560  1.0000
  H   H1297     1.0  0.21920  0.92707  0.86606  1.0000
  H   H1298     1.0  0.29540  0.84410  0.76119  1.0000
  H   H1299     1.0  0.13253  0.79058  0.13748  1.0000
  C   C759      1.0  0.10129  0.93736  0.77152  1.0000
  C   C760      1.0  0.30334  0.80055  0.79332  1.0000
  C   C761      1.0  0.02447  0.92306  0.09739  1.0000
  H   H1300     1.0  0.36971  0.75918  0.73761  1.0000
  H   H1301     1.0  0.15776  0.92701  0.98405  1.0000
  C   C762      1.0  0.38131  0.76481  0.00784  1.0000
  C   C763      1.0  0.08194  0.88661  0.06505  1.0000
  H   H1302     1.0  0.04545  0.84470  0.72063  1.0000
  H   H1303     1.0  0.19754  0.95231  0.78925  1.0000
  H   H1304     1.0  0.36519  0.94014  0.78271  1.0000
  H   H1305     1.0  0.13954  0.84694  0.72629  1.0000
  H   H1306     1.0  0.05249  0.89401  0.01337  1.0000
  H   H1307     1.0  0.11774  0.72228  0.96563  1.0000
  C   C764      1.0  0.36448  0.75402  0.69919  1.0000
  H   H1308     1.0  0.00602  0.84403  0.11380  1.0000
  H   H1309     1.0  0.21053  0.84344  0.02542  1.0000
  S   S212      1.0  0.25088  0.87455  0.76094  1.0000
  H   H1310     1.0  0.32634  0.75226  0.16219  1.0000
  H   H1311     1.0  0.31937  0.81548  0.74900  1.0000
  N   N60       1.0  0.06462  0.86755  0.04203  1.0000
  H   H1312     1.0  0.04103  0.81619  0.92278  1.0000
  C   C765      1.0  0.09707  0.95557  0.80118  1.0000
  C   C766      1.0  0.41713  0.77102  0.12990  1.0000
  H   H1313     1.0  0.18449  0.83449  0.77411  1.0000
  H   H1314     1.0  0.09744  0.81168  0.81870  1.0000
  C   C767      1.0  0.40282  0.77700  0.89848  1.0000
  C   C768      1.0  0.02864  0.86789  0.74366  1.0000
  H   H1315     1.0  0.07340  0.74335  0.80239  1.0000
  C   C769      1.0  0.27718  0.76878  0.75217  1.0000
  C   C770      1.0  0.33399  0.85933  0.95054  1.0000
  H   H1316     1.0  0.04336  0.81534  0.03238  1.0000
  H   H1317     1.0  0.37323  0.91752  0.89658  1.0000
  H   H1318     1.0  0.00849  0.96173  0.15658  1.0000
  C   C771      1.0  0.44232  0.96475  0.82802  1.0000
  S   S213      1.0  0.23890  0.74300  0.13265  1.0000
  S   S214      1.0  0.33661  0.87950  0.10501  1.0000
  S   S215      1.0  0.26931  0.81561  0.04817  1.0000
  C   C772      1.0  0.17143  0.94229  0.94026  1.0000
  C   C773      1.0  0.19628  0.80524  0.02215  1.0000
  H   H1319     1.0  0.00083  0.82056  0.73033  1.0000
  Fe  Fe109     1.0  0.36246  0.87273  0.14600  1.0000
  S   S216      1.0  0.33105  0.76181  0.92653  1.0000
  C   C774      1.0  0.38117  0.77555  0.88913  1.0000
  C   C775      1.0  0.04642  0.91758  0.16446  1.0000
  H   H1320     1.0  0.11743  0.90108  0.08283  1.0000
  H   H1321     1.0  0.27694  0.75227  0.78111  1.0000
  S   S217      1.0  0.16209  0.90432  0.89366  1.0000
  C   C776      1.0  0.22412  0.78875  0.03088  1.0000
  C   C777      1.0  0.04585  0.79364  0.78697  1.0000
  H   H1322     1.0  0.28438  0.88562  0.88468  1.0000
  H   H1323     1.0  0.30670  0.90444  0.00986  1.0000
  H   H1324     1.0  0.34246  0.75766  0.03736  1.0000
  C   C778      1.0  0.27483  0.91611  0.10063  1.0000
  C   C779      1.0  0.07107  0.94246  0.05544  1.0000
  H   H1325     1.0  0.32971  0.79493  0.82889  1.0000
  S   S218      1.0  0.01190  0.74938  0.10254  1.0000
  H   H1326     1.0  0.04481  0.73796  0.85553  1.0000
  H   H1327     1.0  0.42027  0.84502  0.11689  1.0000
  C   C780      1.0  0.23870  0.93331  0.83415  1.0000
  H   H1328     1.0  0.01313  0.87582  0.09322  1.0000
  S   S219      1.0  0.99666  0.88998  0.85331  1.0000
  H   H1329     1.0  0.30092  0.91932  0.14746  1.0000
  C   C781      1.0  0.23645  0.87347  0.13403  1.0000
  C   C782      1.0  0.31215  0.78294  0.82020  1.0000
  S   S220      1.0  0.16722  0.80096  0.01746  1.0000
  C   C783      1.0  0.20789  0.79432  0.19518  1.0000
  Fe  Fe110     1.0  0.01508  0.88125  0.91614  1.0000
  H   H1330     1.0  0.10241  0.83921  0.87290  1.0000
  S   S221      1.0  0.17256  0.89726  0.05101  1.0000
  H   H1331     1.0  0.42493  0.88883  0.10076  1.0000
  H   H1332     1.0  0.19425  0.83264  0.86690  1.0000
  C   C784      1.0  0.02220  0.86437  0.09968  1.0000
  C   C785      1.0  0.44242  0.88760  0.09312  1.0000
  H   H1333     1.0  0.09897  0.86678  0.10618  1.0000
  H   H1334     1.0  0.15269  0.77053  0.16256  1.0000
  S   S222      1.0  0.03440  0.92121  0.91929  1.0000
  C   C786      1.0  0.31781  0.94081  0.72632  1.0000
  S   S223      1.0  0.45802  0.72305  0.78404  1.0000
  H   H1335     1.0  0.27259  0.94175  0.89958  1.0000
  C   C787      1.0  0.29197  0.87292  0.87975  1.0000
  S   S224      1.0  0.39501  0.91441  0.10317  1.0000
  H   H1336     1.0  0.14007  0.79941  0.81313  1.0000
  H   H1337     1.0  0.01693  0.86638  0.78857  1.0000
  H   H1338     1.0  0.32857  0.90343  0.81026  1.0000
  C   C788      1.0  0.17628  0.93663  0.88723  1.0000
  H   H1339     1.0  0.02918  0.86736  0.13721  1.0000
  S   S225      1.0  0.09868  0.93692  0.12319  1.0000
  H   H1340     1.0  0.19356  0.73767  0.70608  1.0000
  H   H1341     1.0  0.16449  0.73160  0.75945  1.0000
  H   H1342     1.0  0.22548  0.77798  0.83656  1.0000
  H   H1343     1.0  0.00939  0.76932  0.98462  1.0000
  H   H1344     1.0  0.31779  0.77430  0.78809  1.0000
  S   S226      1.0  0.03444  0.85952  0.89724  1.0000
  C   C789      1.0  0.01281  0.76558  0.75547  1.0000
  S   S227      1.0  0.26943  0.76207  0.98528  1.0000
  H   H1345     1.0  0.07080  0.88422  0.11178  1.0000
  H   H1346     1.0  0.28540  0.89197  0.97043  1.0000
  H   H1347     1.0  0.06671  0.85740  0.96085  1.0000
  C   C790      1.0  0.24147  0.81149  0.03691  1.0000
  H   H1348     1.0  0.35525  0.86825  0.92806  1.0000
  C   C791      1.0  0.17671  0.73971  0.70959  1.0000
  C   C792      1.0  0.18410  0.96786  0.93697  1.0000
  H   H1349     1.0  0.36518  0.79685  0.11934  1.0000
  S   S228      1.0  0.37335  0.90187  0.71733  1.0000
  H   H1350     1.0  0.08973  0.81896  0.13092  1.0000
  H   H1351     1.0  0.44017  0.91719  0.15719  1.0000
  H   H1352     1.0  0.21856  0.86053  0.13061  1.0000
  S   S229      1.0  0.19844  0.87594  0.95984  1.0000
  C   C793      1.0  0.32557  0.76696  0.17832  1.0000
  H   H1353     1.0  0.30319  0.72238  0.71546  1.0000
  C   C794      1.0  0.29144  0.92110  0.74881  1.0000
  H   H1354     1.0  0.40555  0.72747  0.09948  1.0000
  N   N61       1.0  0.45152  0.88996  0.14548  1.0000
  C   C795      1.0  0.11412  0.78043  0.17849  1.0000
  H   H1355     1.0  0.39862  0.75197  0.14614  1.0000
  C   C796      1.0  0.46247  0.79469  0.12002  1.0000
  H   H1356     1.0  0.21066  0.89273  0.19269  1.0000
  C   C797      1.0  0.36337  0.91393  0.86367  1.0000
  H   H1357     1.0  0.17152  0.72335  0.10946  1.0000
  C   C798      1.0  0.46103  0.91798  0.75039  1.0000
  Fe  Fe111     1.0  0.37632  0.91797  0.18963  1.0000
  H   H1358     1.0  0.39594  0.94550  0.78100  1.0000
  C   C799      1.0  0.45753  0.91561  0.15070  1.0000
  C   C800      1.0  0.27491  0.80721  0.74819  1.0000
  H   H1359     1.0  0.46895  0.81138  0.85530  1.0000
  H   H1360     1.0  0.36879  0.90177  0.84335  1.0000
  C   C801      1.0  0.07990  0.87025  0.97931  1.0000
  Fe  Fe112     1.0  0.16630  0.88347  0.97383  1.0000
  H   H1361     1.0  0.16501  0.84174  0.70771  1.0000
  H   H1362     1.0  0.27684  0.92339  0.77617  1.0000
  Fe  Fe113     1.0  0.41440  0.91345  0.70236  1.0000
  C   C802      1.0  0.35927  0.76818  0.93915  1.0000
  H   H1363     1.0  0.41954  0.78285  0.85953  1.0000
  H   H1364     1.0  0.25891  0.78221  0.87967  1.0000
  C   C803      1.0  0.43651  0.86297  0.07839  1.0000
  H   H1365     1.0  0.04550  0.78197  0.15762  1.0000
  H   H1366     1.0  0.01817  0.82138  0.06194  1.0000
  Fe  Fe114     1.0  0.27133  0.73883  0.14326  1.0000
  C   C804      1.0  0.30310  0.90914  0.96722  1.0000
  N   N62       1.0  0.01233  0.86081  0.70566  1.0000
  H   H1367     1.0  0.16091  0.87253  0.82793  1.0000
  H   H1368     1.0  0.23617  0.92860  0.79311  1.0000
  H   H1369     1.0  0.30540  0.86838  0.98305  1.0000
  H   H1370     1.0  0.46094  0.83822  0.78232  1.0000
  C   C805      1.0  0.19371  0.95673  0.83034  1.0000
  C   C806      1.0  0.35947  0.76343  0.99850  1.0000
  H   H1371     1.0  0.46150  0.91722  0.19289  1.0000
  H   H1372     1.0  0.35346  0.73095  0.85009  1.0000
  H   H1373     1.0  0.46516  0.86386  0.87984  1.0000
  C   C807      1.0  0.13978  0.75031  0.16688  1.0000
  C   C808      1.0  0.28405  0.96312  0.87467  1.0000
  C   C809      1.0  0.25777  0.96272  0.81392  1.0000
  C   C810      1.0  0.42038  0.72610  0.11485  1.0000
  H   H1374     1.0  0.19809  0.79017  0.16244  1.0000
  S   S230      1.0  0.39871  0.72241  0.75771  1.0000
  H   H1375     1.0  0.22810  0.81085  0.16672  1.0000
  H   H1376     1.0  0.13769  0.96822  0.82454  1.0000
  H   H1377     1.0  0.28919  0.96236  0.96243  1.0000
  H   H1378     1.0  0.27468  0.96815  0.77304  1.0000
  C   C811      1.0  0.36996  0.96818  0.97468  1.0000
  H   H1379     1.0  0.32863  0.72029  0.76497  1.0000
  H   H1380     1.0  0.21915  0.76749  0.19007  1.0000
  C   C812      1.0  0.44315  0.96892  0.14131  1.0000
  H   H1381     1.0  0.02993  0.91388  0.69809  1.0000
  H   H1382     1.0  0.28975  0.72224  0.49231  1.0000
  S   S231      1.0  0.39426  0.81679  0.38554  1.0000
  H   H1383     1.0  0.16371  0.86679  0.41860  1.0000
  H   H1384     1.0  0.04559  0.90987  0.21007  1.0000
  C   C813      1.0  0.27956  0.95650  0.51664  1.0000
  C   C814      1.0  0.43065  0.86838  0.20540  1.0000
  H   H1385     1.0  0.30041  0.87820  0.47519  1.0000
  H   H1386     1.0  0.97910  0.75018  0.49146  1.0000
  C   C815      1.0  0.24262  0.79558  0.26122  1.0000
  C   C816      1.0  0.29976  0.78068  0.68962  1.0000
  H   H1387     1.0  0.24019  0.75431  0.24651  1.0000
  H   H1388     1.0  0.46601  0.76182  0.21856  1.0000
  H   H1389     1.0  0.32749  0.86065  0.53143  1.0000
  H   H1390     1.0  0.05380  0.84263  0.37570  1.0000
  H   H1391     1.0  0.38054  0.84265  0.67381  1.0000
  C   C817      1.0  0.97752  0.78540  0.37140  1.0000
  S   S232      1.0  0.34782  0.76024  0.49033  1.0000
  Fe  Fe115     1.0  0.98032  0.77800  0.57839  1.0000
  H   H1392     1.0  0.08913  0.78597  0.65067  1.0000
  Fe  Fe116     1.0  0.24226  0.81532  0.63419  1.0000
  H   H1393     1.0  0.02946  0.85959  0.35083  1.0000
  S   S233      1.0  0.15386  0.79414  0.69113  1.0000
  H   H1394     1.0  0.45789  0.80844  0.62285  1.0000
  C   C818      1.0  0.31543  0.72441  0.67035  1.0000
  H   H1395     1.0  0.18112  0.88493  0.51634  1.0000
  H   H1396     1.0  0.29527  0.93088  0.60625  1.0000
  H   H1397     1.0  0.44108  0.77813  0.47880  1.0000
  S   S234      1.0  0.00035  0.75319  0.27156  1.0000
  Fe  Fe117     1.0  0.10951  0.87486  0.62682  1.0000
  H   H1398     1.0  0.18569  0.78433  0.39052  1.0000
  H   H1399     1.0  0.34237  0.82855  0.54698  1.0000
  H   H1400     1.0  0.46586  0.85702  0.61987  1.0000
  H   H1401     1.0  0.42676  0.76503  0.23538  1.0000
  H   H1402     1.0  0.17117  0.83908  0.23376  1.0000
  H   H1403     1.0  0.28721  0.72183  0.63001  1.0000
  H   H1404     1.0  0.97971  0.77070  0.35666  1.0000
  S   S235      1.0  0.14571  0.94357  0.50599  1.0000
  H   H1405     1.0  0.29492  0.84757  0.48604  1.0000
  H   H1406     1.0  0.22606  0.75124  0.50957  1.0000
  S   S236      1.0  0.00033  0.92278  0.40641  1.0000
  H   H1407     1.0  0.36393  0.74641  0.59250  1.0000
  H   H1408     1.0  0.14130  0.84123  0.39931  1.0000
  S   S237      1.0  0.40358  0.80073  0.54114  1.0000
  C   C819      1.0  0.29481  0.77239  0.51592  1.0000
  H   H1409     1.0  0.18068  0.88653  0.65454  1.0000
  C   C820      1.0  0.00200  0.73533  0.45594  1.0000
  H   H1410     1.0  0.29825  0.76491  0.67312  1.0000
  H   H1411     1.0  0.37268  0.72497  0.33954  1.0000
  H   H1412     1.0  0.10045  0.86287  0.30781  1.0000
  C   C821      1.0  0.18724  0.76171  0.57893  1.0000
  S   S238      1.0  0.46860  0.95885  0.47939  1.0000
  H   H1413     1.0  0.29512  0.73387  0.39305  1.0000
  H   H1414     1.0  0.15514  0.81598  0.31142  1.0000
  H   H1415     1.0  0.25824  0.79808  0.22145  1.0000
  C   C822      1.0  0.26297  0.73944  0.41615  1.0000
  H   H1416     1.0  0.43840  0.86789  0.24231  1.0000
  C   C823      1.0  0.46548  0.81495  0.28219  1.0000
  H   H1417     1.0  0.39054  0.85039  0.26828  1.0000
  H   H1418     1.0  0.30510  0.76268  0.51760  1.0000
  C   C824      1.0  0.04081  0.87681  0.36189  1.0000
  C   C825      1.0  0.24528  0.90570  0.45559  1.0000
  S   S239      1.0  0.43118  0.95365  0.63832  1.0000
  Fe  Fe118     1.0  0.99896  0.95362  0.34286  1.0000
  H   H1419     1.0  0.20633  0.80463  0.31364  1.0000
  H   H1420     1.0  0.13354  0.78088  0.24407  1.0000
  H   H1421     1.0  0.17498  0.83540  0.57663  1.0000
  H   H1422     1.0  0.01145  0.87941  0.58406  1.0000
  S   S240      1.0  0.24747  0.78187  0.63932  1.0000
  S   S241      1.0  0.34524  0.87558  0.23526  1.0000
  H   H1423     1.0  0.00529  0.91421  0.67399  1.0000
  H   H1424     1.0  0.18100  0.84550  0.34898  1.0000
  H   H1425     1.0  0.40356  0.82177  0.63693  1.0000
  H   H1426     1.0  0.34518  0.93195  0.33697  1.0000
  S   S242      1.0  0.27338  0.73242  0.23548  1.0000
  S   S243      1.0  0.27852  0.86816  0.23446  1.0000
  H   H1427     1.0  0.98480  0.86905  0.68243  1.0000
  H   H1428     1.0  0.03406  0.88724  0.44413  1.0000
  C   C826      1.0  0.04831  0.76265  0.42902  1.0000
  H   H1429     1.0  0.04636  0.74812  0.67537  1.0000
  H   H1430     1.0  0.28275  0.77632  0.26977  1.0000
  H   H1431     1.0  0.29059  0.96277  0.61112  1.0000
  S   S244      1.0  0.15904  0.96439  0.63925  1.0000
  N   N63       1.0  0.21745  0.77021  0.27910  1.0000
  H   H1432     1.0  0.99017  0.85748  0.21532  1.0000
  H   H1433     1.0  0.36233  0.94147  0.38564  1.0000
  H   H1434     1.0  0.11081  0.87960  0.35874  1.0000
  Fe  Fe119     1.0  0.36264  0.74269  0.43223  1.0000
  H   H1435     1.0  0.09451  0.94463  0.36094  1.0000
  C   C827      1.0  0.01731  0.90553  0.67323  1.0000
  C   C828      1.0  0.28406  0.79976  0.45816  1.0000
  C   C829      1.0  0.16297  0.83628  0.28279  1.0000
  H   H1436     1.0  0.10221  0.90042  0.26026  1.0000
  C   C830      1.0  0.29761  0.86754  0.39711  1.0000
  C   C831      1.0  0.20280  0.92248  0.19922  1.0000
  H   H1437     1.0  0.00056  0.84541  0.60529  1.0000
  H   H1438     1.0  0.36882  0.84892  0.38286  1.0000
  H   H1439     1.0  0.37720  0.86728  0.43007  1.0000
  C   C832      1.0  0.05183  0.80570  0.67952  1.0000
  C   C833      1.0  0.30214  0.76133  0.21966  1.0000
  Fe  Fe120     1.0  0.11462  0.75324  0.44960  1.0000
  H   H1440     1.0  0.32162  0.92829  0.57084  1.0000
  H   H1441     1.0  0.99650  0.82768  0.32558  1.0000
  C   C834      1.0  0.46331  0.89958  0.44090  1.0000
  C   C835      1.0  0.99356  0.81057  0.31385  1.0000
  H   H1442     1.0  0.41039  0.88430  0.25317  1.0000
  C   C836      1.0  0.09495  0.86255  0.35551  1.0000
  C   C837      1.0  0.34634  0.92467  0.38172  1.0000
  C   C838      1.0  0.08763  0.95756  0.56900  1.0000
  H   H1443     1.0  0.43758  0.85885  0.44937  1.0000
  C   C839      1.0  0.04475  0.78152  0.44522  1.0000
  H   H1444     1.0  0.27558  0.76019  0.38569  1.0000
  C   C840      1.0  0.42922  0.75329  0.20834  1.0000
  S   S245      1.0  0.22229  0.82405  0.57604  1.0000
  H   H1445     1.0  0.17804  0.88315  0.20864  1.0000
  H   H1446     1.0  0.24364  0.91304  0.22204  1.0000
  C   C841      1.0  0.25294  0.79961  0.31294  1.0000
  H   H1447     1.0  0.10459  0.91217  0.34852  1.0000
  C   C842      1.0  0.19450  0.95209  0.65564  1.0000
  H   H1448     1.0  0.02478  0.77988  0.34279  1.0000
  C   C843      1.0  0.46553  0.77690  0.62870  1.0000
  H   H1449     1.0  0.23244  0.84405  0.20822  1.0000
  C   C844      1.0  0.20921  0.73092  0.53097  1.0000
  S   S246      1.0  0.14260  0.79370  0.43862  1.0000
  H   H1450     1.0  0.32307  0.90090  0.51806  1.0000
  S   S247      1.0  0.11087  0.88168  0.52970  1.0000
  S   S248      1.0  0.18693  0.92456  0.41637  1.0000
  H   H1451     1.0  0.09307  0.84507  0.38509  1.0000
  H   H1452     1.0  0.27383  0.75597  0.61402  1.0000
  C   C845      1.0  0.03220  0.77851  0.25202  1.0000
  H   H1453     1.0  0.06323  0.85697  0.42828  1.0000
  C   C846      1.0  0.21787  0.95769  0.66265  1.0000
  H   H1454     1.0  0.35223  0.89974  0.33859  1.0000
  C   C847      1.0  0.02690  0.73962  0.43395  1.0000
  C   C848      1.0  0.08324  0.93051  0.34188  1.0000
  H   H1455     1.0  0.11070  0.73700  0.25626  1.0000
  H   H1456     1.0  0.38098  0.88255  0.35223  1.0000
  H   H1457     1.0  0.07438  0.74148  0.28424  1.0000
  Fe  Fe121     1.0  0.43277  0.93676  0.56455  1.0000
  H   H1458     1.0  0.06128  0.79924  0.44149  1.0000
  H   H1459     1.0  0.43180  0.77870  0.62337  1.0000
  S   S249      1.0  0.27127  0.85730  0.61258  1.0000
  H   H1460     1.0  0.32165  0.82094  0.22749  1.0000
  H   H1461     1.0  0.27832  0.72952  0.34388  1.0000
  H   H1462     1.0  0.03721  0.85409  0.64108  1.0000
  H   H1463     1.0  0.18708  0.75334  0.24419  1.0000
  S   S250      1.0  0.39759  0.93922  0.24296  1.0000
  C   C849      1.0  0.19323  0.72474  0.59800  1.0000
  H   H1464     1.0  0.43750  0.73444  0.27913  1.0000
  C   C850      1.0  0.29916  0.78882  0.45974  1.0000
  H   H1465     1.0  0.45350  0.88409  0.56249  1.0000
  H   H1466     1.0  0.06764  0.76608  0.41210  1.0000
  H   H1467     1.0  0.20792  0.73450  0.61724  1.0000
  H   H1468     1.0  0.12422  0.75285  0.65419  1.0000
  H   H1469     1.0  0.46653  0.93029  0.65472  1.0000
  C   C851      1.0  0.07213  0.74005  0.24044  1.0000
  C   C852      1.0  0.99841  0.75385  0.47354  1.0000
  H   H1470     1.0  0.14291  0.72641  0.68681  1.0000
  H   H1471     1.0  0.44637  0.75458  0.55989  1.0000
  S   S251      1.0  0.98973  0.87103  0.32294  1.0000
  S   S252      1.0  0.34697  0.85503  0.63158  1.0000
  C   C853      1.0  0.36853  0.86506  0.39496  1.0000
  H   H1472     1.0  0.07211  0.74513  0.63626  1.0000
  H   H1473     1.0  0.23035  0.74769  0.32653  1.0000
  C   C854      1.0  0.02567  0.87033  0.43000  1.0000
  C   C855      1.0  0.30623  0.93101  0.56263  1.0000
  H   H1474     1.0  0.11867  0.75268  0.55574  1.0000
  Fe  Fe122     1.0  0.37884  0.88964  0.63700  1.0000
  H   H1475     1.0  0.13167  0.80860  0.21911  1.0000
  C   C856      1.0  0.44729  0.78701  0.64125  1.0000
  S   S253      1.0  0.36554  0.76720  0.34454  1.0000
  C   C857      1.0  0.36070  0.83771  0.61116  1.0000
  Fe  Fe123     1.0  0.35329  0.78665  0.40242  1.0000
  H   H1476     1.0  0.09269  0.94008  0.29109  1.0000
  C   C858      1.0  0.23552  0.93280  0.39221  1.0000
  C   C859      1.0  0.06429  0.80891  0.28166  1.0000
  H   H1477     1.0  0.43720  0.78055  0.69168  1.0000
  H   H1478     1.0  0.44949  0.85791  0.53981  1.0000
  Fe  Fe124     1.0  0.19651  0.82156  0.66257  1.0000
  H   H1479     1.0  0.39364  0.73406  0.57422  1.0000
  C   C860      1.0  0.30678  0.86758  0.45142  1.0000
  S   S254      1.0  0.22105  0.86406  0.64315  1.0000
  H   H1480     1.0  0.25116  0.91645  0.28771  1.0000
  H   H1481     1.0  0.13445  0.86431  0.41727  1.0000
  H   H1482     1.0  0.20235  0.85668  0.27358  1.0000
  H   H1483     1.0  0.05911  0.85194  0.27948  1.0000
  C   C861      1.0  0.32914  0.91514  0.67776  1.0000
  S   S255      1.0  0.98243  0.92968  0.28868  1.0000
  H   H1484     1.0  0.10332  0.78010  0.27349  1.0000
  C   C862      1.0  0.08275  0.82002  0.22182  1.0000
  C   C863      1.0  0.26714  0.79694  0.51330  1.0000
  C   C864      1.0  0.15034  0.86193  0.39391  1.0000
  C   C865      1.0  0.20965  0.89719  0.30843  1.0000
  H   H1485     1.0  0.24064  0.80265  0.34802  1.0000
  H   H1486     1.0  0.17286  0.78032  0.33161  1.0000
  H   H1487     1.0  0.40960  0.73551  0.22517  1.0000
  Fe  Fe125     1.0  0.40606  0.79515  0.33523  1.0000
  C   C866      1.0  0.02798  0.78281  0.69424  1.0000
  C   C867      1.0  0.45604  0.79010  0.49471  1.0000
  C   C868      1.0  0.16288  0.81742  0.57178  1.0000
  Fe  Fe126     1.0  0.98048  0.89776  0.35722  1.0000
  C   C869      1.0  0.34133  0.87953  0.49214  1.0000
  H   H1488     1.0  0.06356  0.81879  0.63214  1.0000
  C   C870      1.0  0.14934  0.79420  0.62218  1.0000
  C   C871      1.0  0.36858  0.81528  0.54602  1.0000
  C   C872      1.0  0.13088  0.77078  0.56013  1.0000
  Fe  Fe127     1.0  0.24229  0.85389  0.69528  1.0000
  H   H1489     1.0  0.13904  0.72566  0.59185  1.0000
  Fe  Fe128     1.0  0.99411  0.73246  0.20572  1.0000
  H   H1490     1.0  0.32883  0.83931  0.45915  1.0000
  H   H1491     1.0  0.30644  0.88739  0.36411  1.0000
  C   C873      1.0  0.26470  0.78235  0.56964  1.0000
  H   H1492     1.0  0.02168  0.77824  0.65782  1.0000
  C   C874      1.0  0.43655  0.87540  0.45595  1.0000
  C   C875      1.0  0.35416  0.72512  0.61545  1.0000
  C   C876      1.0  0.43030  0.96411  0.20271  1.0000
  S   S256      1.0  0.39379  0.92801  0.56659  1.0000
  H   H1493     1.0  0.36513  0.80784  0.51034  1.0000
  H   H1494     1.0  0.20643  0.77147  0.58318  1.0000
  H   H1495     1.0  0.45285  0.75543  0.65078  1.0000
  H   H1496     1.0  0.00541  0.86475  0.43652  1.0000
  C   C877      1.0  0.31900  0.95618  0.50649  1.0000
  H   H1497     1.0  0.40068  0.77736  0.21266  1.0000
  C   C878      1.0  0.40628  0.86942  0.23177  1.0000
  C   C879      1.0  0.01976  0.77709  0.46761  1.0000
  Fe  Fe129     1.0  0.14209  0.93250  0.60348  1.0000
  C   C880      1.0  0.19482  0.89392  0.22141  1.0000
  S   S257      1.0  0.15243  0.90305  0.59708  1.0000
  H   H1498     1.0  0.36098  0.88313  0.48553  1.0000
  C   C881      1.0  0.46105  0.79031  0.30745  1.0000
  H   H1499     1.0  0.98774  0.78845  0.40376  1.0000
  H   H1500     1.0  0.26760  0.93903  0.55989  1.0000
  H   H1501     1.0  0.27625  0.85891  0.41549  1.0000
  H   H1502     1.0  0.14914  0.87354  0.30442  1.0000
  H   H1503     1.0  0.20355  0.76844  0.47951  1.0000
  H   H1504     1.0  0.19759  0.72678  0.50216  1.0000
  H   H1505     1.0  0.05355  0.87392  0.23385  1.0000
  H   H1506     1.0  0.07746  0.93977  0.60848  1.0000
  H   H1507     1.0  0.18722  0.92504  0.22353  1.0000
  C   C882      1.0  0.11126  0.73835  0.20913  1.0000
  C   C883      1.0  0.25343  0.92674  0.40346  1.0000
  C   C884      1.0  0.19188  0.77324  0.51068  1.0000
  H   H1508     1.0  0.23772  0.88548  0.28176  1.0000
  H   H1509     1.0  0.17826  0.74592  0.34802  1.0000
  H   H1510     1.0  0.29733  0.87873  0.68749  1.0000
  C   C885      1.0  0.02975  0.86716  0.64143  1.0000
  S   S258      1.0  0.44363  0.81821  0.25325  1.0000
  C   C886      1.0  0.12085  0.78732  0.23248  1.0000
  C   C887      1.0  0.34083  0.90075  0.51428  1.0000
  S   S259      1.0  0.26782  0.89855  0.47075  1.0000
  H   H1511     1.0  0.34028  0.96776  0.49573  1.0000
  C   C888      1.0  0.38616  0.81375  0.57056  1.0000
  N   N64       1.0  0.18816  0.88149  0.28892  1.0000
  H   H1512     1.0  0.18140  0.93321  0.65636  1.0000
  C   C889      1.0  0.37751  0.83533  0.63752  1.0000
  H   H1513     1.0  0.16826  0.89935  0.32486  1.0000
  S   S260      1.0  0.11432  0.84587  0.20370  1.0000
  N   N65       1.0  0.06856  0.88394  0.34530  1.0000
  S   S261      1.0  0.10592  0.74474  0.36934  1.0000
  H   H1514     1.0  0.21150  0.91599  0.30608  1.0000
  C   C890      1.0  0.27712  0.76867  0.57064  1.0000
  H   H1515     1.0  0.17602  0.76869  0.60389  1.0000
  S   S262      1.0  0.40394  0.76894  0.41845  1.0000
  C   C891      1.0  0.20133  0.72161  0.30127  1.0000
  H   H1516     1.0  0.06334  0.92683  0.35802  1.0000
  C   C892      1.0  0.34002  0.85786  0.41883  1.0000
  H   H1517     1.0  0.42750  0.88036  0.42516  1.0000
  S   S263      1.0  0.07290  0.72959  0.51416  1.0000
  H   H1518     1.0  0.32788  0.91856  0.41782  1.0000
  H   H1519     1.0  0.24362  0.73251  0.41368  1.0000
  Fe  Fe130     1.0  0.39052  0.94101  0.64656  1.0000
  H   H1520     1.0  0.24440  0.95652  0.52509  1.0000
  H   H1521     1.0  0.29889  0.79448  0.65434  1.0000
  H   H1522     1.0  0.37310  0.91192  0.37779  1.0000
  Fe  Fe131     1.0  0.10371  0.91302  0.54061  1.0000
  C   C893      1.0  0.30093  0.78059  0.23877  1.0000
  H   H1523     1.0  0.33305  0.85313  0.38208  1.0000
  C   C894      1.0  0.20746  0.77006  0.22771  1.0000
  H   H1524     1.0  0.35667  0.76562  0.68234  1.0000
  C   C895      1.0  0.46462  0.87714  0.53669  1.0000
  C   C896      1.0  0.35572  0.82713  0.56656  1.0000
  H   H1525     1.0  0.01323  0.81423  0.29207  1.0000
  H   H1526     1.0  0.14604  0.83841  0.29080  1.0000
  H   H1527     1.0  0.20275  0.79470  0.49550  1.0000
  C   C897      1.0  0.19694  0.76386  0.33850  1.0000
  S   S264      1.0  0.09929  0.90416  0.63921  1.0000
  H   H1528     1.0  0.03211  0.86971  0.54887  1.0000
  H   H1529     1.0  0.98492  0.80929  0.27860  1.0000
  C   C898      1.0  0.16388  0.87984  0.32551  1.0000
  H   H1530     1.0  0.34352  0.91266  0.65012  1.0000
  C   C899      1.0  0.35252  0.90326  0.38205  1.0000
  H   H1531     1.0  0.27353  0.93826  0.37168  1.0000
  H   H1532     1.0  0.32693  0.74557  0.64271  1.0000
  C   C900      1.0  0.06877  0.86071  0.37807  1.0000
  C   C901      1.0  0.44665  0.74495  0.22843  1.0000
  C   C902      1.0  0.06151  0.74449  0.68164  1.0000
  H   H1533     1.0  0.06255  0.75093  0.23185  1.0000
  C   C903      1.0  0.46444  0.77342  0.52821  1.0000
  H   H1534     1.0  0.07999  0.90921  0.25331  1.0000
  C   C904      1.0  0.19024  0.78454  0.34282  1.0000
  C   C905      1.0  0.14461  0.79404  0.50953  1.0000
  C   C906      1.0  0.08094  0.89251  0.27645  1.0000
  Fe  Fe132     1.0  0.15310  0.91213  0.50144  1.0000
  H   H1535     1.0  0.35833  0.92011  0.48438  1.0000
  H   H1536     1.0  0.24121  0.81253  0.24418  1.0000
  C   C907      1.0  0.16018  0.72457  0.67671  1.0000
  C   C908      1.0  0.03902  0.78832  0.29655  1.0000
  H   H1537     1.0  0.44775  0.79796  0.52411  1.0000
  H   H1538     1.0  0.42316  0.86932  0.50367  1.0000
  H   H1539     1.0  0.24182  0.94892  0.35155  1.0000
  H   H1540     1.0  0.29256  0.91407  0.55433  1.0000
  H   H1541     1.0  0.06950  0.81608  0.31669  1.0000
  C   C909      1.0  0.13363  0.77086  0.61611  1.0000
  C   C910      1.0  0.39030  0.82333  0.61715  1.0000
  H   H1542     1.0  0.20202  0.75880  0.37853  1.0000
  C   C911      1.0  0.23688  0.90317  0.27222  1.0000
  H   H1543     1.0  0.30123  0.85589  0.37170  1.0000
  Fe  Fe133     1.0  0.38954  0.78872  0.46925  1.0000
  H   H1544     1.0  0.21283  0.87436  0.53556  1.0000
  H   H1545     1.0  0.45867  0.91344  0.45446  1.0000
  H   H1546     1.0  0.44466  0.77353  0.30758  1.0000
  N   N66       1.0  0.33532  0.87785  0.43551  1.0000
  C   C912      1.0  0.18427  0.85506  0.30062  1.0000
  S   S265      1.0  0.41843  0.89738  0.62806  1.0000
  C   C913      1.0  0.20944  0.91785  0.43310  1.0000
  N   N67       1.0  0.17369  0.73263  0.60811  1.0000
  H   H1547     1.0  0.34116  0.89699  0.56115  1.0000
  C   C914      1.0  0.08373  0.90582  0.36485  1.0000
  H   H1548     1.0  0.20502  0.88705  0.35748  1.0000
  C   C915      1.0  0.06841  0.87210  0.24821  1.0000
  H   H1549     1.0  0.07699  0.89929  0.41590  1.0000
  H   H1550     1.0  0.27274  0.81746  0.29258  1.0000
  S   S266      1.0  0.01488  0.80017  0.48954  1.0000
  S   S267      1.0  0.98126  0.78768  0.66244  1.0000
  H   H1551     1.0  0.28645  0.81144  0.41444  1.0000
  C   C916      1.0  0.09183  0.95688  0.50979  1.0000
  H   H1552     1.0  0.02444  0.85364  0.46102  1.0000
  C   C917      1.0  0.21925  0.89083  0.49620  1.0000
  C   C918      1.0  0.20133  0.89691  0.48528  1.0000
  H   H1553     1.0  0.02948  0.91178  0.62426  1.0000
  H   H1554     1.0  0.25480  0.78367  0.33589  1.0000
  H   H1555     1.0  0.25651  0.80650  0.51221  1.0000
  C   C919      1.0  0.32286  0.80586  0.21428  1.0000
  Fe  Fe134     1.0  0.24861  0.86563  0.56144  1.0000
  H   H1556     1.0  0.17153  0.83536  0.47599  1.0000
  H   H1557     1.0  0.03974  0.89250  0.33339  1.0000
  H   H1558     1.0  0.27878  0.94866  0.47922  1.0000
  H   H1559     1.0  0.19400  0.72033  0.26367  1.0000
  S   S268      1.0  0.32405  0.79692  0.39167  1.0000
  H   H1560     1.0  0.18348  0.76054  0.69280  1.0000
  H   H1561     1.0  0.31771  0.94998  0.46653  1.0000
  C   C920      1.0  0.16068  0.81737  0.51520  1.0000
  H   H1562     1.0  0.22114  0.93535  0.20385  1.0000
  C   C921      1.0  0.22369  0.74932  0.28795  1.0000
  S   S269      1.0  0.08181  0.92708  0.50009  1.0000
  H   H1563     1.0  0.04741  0.88699  0.62337  1.0000
  H   H1564     1.0  0.17331  0.76725  0.50429  1.0000
  C   C922      1.0  0.01731  0.86518  0.59303  1.0000
  H   H1565     1.0  0.19739  0.79996  0.22671  1.0000
  S   S270      1.0  0.36974  0.96172  0.66354  1.0000
  H   H1566     1.0  0.08373  0.87503  0.20739  1.0000
  H   H1567     1.0  0.26187  0.73844  0.46335  1.0000
  H   H1568     1.0  0.31902  0.79025  0.69268  1.0000
  H   H1569     1.0  0.16127  0.72445  0.53362  1.0000
  C   C923      1.0  0.08012  0.76842  0.69244  1.0000
  H   H1570     1.0  0.38273  0.75960  0.66269  1.0000
  H   H1571     1.0  0.46546  0.84602  0.47257  1.0000
  H   H1572     1.0  0.22283  0.94312  0.66819  1.0000
  C   C924      1.0  0.33668  0.93774  0.69082  1.0000
  S   S271      1.0  0.12201  0.72152  0.47557  1.0000
  C   C925      1.0  0.27512  0.72482  0.39305  1.0000
  H   H1573     1.0  0.47010  0.73472  0.56834  1.0000
  H   H1574     1.0  0.44850  0.73123  0.20795  1.0000
  H   H1575     1.0  0.00870  0.96936  0.43445  1.0000
  H   H1576     1.0  0.42403  0.84908  0.20176  1.0000
  H   H1577     1.0  0.39857  0.87339  0.19690  1.0000
  H   H1578     1.0  0.81321  0.17226  0.07580  1.0000
  C   C926      1.0  0.69368  0.97572  0.82845  1.0000
  Fe  Fe135     1.0  0.94513  0.15372  0.00863  1.0000
  C   C927      1.0  0.69171  0.97275  0.17855  1.0000
  S   S272      1.0  0.65096  0.13677  0.01688  1.0000
  H   H1579     1.0  0.57406  0.11601  0.87382  1.0000
  H   H1580     1.0  0.79415  0.14093  0.99625  1.0000
  C   C928      1.0  0.79017  0.19833  0.00216  1.0000
  S   S273      1.0  0.56695  0.06348  0.93105  1.0000
  H   H1581     1.0  0.49177  0.14168  0.08796  1.0000
  H   H1582     1.0  0.89488  0.14925  0.92353  1.0000
  S   S274      1.0  0.78297  0.05932  0.84177  1.0000
  C   C929      1.0  0.50329  0.06780  0.83130  1.0000
  H   H1583     1.0  0.87947  0.06013  0.05701  1.0000
  C   C930      1.0  0.51767  0.00330  0.75282  1.0000
  H   H1584     1.0  0.51929  0.15438  0.79319  1.0000
  C   C931      1.0  0.76057  0.07334  0.71548  1.0000
  H   H1585     1.0  0.47881  0.99276  0.06224  1.0000
  H   H1586     1.0  0.86013  0.20280  0.94713  1.0000
  H   H1587     1.0  0.67170  0.06035  0.92604  1.0000
  H   H1588     1.0  0.88470  0.20786  0.97685  1.0000
  C   C932      1.0  0.70805  0.04919  0.02030  1.0000
  C   C933      1.0  0.59929  0.97336  0.74537  1.0000
  H   H1589     1.0  0.58298  0.12810  0.13111  1.0000
  C   C934      1.0  0.60511  0.00025  0.81092  1.0000
  H   H1590     1.0  0.52626  0.13869  0.74366  1.0000
  C   C935      1.0  0.74194  0.05474  0.17768  1.0000
  H   H1591     1.0  0.70140  0.15281  0.86312  1.0000
  S   S275      1.0  0.89877  0.97561  0.72995  1.0000
  C   C936      1.0  0.71317  0.07102  0.09275  1.0000
  C   C937      1.0  0.93528  0.08270  0.97124  1.0000
  C   C938      1.0  0.68726  0.05262  0.13205  1.0000
  H   H1592     1.0  0.85188  0.00375  0.96863  1.0000
  C   C939      1.0  0.52493  0.08899  0.72062  1.0000
  C   C940      1.0  0.79061  0.97693  0.11383  1.0000
  H   H1593     1.0  0.53222  0.09908  0.88687  1.0000
  H   H1594     1.0  0.85970  0.02481  0.77420  1.0000
  Fe  Fe136     1.0  0.75818  0.05124  0.93619  1.0000
  C   C941      1.0  0.81807  0.12203  0.04863  1.0000
  C   C942      1.0  0.69957  0.10158  0.90013  1.0000
  N   N68       1.0  0.82412  0.14938  0.03366  1.0000
  H   H1595     1.0  0.61079  0.04703  0.74261  1.0000
  S   S276      1.0  0.87233  0.99602  0.85843  1.0000
  C   C943      1.0  0.86857  0.14271  0.81461  1.0000
  H   H1596     1.0  0.74051  0.06386  0.75008  1.0000
  C   C944      1.0  0.94310  0.16193  0.74058  1.0000
  H   H1597     1.0  0.62073  0.18024  0.18711  1.0000
  C   C945      1.0  0.73130  0.02806  0.17105  1.0000
  C   C946      1.0  0.49078  0.17650  0.06437  1.0000
  Fe  Fe137     1.0  0.90033  0.98596  0.81401  1.0000
  C   C947      1.0  0.87679  0.01336  0.08713  1.0000
  H   H1598     1.0  0.58400  0.99076  0.83840  1.0000
  H   H1599     1.0  0.86411  0.16369  0.97818  1.0000
  S   S277      1.0  0.93707  0.11353  0.03771  1.0000
  C   C948      1.0  0.53833  0.16406  0.94415  1.0000
  H   H1600     1.0  0.66996  0.01567  0.04564  1.0000
  C   C949      1.0  0.84280  0.02041  0.76067  1.0000
  S   S278      1.0  0.51017  0.01940  0.94130  1.0000
  C   C950      1.0  0.48209  0.06972  0.82851  1.0000
  H   H1601     1.0  0.72636  0.11170  0.77843  1.0000
  H   H1602     1.0  0.80049  0.98842  0.74638  1.0000
  H   H1603     1.0  0.52770  0.17374  0.95541  1.0000
  H   H1604     1.0  0.94407  0.16101  0.78653  1.0000
  H   H1605     1.0  0.88332  0.09089  0.11439  1.0000
  C   C951      1.0  0.57234  0.13701  0.11725  1.0000
  C   C952      1.0  0.82126  0.97017  0.04822  1.0000
  H   H1606     1.0  0.71243  0.13629  0.72551  1.0000
  C   C953      1.0  0.72892  0.99861  0.86013  1.0000
  H   H1607     1.0  0.52118  0.02274  0.73212  1.0000
  H   H1608     1.0  0.92750  0.12116  0.76168  1.0000
  H   H1609     1.0  0.55821  0.13311  0.16204  1.0000
  H   H1610     1.0  0.48899  0.02903  0.74667  1.0000
  C   C954      1.0  0.61230  0.16761  0.97182  1.0000
  H   H1611     1.0  0.68147  0.07892  0.84734  1.0000
  Fe  Fe138     1.0  0.93901  0.19442  0.93472  1.0000
  H   H1612     1.0  0.82726  0.13710  0.92298  1.0000
  H   H1613     1.0  0.74946  0.14493  0.75945  1.0000
  C   C955      1.0  0.52234  0.10067  0.97671  1.0000
  C   C956      1.0  0.70641  0.99476  0.85100  1.0000
  H   H1614     1.0  0.61692  0.97216  0.83654  1.0000
  H   H1615     1.0  0.47614  0.98364  0.88966  1.0000
  C   C957      1.0  0.85302  0.16756  0.01401  1.0000
  H   H1616     1.0  0.55139  0.13057  0.05296  1.0000
  Fe  Fe139     1.0  0.90702  0.02998  0.85854  1.0000
  C   C958      1.0  0.56988  0.14932  0.87488  1.0000
  H   H1617     1.0  0.89391  0.11924  0.74006  1.0000
  H   H1618     1.0  0.57606  0.00207  0.74958  1.0000
  C   C959      1.0  0.88067  0.16893  0.77934  1.0000
  H   H1619     1.0  0.50546  0.10276  0.91024  1.0000
  S   S279      1.0  0.81882  0.04618  0.90155  1.0000
  H   H1620     1.0  0.84669  0.97503  0.70618  1.0000
  H   H1621     1.0  0.83015  0.12046  0.00932  1.0000
  C   C960      1.0  0.61641  0.98819  0.84820  1.0000
  H   H1622     1.0  0.86015  0.98896  0.75514  1.0000
  C   C961      1.0  0.60886  0.04124  0.70267  1.0000
  C   C962      1.0  0.86332  0.19679  0.98949  1.0000
  C   C963      1.0  0.47184  0.00976  0.75584  1.0000
  H   H1623     1.0  0.92467  0.09766  0.69746  1.0000
  S   S280      1.0  0.79202  0.02266  0.08472  1.0000
  C   C964      1.0  0.64052  0.08873  0.02085  1.0000
  Fe  Fe140     1.0  0.53033  0.02945  0.00604  1.0000
  H   H1624     1.0  0.68508  0.10717  0.90213  1.0000
  H   H1625     1.0  0.73805  0.01303  0.87869  1.0000
  H   H1626     1.0  0.81864  0.15165  0.12461  1.0000
  C   C965      1.0  0.73382  0.14781  0.87196  1.0000
  H   H1627     1.0  0.81063  0.11047  0.14841  1.0000
  H   H1628     1.0  0.77453  0.08375  0.73564  1.0000
  C   C966      1.0  0.82603  0.01220  0.02144  1.0000
  H   H1629     1.0  0.48433  0.97206  0.74575  1.0000
  H   H1630     1.0  0.77050  0.13508  0.08908  1.0000
  H   H1631     1.0  0.53279  0.14887  0.98726  1.0000
  H   H1632     1.0  0.90595  0.20826  0.77047  1.0000
  Fe  Fe141     1.0  0.78251  0.02381  0.88497  1.0000
  H   H1633     1.0  0.49161  0.17241  0.74632  1.0000
  H   H1634     1.0  0.77290  0.13788  0.15992  1.0000
  Fe  Fe142     1.0  0.57886  0.03505  0.92400  1.0000
  S   S281      1.0  0.79158  0.07588  0.95952  1.0000
  C   C967      1.0  0.86312  0.05381  0.10019  1.0000
  C   C968      1.0  0.76522  0.05281  0.69820  1.0000
  S   S282      1.0  0.69830  0.11649  0.05220  1.0000
  C   C969      1.0  0.59980  0.17827  0.12601  1.0000
  S   S283      1.0  0.70576  0.16927  0.07373  1.0000
  N   N69       1.0  0.54323  0.13870  0.87263  1.0000
  H   H1635     1.0  0.91319  0.14403  0.15811  1.0000
  C   C970      1.0  0.63621  0.11334  0.93698  1.0000
  H   H1636     1.0  0.95957  0.18122  0.70710  1.0000
  C   C971      1.0  0.94460  0.13959  0.72591  1.0000
  N   N70       1.0  0.61012  0.00040  0.74621  1.0000
  C   C972      1.0  0.92026  0.11119  0.94284  1.0000
  S   S284      1.0  0.91487  0.16384  0.02933  1.0000
  H   H1637     1.0  0.59653  0.14803  0.97954  1.0000
  H   H1638     1.0  0.61358  0.02032  0.81075  1.0000
  H   H1639     1.0  0.69879  0.00650  0.86199  1.0000
  C   C973      1.0  0.91441  0.10119  0.89757  1.0000
  Fe  Fe143     1.0  0.52615  0.99408  0.93323  1.0000
  H   H1640     1.0  0.90575  0.10794  0.87028  1.0000
  H   H1641     1.0  0.59039  0.14204  0.79954  1.0000
  H   H1642     1.0  0.63094  0.19164  0.01798  1.0000
  H   H1643     1.0  0.83689  0.03227  0.99121  1.0000
  H   H1644     1.0  0.72062  0.21268  0.80895  1.0000
  H   H1645     1.0  0.89336  0.06673  0.16873  1.0000
  C   C974      1.0  0.61472  0.17121  0.03205  1.0000
  H   H1646     1.0  0.65162  0.01839  0.14588  1.0000
  C   C975      1.0  0.59677  0.01183  0.71827  1.0000
  H   H1647     1.0  0.71751  0.15650  0.76953  1.0000
  H   H1648     1.0  0.89601  0.02032  0.09050  1.0000
  C   C976      1.0  0.50346  0.09024  0.71767  1.0000
  S   S285      1.0  0.54349  0.00171  0.00363  1.0000
  H   H1649     1.0  0.55898  0.07444  0.13952  1.0000
  C   C977      1.0  0.83472  0.99604  0.00894  1.0000
  C   C978      1.0  0.84311  0.04569  0.73974  1.0000
  H   H1650     1.0  0.64850  0.00715  0.73123  1.0000
  H   H1651     1.0  0.81714  0.09089  0.11155  1.0000
  S   S286      1.0  0.90274  0.00839  0.95128  1.0000
  H   H1652     1.0  0.57076  0.01740  0.17280  1.0000
  H   H1653     1.0  0.87674  0.17451  0.73913  1.0000
  H   H1654     1.0  0.56658  0.11224  0.06193  1.0000
  H   H1655     1.0  0.82548  0.00752  0.80439  1.0000
  H   H1656     1.0  0.85495  0.20280  0.02463  1.0000
  S   S287      1.0  0.97009  0.18070  0.04594  1.0000
  H   H1657     1.0  0.84836  0.07475  0.14456  1.0000
  S   S288      1.0  0.93552  0.02187  0.80703  1.0000
  C   C979      1.0  0.57835  0.17828  0.05402  1.0000
  C   C980      1.0  0.91936  0.08219  0.88856  1.0000
  H   H1658     1.0  0.86968  0.99376  0.08482  1.0000
  H   H1659     1.0  0.52595  0.00365  0.78886  1.0000
  C   C981      1.0  0.78059  0.13337  0.12025  1.0000
  H   H1660     1.0  0.63272  0.05111  0.02239  1.0000
  H   H1661     1.0  0.49397  0.01604  0.83742  1.0000
  C   C982      1.0  0.61857  0.17299  0.14899  1.0000
  H   H1662     1.0  0.69904  0.98863  0.13459  1.0000
  C   C983      1.0  0.90227  0.18099  0.84908  1.0000
  C   C984      1.0  0.64167  0.11111  0.99020  1.0000
  C   C985      1.0  0.62855  0.07081  0.94481  1.0000
  H   H1663     1.0  0.56280  0.16292  0.77572  1.0000
  S   S289      1.0  0.72049  0.04811  0.94878  1.0000
  S   S290      1.0  0.56270  0.02513  0.85326  1.0000
  H   H1664     1.0  0.48879  0.14425  0.73116  1.0000
  H   H1665     1.0  0.50315  0.05923  0.87532  1.0000
  H   H1666     1.0  0.82378  0.04155  0.74067  1.0000
  C   C986      1.0  0.63393  0.06855  0.99821  1.0000
  C   C987      1.0  0.80132  0.21749  0.07689  1.0000
  H   H1667     1.0  0.55794  0.18358  0.13377  1.0000
  C   C988      1.0  0.82271  0.11116  0.10518  1.0000
  H   H1668     1.0  0.50951  0.07919  0.99677  1.0000
  H   H1669     1.0  0.74999  0.03396  0.73606  1.0000
  C   C989      1.0  0.48201  0.00568  0.13783  1.0000
  C   C990      1.0  0.55645  0.12044  0.08550  1.0000
  Fe  Fe144     1.0  0.92887  0.99781  0.90005  1.0000
  H   H1670     1.0  0.75448  0.06996  0.13111  1.0000
  H   H1671     1.0  0.55926  0.17927  0.92691  1.0000
  H   H1672     1.0  0.50470  0.11991  0.82237  1.0000
  S   S291      1.0  0.96069  0.00048  0.93158  1.0000
  N   N71       1.0  0.86305  0.03604  0.15336  1.0000
  H   H1673     1.0  0.72137  0.17332  0.89503  1.0000
  H   H1674     1.0  0.59255  0.19953  0.02975  1.0000
  C   C991      1.0  0.68212  0.03080  0.05944  1.0000
  H   H1675     1.0  0.51266  0.10803  0.00478  1.0000
  C   C992      1.0  0.73941  0.98409  0.84489  1.0000
  H   H1676     1.0  0.85345  0.99629  0.18441  1.0000
  H   H1677     1.0  0.75037  0.16531  0.83208  1.0000
  C   C993      1.0  0.87373  0.13552  0.86658  1.0000
  H   H1678     1.0  0.74382  0.08315  0.00716  1.0000
  C   C994      1.0  0.78452  0.19704  0.06306  1.0000
  H   H1679     1.0  0.55190  0.12974  0.79022  1.0000
  H   H1680     1.0  0.88487  0.21225  0.11020  1.0000
  H   H1681     1.0  0.68019  0.21144  0.81843  1.0000
  H   H1682     1.0  0.69057  0.12297  0.80342  1.0000
  C   C995      1.0  0.88949  0.04937  0.15685  1.0000
  H   H1683     1.0  0.69359  0.21742  0.10033  1.0000
  S   S292      1.0  0.91122  0.06879  0.83376  1.0000
  N   N72       1.0  0.59089  0.16573  0.08160  1.0000
  H   H1684     1.0  0.74165  0.10850  0.91569  1.0000
  H   H1685     1.0  0.79676  0.21664  0.12397  1.0000
  H   H1686     1.0  0.53817  0.15349  0.12399  1.0000
  Fe  Fe145     1.0  0.54796  0.05109  0.86590  1.0000
  H   H1687     1.0  0.69872  0.09611  0.94813  1.0000
  H   H1688     1.0  0.57617  0.06304  0.09484  1.0000
  H   H1689     1.0  0.74237  0.09910  0.85079  1.0000
  H   H1690     1.0  0.63729  0.13070  0.91292  1.0000
  H   H1691     1.0  0.84530  0.04345  0.09081  1.0000
  H   H1692     1.0  0.84351  0.12219  0.09854  1.0000
  C   C996      1.0  0.72380  0.06889  0.03757  1.0000
  S   S293      1.0  0.92813  0.19794  0.14834  1.0000
  H   H1693     1.0  0.92448  0.16024  0.74316  1.0000
  S   S294      1.0  0.51404  0.03210  0.09647  1.0000
  Fe  Fe146     1.0  0.67379  0.13316  0.07288  1.0000
  H   H1694     1.0  0.50983  0.14162  0.91037  1.0000
  S   S295      1.0  0.76886  0.17319  0.98453  1.0000
  C   C997      1.0  0.58498  0.13729  0.84989  1.0000
  H   H1695     1.0  0.63643  0.00311  0.84153  1.0000
  H   H1696     1.0  0.78074  0.14322  0.78123  1.0000
  S   S296      1.0  0.66616  0.97205  0.81479  1.0000
  H   H1697     1.0  0.64805  0.03576  0.71291  1.0000
  H   H1698     1.0  0.86677  0.09071  0.06359  1.0000
  H   H1699     1.0  0.72490  0.08713  0.10458  1.0000
  H   H1700     1.0  0.78590  0.12816  0.84353  1.0000
  C   C998      1.0  0.81792  0.99954  0.70267  1.0000
  N   N73       1.0  0.84236  0.00702  0.71499  1.0000
  C   C999      1.0  0.52497  0.07794  0.77743  1.0000
  C   C1000     1.0  0.54656  0.14281  0.80621  1.0000
  H   H1701     1.0  0.53740  0.10396  0.12106  1.0000
  S   S297      1.0  0.71822  0.13192  0.16015  1.0000
  C   C1001     1.0  0.89092  0.15473  0.88336  1.0000
  H   H1702     1.0  0.53773  0.17103  0.85537  1.0000
  H   H1703     1.0  0.74838  0.02755  0.14611  1.0000
  C   C1002     1.0  0.55369  0.17429  0.09979  1.0000
  H   H1704     1.0  0.84742  0.05571  0.77251  1.0000
  S   S298      1.0  0.70206  0.18807  0.70372  1.0000
  C   C1003     1.0  0.72942  0.12891  0.79049  1.0000
  C   C1004     1.0  0.81030  0.15267  0.08882  1.0000
  S   S299      1.0  0.92126  0.20545  0.87255  1.0000
  C   C1005     1.0  0.84328  0.98348  0.74141  1.0000
  C   C1006     1.0  0.48135  0.18947  0.03340  1.0000
  H   H1705     1.0  0.96154  0.14028  0.73433  1.0000
  H   H1706     1.0  0.61003  0.19969  0.10460  1.0000
  H   H1707     1.0  0.96117  0.10280  0.71839  1.0000
  H   H1708     1.0  0.90517  0.05697  0.11117  1.0000
  H   H1709     1.0  0.58296  0.17228  0.16787  1.0000
  H   H1710     1.0  0.57289  0.17163  0.01755  1.0000
  C   C1007     1.0  0.63908  0.01610  0.71033  1.0000
  H   H1711     1.0  0.96261  0.97142  0.73871  1.0000
  H   H1712     1.0  0.91650  0.12591  0.94959  1.0000
  S   S300      1.0  0.84696  0.11956  0.79250  1.0000
  H   H1713     1.0  0.60387  0.97963  0.89792  1.0000
  H   H1714     1.0  0.61002  0.18254  0.94468  1.0000
  H   H1715     1.0  0.63060  0.17009  0.94281  1.0000
  C   C1008     1.0  0.82937  0.15595  0.92025  1.0000
  H   H1716     1.0  0.56887  0.14700  0.92255  1.0000
  H   H1717     1.0  0.79758  0.10839  0.05535  1.0000
  C   C1009     1.0  0.53143  0.15343  0.89421  1.0000
  Fe  Fe147     1.0  0.79190  0.03966  0.99307  1.0000
  H   H1718     1.0  0.69824  0.14001  0.94013  1.0000
  C   C1010     1.0  0.85666  0.01111  0.14313  1.0000
  C   C1011     1.0  0.57669  0.07360  0.12695  1.0000
  C   C1012     1.0  0.58060  0.06176  0.18378  1.0000
  C   C1013     1.0  0.71237  0.15360  0.89309  1.0000
  H   H1719     1.0  0.64433  0.08676  0.06255  1.0000
  C   C1014     1.0  0.47467  0.99758  0.85604  1.0000
  H   H1720     1.0  0.59811  0.06092  0.16500  1.0000
  C   C1015     1.0  0.48230  0.08119  0.77170  1.0000
  H   H1721     1.0  0.94350  0.07563  0.99936  1.0000
  H   H1722     1.0  0.72126  0.02799  0.13860  1.0000
  C   C1016     1.0  0.93038  0.10169  0.98012  1.0000
  H   H1723     1.0  0.86463  0.11523  0.89348  1.0000
  H   H1724     1.0  0.76724  0.18034  0.09956  1.0000
  S   S301      1.0  0.65773  0.11194  0.17429  1.0000
  H   H1725     1.0  0.78035  0.15352  0.84661  1.0000
  H   H1726     1.0  0.54101  0.10537  0.98122  1.0000
  H   H1727     1.0  0.83801  0.00227  0.13643  1.0000
  H   H1728     1.0  0.82073  0.16018  0.88748  1.0000
  H   H1729     1.0  0.75555  0.00276  0.71615  1.0000
  H   H1730     1.0  0.77522  0.11307  0.13918  1.0000
  C   C1017     1.0  0.81515  0.15537  0.98301  1.0000
  C   C1018     1.0  0.74526  0.11557  0.86586  1.0000
  Fe  Fe148     1.0  0.69172  0.14691  0.17400  1.0000
  H   H1731     1.0  0.70251  0.07068  0.87220  1.0000
  H   H1732     1.0  0.74088  0.14702  0.91031  1.0000
  S   S302      1.0  0.76973  0.99175  0.84790  1.0000
  C   C1019     1.0  0.49777  0.16551  0.71060  1.0000
  H   H1733     1.0  0.60346  0.14549  0.85756  1.0000
  C   C1020     1.0  0.89720  0.18801  0.79701  1.0000
  C   C1021     1.0  0.62979  0.09323  0.91414  1.0000
  H   H1734     1.0  0.59354  0.09381  0.10106  1.0000
  H   H1735     1.0  0.62575  0.09506  0.87268  1.0000
  H   H1736     1.0  0.62177  0.15893  0.05018  1.0000
  C   C1022     1.0  0.48469  0.15188  0.06376  1.0000
  Fe  Fe149     1.0  0.81656  0.08110  0.86713  1.0000
  H   H1737     1.0  0.54586  0.18372  0.07395  1.0000
  C   C1023     1.0  0.80378  0.00262  0.07324  1.0000
  H   H1738     1.0  0.85916  0.16431  0.05308  1.0000
  S   S303      1.0  0.75607  0.01471  0.97858  1.0000
  H   H1739     1.0  0.81691  0.17437  0.97492  1.0000
  N   N74       1.0  0.72661  0.12365  0.85665  1.0000
  S   S304      1.0  0.55286  0.07836  0.78008  1.0000
  S   S305      1.0  0.61842  0.04496  0.91876  1.0000
  H   H1740     1.0  0.58232  0.17062  0.84814  1.0000
  Fe  Fe150     1.0  0.94180  0.19329  0.05919  1.0000
  H   H1741     1.0  0.86077  0.20403  0.18122  1.0000
  C   C1024     1.0  0.77459  0.13661  0.83197  1.0000
  C   C1025     1.0  0.48869  0.98123  0.78007  1.0000
  C   C1026     1.0  0.93040  0.07350  0.92444  1.0000
  C   C1027     1.0  0.86551  0.07881  0.10702  1.0000
  H   H1742     1.0  0.85024  0.17147  0.89995  1.0000
  C   C1028     1.0  0.71126  0.13649  0.77212  1.0000
  H   H1743     1.0  0.93573  0.06009  0.91524  1.0000
  H   H1744     1.0  0.50258  0.18532  0.08890  1.0000
  C   C1029     1.0  0.68859  0.07670  0.88490  1.0000
  C   C1030     1.0  0.52266  0.13857  0.79133  1.0000
  C   C1031     1.0  0.52545  0.10996  0.90925  1.0000
  Fe  Fe151     1.0  0.72933  0.15122  0.05945  1.0000
  H   H1745     1.0  0.63829  0.18354  0.11232  1.0000
  Fe  Fe152     1.0  0.68507  0.09843  0.15418  1.0000
  H   H1746     1.0  0.87909  0.02591  0.04334  1.0000
  H   H1747     1.0  0.94694  0.14287  0.17198  1.0000
  H   H1748     1.0  0.54689  0.02206  0.15885  1.0000
  C   C1032     1.0  0.95594  0.21883  0.15887  1.0000
  C   C1033     1.0  0.67183  0.03223  0.11609  1.0000
  H   H1749     1.0  0.78370  0.05582  0.70194  1.0000
  S   S306      1.0  0.96734  0.18194  0.91110  1.0000
  H   H1750     1.0  0.52863  0.00008  0.71514  1.0000
  S   S307      1.0  0.77076  0.21953  0.72496  1.0000
  H   H1751     1.0  0.81349  0.03270  0.18191  1.0000
  H   H1752     1.0  0.65157  0.17429  0.70149  1.0000
  H   H1753     1.0  0.73850  0.19232  0.17926  1.0000
  H   H1754     1.0  0.61143  0.15214  0.16698  1.0000
  Fe  Fe153     1.0  0.86978  0.97385  0.94819  1.0000
  H   H1755     1.0  0.72799  0.98383  0.18844  1.0000
  H   H1756     1.0  0.89262  0.01579  0.19428  1.0000
  H   H1757     1.0  0.59865  0.97313  0.69954  1.0000
  H   H1758     1.0  0.67232  0.21760  0.91166  1.0000
  S   S308      1.0  0.67353  0.05748  0.19641  1.0000
  Fe  Fe154     1.0  0.53021  0.10520  0.30982  1.0000
  C   C1034     1.0  0.76853  0.13642  0.59008  1.0000
  H   H1759     1.0  0.63492  0.19598  0.37125  1.0000
  H   H1760     1.0  0.93824  0.97414  0.44154  1.0000
  C   C1035     1.0  0.75776  0.20309  0.37534  1.0000
  H   H1761     1.0  0.89300  0.00696  0.54904  1.0000
  H   H1762     1.0  0.76329  0.08837  0.67593  1.0000
  C   C1036     1.0  0.80809  0.04749  0.44858  1.0000
  H   H1763     1.0  0.88059  0.02642  0.25204  1.0000
  H   H1764     1.0  0.71053  0.10720  0.43468  1.0000
  N   N75       1.0  0.71345  0.00471  0.22990  1.0000
  H   H1765     1.0  0.94096  0.15276  0.37258  1.0000
  C   C1037     1.0  0.58802  0.06493  0.39717  1.0000
  C   C1038     1.0  0.91220  0.10033  0.26436  1.0000
  H   H1766     1.0  0.71939  0.02523  0.47926  1.0000
  H   H1767     1.0  0.95990  0.98936  0.54477  1.0000
  C   C1039     1.0  0.48773  0.21619  0.67178  1.0000
  C   C1040     1.0  0.66604  0.10893  0.41265  1.0000
  H   H1768     1.0  0.80251  0.13418  0.56103  1.0000
  C   C1041     1.0  0.72521  0.00642  0.27783  1.0000
  H   H1769     1.0  0.71226  0.98872  0.32022  1.0000
  H   H1770     1.0  0.54874  0.01009  0.32020  1.0000
  C   C1042     1.0  0.55595  0.07277  0.37371  1.0000
  S   S309      1.0  0.51437  0.12775  0.27069  1.0000
  H   H1771     1.0  0.88255  0.07382  0.35772  1.0000
  H   H1772     1.0  0.92551  0.09438  0.27418  1.0000
  H   H1773     1.0  0.74635  0.05555  0.53903  1.0000
  H   H1774     1.0  0.48955  0.20076  0.34578  1.0000
  S   S310      1.0  0.86250  0.97271  0.38391  1.0000
  H   H1775     1.0  0.75081  0.16191  0.50513  1.0000
  C   C1043     1.0  0.87935  0.19650  0.47910  1.0000
  H   H1776     1.0  0.75145  0.99292  0.24820  1.0000
  H   H1777     1.0  0.77747  0.09012  0.57980  1.0000
  H   H1778     1.0  0.70411  0.10444  0.29180  1.0000
  C   C1044     1.0  0.73726  0.14702  0.29724  1.0000
  S   S311      1.0  0.81915  0.20548  0.63298  1.0000
  H   H1779     1.0  0.96388  0.09453  0.65011  1.0000
  H   H1780     1.0  0.80698  0.00026  0.20834  1.0000
  S   S312      1.0  0.59771  0.05269  0.45214  1.0000
  H   H1781     1.0  0.88284  0.12232  0.29884  1.0000
  H   H1782     1.0  0.82848  0.16853  0.59520  1.0000
  S   S313      1.0  0.51736  0.17329  0.36817  1.0000
  H   H1783     1.0  0.93049  0.98302  0.59483  1.0000
  N   N76       1.0  0.55775  0.03562  0.22942  1.0000
  C   C1045     1.0  0.68644  0.10293  0.32118  1.0000
  H   H1784     1.0  0.73145  0.99618  0.68162  1.0000
  H   H1785     1.0  0.63976  0.02831  0.61624  1.0000
  H   H1786     1.0  0.49632  0.02159  0.32122  1.0000
  C   C1046     1.0  0.61511  0.14450  0.38429  1.0000
  H   H1787     1.0  0.50470  0.99347  0.52091  1.0000
  H   H1788     1.0  0.88038  0.06050  0.29899  1.0000
  H   H1789     1.0  0.67967  0.00448  0.21950  1.0000
  H   H1790     1.0  0.68295  0.11606  0.29121  1.0000
  C   C1047     1.0  0.90159  0.13426  0.25852  1.0000
  H   H1791     1.0  0.58733  0.09896  0.49089  1.0000
  H   H1792     1.0  0.92648  0.14113  0.60087  1.0000
  C   C1048     1.0  0.88665  0.20916  0.56611  1.0000
  C   C1049     1.0  0.92480  0.06251  0.38649  1.0000
  S   S314      1.0  0.85144  0.99191  0.49783  1.0000
  C   C1050     1.0  0.95147  0.08057  0.36549  1.0000
  H   H1793     1.0  0.90987  0.00070  0.46365  1.0000
  H   H1794     1.0  0.87767  0.21093  0.30481  1.0000
  C   C1051     1.0  0.59991  0.09609  0.29838  1.0000
  C   C1052     1.0  0.89729  0.12068  0.69169  1.0000
  C   C1053     1.0  0.71826  0.03410  0.43746  1.0000
  C   C1054     1.0  0.60134  0.13831  0.49325  1.0000
  H   H1795     1.0  0.90516  0.06975  0.52239  1.0000
  H   H1796     1.0  0.56220  0.10638  0.50730  1.0000
  H   H1797     1.0  0.64781  0.18169  0.41206  1.0000
  C   C1055     1.0  0.73555  0.18733  0.48685  1.0000
  H   H1798     1.0  0.91998  0.19726  0.51252  1.0000
  H   H1799     1.0  0.47419  0.18661  0.23783  1.0000
  H   H1800     1.0  0.70524  0.15180  0.32915  1.0000
  H   H1801     1.0  0.79043  0.03719  0.62341  1.0000
  C   C1056     1.0  0.81501  0.01895  0.21547  1.0000
  C   C1057     1.0  0.89403  0.03285  0.20430  1.0000
  H   H1802     1.0  0.81947  0.08394  0.38397  1.0000
  H   H1803     1.0  0.96461  0.00756  0.34056  1.0000
  C   C1058     1.0  0.75216  0.00972  0.25841  1.0000
  H   H1804     1.0  0.65904  0.11792  0.38240  1.0000
  H   H1805     1.0  0.73222  0.02124  0.57811  1.0000
  C   C1059     1.0  0.70912  0.98094  0.21553  1.0000
  S   S315      1.0  0.52748  0.11635  0.39192  1.0000
  C   C1060     1.0  0.49280  0.00066  0.51042  1.0000
  H   H1806     1.0  0.53635  0.06874  0.38774  1.0000
  C   C1061     1.0  0.87465  0.16909  0.50027  1.0000
  H   H1807     1.0  0.47935  0.19831  0.57700  1.0000
  H   H1808     1.0  0.93310  0.11803  0.34136  1.0000
  H   H1809     1.0  0.91382  0.10057  0.21706  1.0000
  H   H1810     1.0  0.57437  0.09980  0.56431  1.0000
  S   S316      1.0  0.85836  0.12315  0.41109  1.0000
  H   H1811     1.0  0.59069  0.01905  0.31228  1.0000
  S   S317      1.0  0.60629  0.00494  0.54602  1.0000
  S   S318      1.0  0.49182  0.06786  0.35638  1.0000
  H   H1812     1.0  0.79419  0.97856  0.65697  1.0000
  H   H1813     1.0  0.49217  0.15859  0.63137  1.0000
  C   C1062     1.0  0.77265  0.16820  0.63677  1.0000
  H   H1814     1.0  0.54844  0.04629  0.45996  1.0000
  H   H1815     1.0  0.86684  0.20584  0.57967  1.0000
  H   H1816     1.0  0.86870  0.16067  0.55069  1.0000
  C   C1063     1.0  0.80885  0.16309  0.60142  1.0000
  Fe  Fe155     1.0  0.83064  0.13359  0.38973  1.0000
  H   H1817     1.0  0.78752  0.97395  0.38206  1.0000
  H   H1818     1.0  0.84146  0.01487  0.25116  1.0000
  S   S319      1.0  0.75181  0.11586  0.55546  1.0000
  C   C1064     1.0  0.53696  0.16819  0.53879  1.0000
  C   C1065     1.0  0.90798  0.05922  0.44216  1.0000
  Fe  Fe156     1.0  0.59495  0.01432  0.46698  1.0000
  H   H1819     1.0  0.61446  0.11056  0.25403  1.0000
  H   H1820     1.0  0.74358  0.99818  0.48556  1.0000
  H   H1821     1.0  0.71767  0.14590  0.38477  1.0000
  C   C1066     1.0  0.78447  0.07673  0.58471  1.0000
  H   H1822     1.0  0.69659  0.98082  0.52976  1.0000
  H   H1823     1.0  0.78785  0.07391  0.53990  1.0000
  H   H1824     1.0  0.77922  0.20335  0.49104  1.0000
  H   H1825     1.0  0.53458  0.97548  0.21374  1.0000
  C   C1067     1.0  0.47584  0.98887  0.48230  1.0000
  H   H1826     1.0  0.81087  0.09953  0.62503  1.0000
  H   H1827     1.0  0.69182  0.02108  0.26544  1.0000
  H   H1828     1.0  0.86357  0.03991  0.62831  1.0000
  H   H1829     1.0  0.63573  0.17954  0.29900  1.0000
  S   S320      1.0  0.68248  0.16095  0.24929  1.0000
  H   H1830     1.0  0.96721  0.12610  0.23502  1.0000
  H   H1831     1.0  0.73775  0.14247  0.62604  1.0000
  H   H1832     1.0  0.67524  0.02743  0.36936  1.0000
  C   C1068     1.0  0.66720  0.98028  0.31458  1.0000
  C   C1069     1.0  0.94685  0.14608  0.21585  1.0000
  C   C1070     1.0  0.78328  0.21188  0.44151  1.0000
  H   H1833     1.0  0.67000  0.06130  0.34843  1.0000
  H   H1834     1.0  0.51168  0.98482  0.23902  1.0000
  H   H1835     1.0  0.75331  0.16634  0.29135  1.0000
  Fe  Fe157     1.0  0.48802  0.08060  0.43712  1.0000
  C   C1071     1.0  0.95011  0.03302  0.54597  1.0000
  H   H1836     1.0  0.88725  0.04625  0.45715  1.0000
  C   C1072     1.0  0.69439  0.02430  0.43079  1.0000
  H   H1837     1.0  0.84867  0.04703  0.22691  1.0000
  N   N77       1.0  0.75924  0.20942  0.43202  1.0000
  C   C1073     1.0  0.52273  0.17148  0.43678  1.0000
  H   H1838     1.0  0.89195  0.16888  0.47590  1.0000
  Fe  Fe158     1.0  0.57369  0.20380  0.60469  1.0000
  H   H1839     1.0  0.50576  0.99865  0.32184  1.0000
  H   H1840     1.0  0.63241  0.14382  0.38610  1.0000
  H   H1841     1.0  0.79262  0.03616  0.43480  1.0000
  H   H1842     1.0  0.78955  0.20044  0.41998  1.0000
  C   C1074     1.0  0.92328  0.21572  0.48346  1.0000
  H   H1843     1.0  0.73846  0.19725  0.37283  1.0000
  C   C1075     1.0  0.49338  0.02096  0.52785  1.0000
  C   C1076     1.0  0.58893  0.02629  0.26838  1.0000
  H   H1844     1.0  0.72673  0.02246  0.29345  1.0000
  H   H1845     1.0  0.73495  0.19209  0.52926  1.0000
  H   H1846     1.0  0.50385  0.09937  0.67365  1.0000
  Fe  Fe159     1.0  0.82057  0.17551  0.34134  1.0000
  C   C1077     1.0  0.56489  0.02862  0.28309  1.0000
  C   C1078     1.0  0.96153  0.09404  0.40206  1.0000
  C   C1079     1.0  0.69856  0.09583  0.41172  1.0000
  H   H1847     1.0  0.62807  0.05283  0.66391  1.0000
  H   H1848     1.0  0.95809  0.02569  0.57609  1.0000
  H   H1849     1.0  0.59460  0.14504  0.52930  1.0000
  C   C1080     1.0  0.69985  0.20411  0.27724  1.0000
  H   H1850     1.0  0.59579  0.00817  0.67525  1.0000
  Fe  Fe160     1.0  0.87220  0.01019  0.39550  1.0000
  H   H1851     1.0  0.66294  0.05634  0.44721  1.0000
  H   H1852     1.0  0.54065  0.05775  0.25172  1.0000
  H   H1853     1.0  0.86686  0.01363  0.62482  1.0000
  H   H1854     1.0  0.89191  0.10151  0.68876  1.0000
  S   S321      1.0  0.83142  0.15152  0.29743  1.0000
  H   H1855     1.0  0.81796  0.01706  0.68050  1.0000
  C   C1081     1.0  0.69265  0.20122  0.64985  1.0000
  H   H1856     1.0  0.76704  0.02772  0.21820  1.0000
  H   H1857     1.0  0.77104  0.03051  0.57943  1.0000
  H   H1858     1.0  0.52470  0.03616  0.21705  1.0000
  H   H1859     1.0  0.59594  0.04665  0.68791  1.0000
  H   H1860     1.0  0.96448  0.08363  0.32174  1.0000
  H   H1861     1.0  0.96586  0.16133  0.52966  1.0000
  C   C1082     1.0  0.82309  0.07453  0.42032  1.0000
  S   S322      1.0  0.79373  0.00147  0.53122  1.0000
  C   C1083     1.0  0.74069  0.05612  0.39104  1.0000
  C   C1084     1.0  0.62629  0.19446  0.46461  1.0000
  C   C1085     1.0  0.58008  0.10931  0.51423  1.0000
  H   H1862     1.0  0.57013  0.13822  0.42168  1.0000
  H   H1863     1.0  0.62950  0.15030  0.28759  1.0000
  H   H1864     1.0  0.95140  0.16629  0.20561  1.0000
  H   H1865     1.0  0.75691  0.99055  0.65571  1.0000
  C   C1086     1.0  0.94310  0.11430  0.66013  1.0000
  C   C1087     1.0  0.83388  0.04982  0.51042  1.0000
  H   H1866     1.0  0.66565  0.07230  0.50198  1.0000
  S   S323      1.0  0.78848  0.10244  0.42706  1.0000
  H   H1867     1.0  0.88453  0.11207  0.20323  1.0000
  H   H1868     1.0  0.50039  0.12978  0.47477  1.0000
  S   S324      1.0  0.91302  0.04397  0.34304  1.0000
  S   S325      1.0  0.59950  0.20321  0.65385  1.0000
  S   S326      1.0  0.47957  0.05642  0.53105  1.0000
  C   C1088     1.0  0.73320  0.16087  0.50095  1.0000
  H   H1869     1.0  0.61926  0.13939  0.49632  1.0000
  H   H1870     1.0  0.96159  0.05440  0.53115  1.0000
  S   S327      1.0  0.61905  0.00338  0.40765  1.0000
  H   H1871     1.0  0.56850  0.04324  0.30527  1.0000
  C   C1089     1.0  0.56268  0.05980  0.41444  1.0000
  H   H1872     1.0  0.94950  0.21229  0.41276  1.0000
  C   C1090     1.0  0.91013  0.98842  0.50386  1.0000
  H   H1873     1.0  0.80224  0.01511  0.26191  1.0000
  H   H1874     1.0  0.74316  0.13292  0.30779  1.0000
  S   S328      1.0  0.76624  0.09950  0.28666  1.0000
  C   C1091     1.0  0.88442  0.07821  0.30906  1.0000
  H   H1875     1.0  0.89818  0.98660  0.60101  1.0000
  H   H1876     1.0  0.73510  0.14891  0.25241  1.0000
  H   H1877     1.0  0.50667  0.03038  0.54891  1.0000
  C   C1092     1.0  0.58315  0.15543  0.43021  1.0000
  H   H1878     1.0  0.60727  0.04535  0.24081  1.0000
  H   H1879     1.0  0.56809  0.17485  0.38163  1.0000
  C   C1093     1.0  0.95297  0.02582  0.48804  1.0000
  H   H1880     1.0  0.64595  0.06908  0.37264  1.0000
  C   C1094     1.0  0.91810  0.07270  0.47880  1.0000
  C   C1095     1.0  0.92160  0.12621  0.32934  1.0000
  C   C1096     1.0  0.62992  0.18211  0.41641  1.0000
  S   S329      1.0  0.55831  0.97495  0.50329  1.0000
  H   H1881     1.0  0.90798  0.04900  0.61391  1.0000
  H   H1882     1.0  0.73132  0.98145  0.56634  1.0000
  C   C1097     1.0  0.71197  0.13942  0.34821  1.0000
  H   H1883     1.0  0.67920  0.14279  0.44056  1.0000
  H   H1884     1.0  0.73419  0.05955  0.64280  1.0000
  H   H1885     1.0  0.72896  0.15252  0.46576  1.0000
  H   H1886     1.0  0.75877  0.01089  0.29723  1.0000
  Fe  Fe161     1.0  0.81670  0.98810  0.48023  1.0000
  C   C1098     1.0  0.92539  0.14187  0.64721  1.0000
  H   H1887     1.0  0.65979  0.07383  0.29464  1.0000
  Fe  Fe162     1.0  0.82688  0.97005  0.37498  1.0000
  H   H1888     1.0  0.71469  0.06772  0.28848  1.0000
  C   C1099     1.0  0.68830  0.00354  0.25472  1.0000
  C   C1100     1.0  0.75221  0.00370  0.67287  1.0000
  C   C1101     1.0  0.69342  0.03567  0.37573  1.0000
  C   C1102     1.0  0.81319  0.98376  0.66042  1.0000
  H   H1889     1.0  0.71159  0.09199  0.38100  1.0000
  H   H1890     1.0  0.91502  0.15491  0.35691  1.0000
  Fe  Fe163     1.0  0.50795  0.13541  0.35841  1.0000
  H   H1891     1.0  0.96942  0.99666  0.43847  1.0000
  H   H1892     1.0  0.93012  0.02704  0.57276  1.0000
  C   C1103     1.0  0.84294  0.02978  0.21335  1.0000
  H   H1893     1.0  0.90189  0.11256  0.36625  1.0000
  H   H1894     1.0  0.71266  0.03483  0.58714  1.0000
  H   H1895     1.0  0.66934  0.98503  0.35580  1.0000
  H   H1896     1.0  0.75903  0.06313  0.39616  1.0000
  C   C1104     1.0  0.73935  0.06897  0.33838  1.0000
  Fe  Fe164     1.0  0.78102  0.12976  0.46099  1.0000
  C   C1105     1.0  0.73298  0.20243  0.20537  1.0000
  H   H1897     1.0  0.76418  0.17740  0.65876  1.0000
  H   H1898     1.0  0.54576  0.21271  0.41269  1.0000
  C   C1106     1.0  0.79871  0.17659  0.62493  1.0000
  H   H1899     1.0  0.55856  0.20976  0.50231  1.0000
  S   S330      1.0  0.54639  0.16565  0.60142  1.0000
  C   C1107     1.0  0.93139  0.15232  0.33909  1.0000
  C   C1108     1.0  0.93921  0.98159  0.55099  1.0000
  H   H1900     1.0  0.62658  0.08844  0.32613  1.0000
  H   H1901     1.0  0.81965  0.07914  0.59482  1.0000
  H   H1902     1.0  0.51348  0.12689  0.56385  1.0000
  C   C1109     1.0  0.73227  0.03861  0.58217  1.0000
  N   N78       1.0  0.76446  0.05122  0.63695  1.0000
  S   S331      1.0  0.82319  0.15995  0.43004  1.0000
  H   H1903     1.0  0.48233  0.16364  0.54994  1.0000
  H   H1904     1.0  0.64069  0.21572  0.44384  1.0000
  H   H1905     1.0  0.50564  0.21746  0.67463  1.0000
  C   C1110     1.0  0.86560  0.02463  0.65511  1.0000
  H   H1906     1.0  0.67973  0.19549  0.30617  1.0000
  H   H1907     1.0  0.85862  0.15606  0.48854  1.0000
  H   H1908     1.0  0.59424  0.19630  0.39858  1.0000
  H   H1909     1.0  0.93789  0.01056  0.37337  1.0000
  H   H1910     1.0  0.47166  0.21285  0.38243  1.0000
  H   H1911     1.0  0.83821  0.04026  0.54487  1.0000
  H   H1912     1.0  0.49170  0.00766  0.66975  1.0000
  N   N79       1.0  0.92058  0.12677  0.26711  1.0000
  C   C1111     1.0  0.89538  0.13236  0.20070  1.0000
  C   C1112     1.0  0.89280  0.98870  0.56085  1.0000
  H   H1913     1.0  0.86420  0.08834  0.49620  1.0000
  C   C1113     1.0  0.47701  0.02928  0.51703  1.0000
  C   C1114     1.0  0.53852  0.19402  0.44576  1.0000
  C   C1115     1.0  0.81146  0.09141  0.58814  1.0000
  H   H1914     1.0  0.52013  0.02383  0.35183  1.0000
  H   H1915     1.0  0.88490  0.20337  0.42834  1.0000
  C   C1116     1.0  0.66637  0.19139  0.66131  1.0000
  S   S332      1.0  0.66607  0.99879  0.49313  1.0000
  C   C1117     1.0  0.96430  0.10948  0.66898  1.0000
  C   C1118     1.0  0.51318  0.14730  0.48035  1.0000
  H   H1916     1.0  0.94619  0.16935  0.29689  1.0000
  H   H1917     1.0  0.86008  0.19424  0.49733  1.0000
  C   C1119     1.0  0.60669  0.08336  0.33920  1.0000
  H   H1918     1.0  0.60015  0.18527  0.33646  1.0000
  H   H1919     1.0  0.75967  0.18615  0.37676  1.0000
  H   H1920     1.0  0.64762  0.97527  0.31557  1.0000
  C   C1120     1.0  0.84868  0.07695  0.48259  1.0000
  H   H1921     1.0  0.82514  0.10805  0.54405  1.0000
  S   S333      1.0  0.77763  0.14715  0.37517  1.0000
  H   H1922     1.0  0.64889  0.11459  0.49409  1.0000
  C   C1121     1.0  0.94501  0.08927  0.45989  1.0000
  C   C1122     1.0  0.62120  0.15846  0.31659  1.0000
  C   C1123     1.0  0.53446  0.03809  0.25046  1.0000
  N   N80       1.0  0.89867  0.21600  0.49770  1.0000
  H   H1923     1.0  0.72224  0.02664  0.68062  1.0000
  H   H1924     1.0  0.89447  0.05263  0.68268  1.0000
  H   H1925     1.0  0.85824  0.05946  0.69369  1.0000
  S   S334      1.0  0.56693  0.10734  0.26298  1.0000
  C   C1124     1.0  0.73770  0.04388  0.63873  1.0000
  H   H1926     1.0  0.53070  0.98151  0.28245  1.0000
  C   C1125     1.0  0.66420  0.07521  0.33626  1.0000
  C   C1126     1.0  0.71586  0.05814  0.32956  1.0000
  S   S335      1.0  0.83831  0.00919  0.37857  1.0000
  C   C1127     1.0  0.81316  0.03518  0.49445  1.0000
  N   N81       1.0  0.60724  0.15545  0.43016  1.0000
  C   C1128     1.0  0.70689  0.19122  0.24291  1.0000
  Fe  Fe165     1.0  0.62771  0.99139  0.48985  1.0000
  C   C1129     1.0  0.95586  0.01257  0.37776  1.0000
  H   H1927     1.0  0.77649  0.21758  0.27591  1.0000
  H   H1928     1.0  0.88377  0.12550  0.67849  1.0000
  H   H1929     1.0  0.92807  0.16103  0.64453  1.0000
  S   S336      1.0  0.83533  0.21777  0.30237  1.0000
  C   C1130     1.0  0.57462  0.09093  0.31546  1.0000
  H   H1930     1.0  0.47895  0.01347  0.22173  1.0000
  H   H1931     1.0  0.86919  0.08181  0.30358  1.0000
  C   C1131     1.0  0.65925  0.20423  0.62163  1.0000
  S   S337      1.0  0.95804  0.10231  0.51034  1.0000
  H   H1932     1.0  0.59945  0.12416  0.39539  1.0000
  C   C1132     1.0  0.67669  0.06965  0.46337  1.0000
  H   H1933     1.0  0.60662  0.19134  0.48119  1.0000
  C   C1133     1.0  0.77057  0.03145  0.62532  1.0000
  H   H1934     1.0  0.90880  0.15446  0.25660  1.0000
  C   C1134     1.0  0.54580  0.19237  0.49651  1.0000
  H   H1935     1.0  0.50816  0.19159  0.61926  1.0000
  C   C1135     1.0  0.95043  0.99412  0.44037  1.0000
  H   H1936     1.0  0.67853  0.11592  0.48919  1.0000
  H   H1937     1.0  0.88391  0.19056  0.59220  1.0000
  H   H1938     1.0  0.71730  0.18393  0.48117  1.0000
  C   C1136     1.0  0.58707  0.17942  0.38392  1.0000
  H   H1939     1.0  0.64973  0.08849  0.43705  1.0000
  H   H1940     1.0  0.48742  0.17662  0.28702  1.0000
  C   C1137     1.0  0.49159  0.17235  0.65371  1.0000
  H   H1941     1.0  0.82816  0.99537  0.61314  1.0000
  H   H1942     1.0  0.94811  0.03705  0.45667  1.0000
  C   C1138     1.0  0.52039  0.14565  0.53111  1.0000
  H   H1943     1.0  0.63906  0.19635  0.63020  1.0000
  N   N82       1.0  0.94641  0.13957  0.66227  1.0000
  H   H1944     1.0  0.94063  0.11142  0.61746  1.0000
  C   C1139     1.0  0.51316  0.01922  0.31492  1.0000
  H   H1945     1.0  0.71676  0.14698  0.54563  1.0000
  H   H1946     1.0  0.66926  0.03186  0.61964  1.0000
  H   H1947     1.0  0.62995  0.18678  0.50482  1.0000
  H   H1948     1.0  0.57142  0.15321  0.47631  1.0000
  N   N83       1.0  0.69041  0.11113  0.37457  1.0000
  Fe  Fe166     1.0  0.78840  0.12180  0.33778  1.0000
  H   H1949     1.0  0.64233  0.00027  0.63663  1.0000
  C   C1140     1.0  0.53100  0.98812  0.23589  1.0000
  H   H1950     1.0  0.68556  0.05969  0.48273  1.0000
  C   C1141     1.0  0.84272  0.08932  0.43890  1.0000
  N   N84       1.0  0.93774  0.99745  0.49712  1.0000
  C   C1142     1.0  0.79395  0.14337  0.58277  1.0000
  C   C1143     1.0  0.64774  0.01913  0.64194  1.0000
  H   H1951     1.0  0.47340  0.02233  0.66275  1.0000
  C   C1144     1.0  0.66862  0.12136  0.46189  1.0000
  H   H1952     1.0  0.60311  0.15456  0.30939  1.0000
  H   H1953     1.0  0.93657  0.20706  0.25666  1.0000
  C   C1145     1.0  0.75749  0.14801  0.61968  1.0000
  H   H1954     1.0  0.75421  0.05790  0.20525  1.0000
  C   C1146     1.0  0.89234  0.03820  0.66061  1.0000
  H   H1955     1.0  0.58616  0.07616  0.20673  1.0000
  H   H1956     1.0  0.54171  0.09702  0.67879  1.0000
  H   H1957     1.0  0.69221  0.97761  0.62868  1.0000
  H   H1958     1.0  0.87255  0.97194  0.57687  1.0000
  C   C1147     1.0  0.73048  0.97871  0.52265  1.0000
  H   H1959     1.0  0.88286  0.14023  0.19688  1.0000
  H   H1960     1.0  0.48691  0.15781  0.20787  1.0000
  H   H1961     1.0  0.91402  0.04488  0.20261  1.0000
  H   H1962     1.0  0.71684  0.21949  0.45657  1.0000
  H   H1963     1.0  0.92521  0.21387  0.39071  1.0000
  H   H1964     1.0  0.58723  0.01227  0.24528  1.0000
  H   H1965     1.0  0.94827  0.97531  0.68525  1.0000
  H   H1966     1.0  0.72622  0.05789  0.19722  1.0000
  C   C1148     1.0  0.47343  0.00640  0.69354  1.0000
  Fe  Fe167     1.0  0.47526  0.09081  0.32399  1.0000
  H   H1967     1.0  0.89619  0.02426  0.68579  1.0000
  Fe  Fe168     1.0  0.74448  0.21677  0.67421  1.0000
  C   C1149     1.0  0.55272  0.01658  0.19703  1.0000
  H   H1968     1.0  0.97015  0.03313  0.36863  1.0000
  C   C1150     1.0  0.97006  0.14557  0.22588  1.0000
  C   C1151     1.0  0.95477  0.21966  0.21725  1.0000
  H   H1969     1.0  0.51908  0.17528  0.69655  1.0000
  H   H1970     1.0  0.65338  0.33576  0.89352  1.0000
  C   C1152     1.0  0.70701  0.37899  0.12704  1.0000
  C   C1153     1.0  0.95540  0.28038  0.76211  1.0000
  C   C1154     1.0  0.90904  0.27661  0.04877  1.0000
  H   H1971     1.0  0.50471  0.30466  0.15818  1.0000
  H   H1972     1.0  0.65266  0.23113  0.90258  1.0000
  C   C1155     1.0  0.61534  0.45707  0.78738  1.0000
  Fe  Fe169     1.0  0.90431  0.35936  0.93829  1.0000
  S   S338      1.0  0.75824  0.33108  0.15821  1.0000
  H   H1973     1.0  0.92488  0.29699  0.01875  1.0000
  H   H1974     1.0  0.58008  0.27620  0.75567  1.0000
  H   H1975     1.0  0.65228  0.25948  0.06323  1.0000
  H   H1976     1.0  0.72415  0.36897  0.96964  1.0000
  H   H1977     1.0  0.54285  0.24020  0.82877  1.0000
  C   C1156     1.0  0.55878  0.36774  0.85714  1.0000
  H   H1978     1.0  0.60931  0.31691  0.16922  1.0000
  C   C1157     1.0  0.70976  0.23193  0.05567  1.0000
  C   C1158     1.0  0.53903  0.32092  0.95026  1.0000
  S   S339      1.0  0.58491  0.33636  0.96628  1.0000
  H   H1979     1.0  0.93179  0.25928  0.71625  1.0000
  C   C1159     1.0  0.53898  0.24583  0.86914  1.0000
  S   S340      1.0  0.86099  0.33693  0.97394  1.0000
  H   H1980     1.0  0.54869  0.35231  0.05511  1.0000
  Fe  Fe170     1.0  0.47612  0.34240  0.94168  1.0000
  C   C1160     1.0  0.59568  0.23099  0.18678  1.0000
  H   H1981     1.0  0.62662  0.30267  0.92525  1.0000
  C   C1161     1.0  0.54217  0.41060  0.09148  1.0000
  S   S341      1.0  0.67324  0.30761  0.83901  1.0000
  H   H1982     1.0  0.66938  0.25951  0.14585  1.0000
  H   H1983     1.0  0.95950  0.37822  0.80006  1.0000
  H   H1984     1.0  0.96971  0.24469  0.77376  1.0000
  H   H1985     1.0  0.55101  0.30902  0.17504  1.0000
  H   H1986     1.0  0.93497  0.27875  0.16015  1.0000
  H   H1987     1.0  0.76333  0.22554  0.98781  1.0000
  H   H1988     1.0  0.90090  0.23506  0.18320  1.0000
  H   H1989     1.0  0.80141  0.27248  0.98697  1.0000
  C   C1162     1.0  0.54193  0.42544  0.89832  1.0000
  C   C1163     1.0  0.62774  0.26153  0.87712  1.0000
  H   H1990     1.0  0.73767  0.28082  0.74304  1.0000
  H   H1991     1.0  0.68068  0.36889  0.00920  1.0000
  H   H1992     1.0  0.54422  0.42768  0.10250  1.0000
  H   H1993     1.0  0.53401  0.27484  0.89570  1.0000
  H   H1994     1.0  0.80154  0.28285  0.08230  1.0000
  H   H1995     1.0  0.77976  0.35911  0.71970  1.0000
  C   C1164     1.0  0.71970  0.27665  0.73474  1.0000
  H   H1996     1.0  0.78200  0.24556  0.87223  1.0000
  H   H1997     1.0  0.57835  0.33395  0.74716  1.0000
  S   S342      1.0  0.56142  0.26425  0.00178  1.0000
  H   H1998     1.0  0.55266  0.24657  0.89169  1.0000
  H   H1999     1.0  0.56388  0.32656  0.82656  1.0000
  H   H2000     1.0  0.66776  0.42016  0.80920  1.0000
  H   H2001     1.0  0.73643  0.37278  0.89157  1.0000
  C   C1165     1.0  0.57400  0.29034  0.74706  1.0000
  H   H2002     1.0  0.70380  0.22886  0.74281  1.0000
  H   H2003     1.0  0.53141  0.30239  0.98391  1.0000
  H   H2004     1.0  0.91331  0.27503  0.95674  1.0000
  H   H2005     1.0  0.50194  0.31047  0.94481  1.0000
  C   C1166     1.0  0.67114  0.44098  0.87221  1.0000
  H   H2006     1.0  0.92644  0.23943  0.06639  1.0000
  H   H2007     1.0  0.64006  0.35689  0.06875  1.0000
  C   C1167     1.0  0.68975  0.38581  0.15308  1.0000
  Fe  Fe171     1.0  0.90831  0.33685  0.83895  1.0000
  C   C1168     1.0  0.62289  0.27182  0.76372  1.0000
  N   N85       1.0  0.56467  0.29489  0.80478  1.0000
  C   C1169     1.0  0.67449  0.32296  0.04728  1.0000
  H   H2008     1.0  0.74390  0.23227  0.95550  1.0000
  H   H2009     1.0  0.47742  0.41132  0.78839  1.0000
  H   H2010     1.0  0.84171  0.42455  0.97471  1.0000
  H   H2011     1.0  0.80372  0.26283  0.90498  1.0000
  H   H2012     1.0  0.94796  0.35830  0.96567  1.0000
  H   H2013     1.0  0.96696  0.29834  0.00244  1.0000
  C   C1170     1.0  0.58505  0.43950  0.94890  1.0000
  S   S343      1.0  0.79589  0.28888  0.74034  1.0000
  S   S344      1.0  0.86508  0.31222  0.86803  1.0000
  H   H2014     1.0  0.93057  0.45367  0.77135  1.0000
  C   C1171     1.0  0.60353  0.43909  0.76151  1.0000
  C   C1172     1.0  0.72000  0.30206  0.72414  1.0000
  C   C1173     1.0  0.50102  0.45152  0.82068  1.0000
  H   H2015     1.0  0.88873  0.41466  0.84160  1.0000
  H   H2016     1.0  0.82524  0.35051  0.96221  1.0000
  H   H2017     1.0  0.67691  0.30651  0.04505  1.0000
  S   S345      1.0  0.96393  0.22483  0.96610  1.0000
  H   H2018     1.0  0.57756  0.30165  0.87909  1.0000
  H   H2019     1.0  0.71475  0.22745  0.86175  1.0000
  C   C1174     1.0  0.94023  0.37869  0.02197  1.0000
  H   H2020     1.0  0.73583  0.24719  0.09950  1.0000
  C   C1175     1.0  0.83981  0.33035  0.14459  1.0000
  C   C1176     1.0  0.96803  0.31471  0.83798  1.0000
  C   C1177     1.0  0.76190  0.24194  0.96434  1.0000
  C   C1178     1.0  0.57527  0.36380  0.88234  1.0000
  C   C1179     1.0  0.54196  0.36498  0.03753  1.0000
  S   S346      1.0  0.90747  0.32542  0.93438  1.0000
  C   C1180     1.0  0.64312  0.43953  0.72215  1.0000
  H   H2021     1.0  0.53897  0.33326  0.76792  1.0000
  H   H2022     1.0  0.58229  0.45448  0.92404  1.0000
  H   H2023     1.0  0.52413  0.39334  0.12833  1.0000
  C   C1181     1.0  0.48946  0.32549  0.72110  1.0000
  N   N86       1.0  0.47594  0.45592  0.75183  1.0000
  H   H2024     1.0  0.83425  0.26877  0.74625  1.0000
  C   C1182     1.0  0.89409  0.24297  0.15036  1.0000
  Fe  Fe172     1.0  0.64808  0.40534  0.15951  1.0000
  H   H2025     1.0  0.62154  0.32653  0.75055  1.0000
  H   H2026     1.0  0.53322  0.41755  0.86641  1.0000
  C   C1183     1.0  0.78486  0.25768  0.90107  1.0000
  H   H2027     1.0  0.77993  0.24592  0.05727  1.0000
  S   S347      1.0  0.60122  0.24238  0.06573  1.0000
  C   C1184     1.0  0.84324  0.28332  0.18490  1.0000
  H   H2028     1.0  0.53938  0.43078  0.01180  1.0000
  H   H2029     1.0  0.60164  0.43789  0.02053  1.0000
  Fe  Fe173     1.0  0.56967  0.25083  0.08317  1.0000
  H   H2030     1.0  0.94390  0.28947  0.77105  1.0000
  C   C1185     1.0  0.96003  0.38286  0.09707  1.0000
  C   C1186     1.0  0.63916  0.25147  0.11077  1.0000
  H   H2031     1.0  0.66553  0.26034  0.78622  1.0000
  C   C1187     1.0  0.48790  0.46587  0.17233  1.0000
  H   H2032     1.0  0.53253  0.38769  0.94630  1.0000
  S   S348      1.0  0.92040  0.38460  0.98957  1.0000
  H   H2033     1.0  0.51926  0.22990  0.90278  1.0000
  S   S349      1.0  0.69718  0.31160  0.18529  1.0000
  H   H2034     1.0  0.65656  0.30987  0.73747  1.0000
  H   H2035     1.0  0.48355  0.22747  0.69800  1.0000
  H   H2036     1.0  0.62441  0.32785  0.82174  1.0000
  H   H2037     1.0  0.62118  0.38532  0.03756  1.0000
  H   H2038     1.0  0.59215  0.30824  0.71242  1.0000
  H   H2039     1.0  0.83744  0.38823  0.70699  1.0000
  H   H2040     1.0  0.73677  0.46662  0.94664  1.0000
  C   C1188     1.0  0.95261  0.27349  0.70507  1.0000
  H   H2041     1.0  0.74801  0.46601  0.19317  1.0000
  H   H2042     1.0  0.65491  0.29874  0.96987  1.0000
  H   H2043     1.0  0.72817  0.31207  0.75402  1.0000
  H   H2044     1.0  0.59415  0.22347  0.90323  1.0000
  C   C1189     1.0  0.47613  0.40878  0.06352  1.0000
  H   H2045     1.0  0.47357  0.29385  0.15494  1.0000
  H   H2046     1.0  0.78178  0.33601  0.03494  1.0000
  C   C1190     1.0  0.58484  0.30066  0.83315  1.0000
  H   H2047     1.0  0.71759  0.38630  0.91299  1.0000
  C   C1191     1.0  0.78276  0.26372  0.02630  1.0000
  H   H2048     1.0  0.89741  0.28638  0.18010  1.0000
  N   N87       1.0  0.69612  0.25297  0.78637  1.0000
  N   N88       1.0  0.67063  0.33369  0.99091  1.0000
  H   H2049     1.0  0.50306  0.44609  0.70744  1.0000
  H   H2050     1.0  0.71002  0.43868  0.89956  1.0000
  H   H2051     1.0  0.86161  0.45449  0.87794  1.0000
  C   C1192     1.0  0.76187  0.28140  0.97428  1.0000
  C   C1193     1.0  0.91845  0.43884  0.89951  1.0000
  C   C1194     1.0  0.67082  0.46165  0.94849  1.0000
  S   S350      1.0  0.73533  0.32776  0.01543  1.0000
  C   C1195     1.0  0.71974  0.37212  0.16087  1.0000
  H   H2052     1.0  0.52764  0.36352  0.07788  1.0000
  S   S351      1.0  0.54557  0.42605  0.72177  1.0000
  H   H2053     1.0  0.69198  0.27472  0.84298  1.0000
  H   H2054     1.0  0.56490  0.40831  0.89080  1.0000
  H   H2055     1.0  0.59567  0.37883  0.86499  1.0000
  C   C1196     1.0  0.53667  0.31401  0.78428  1.0000
  H   H2056     1.0  0.49838  0.31819  0.74608  1.0000
  H   H2057     1.0  0.78632  0.27551  0.87539  1.0000
  H   H2058     1.0  0.68331  0.45994  0.83394  1.0000
  C   C1197     1.0  0.87796  0.33992  0.16973  1.0000
  H   H2059     1.0  0.55863  0.44538  0.86975  1.0000
  H   H2060     1.0  0.48512  0.43242  0.85645  1.0000
  C   C1198     1.0  0.85501  0.28444  0.73045  1.0000
  C   C1199     1.0  0.73219  0.46137  0.17573  1.0000
  C   C1200     1.0  0.61272  0.24188  0.12523  1.0000
  S   S352      1.0  0.52080  0.27253  0.09415  1.0000
  C   C1201     1.0  0.71941  0.36939  0.92815  1.0000
  S   S353      1.0  0.69347  0.37922  0.75365  1.0000
  H   H2061     1.0  0.67308  0.24112  0.94440  1.0000
  C   C1202     1.0  0.63804  0.31965  0.93685  1.0000
  H   H2062     1.0  0.69265  0.33751  0.04975  1.0000
  C   C1203     1.0  0.56579  0.39292  0.00155  1.0000
  H   H2063     1.0  0.62711  0.39507  0.95758  1.0000
  H   H2064     1.0  0.65265  0.23992  0.71062  1.0000
  H   H2065     1.0  0.63182  0.29856  0.02717  1.0000
  H   H2066     1.0  0.70780  0.24896  0.04579  1.0000
  C   C1204     1.0  0.69892  0.23007  0.78916  1.0000
  C   C1205     1.0  0.61729  0.43024  0.72906  1.0000
  H   H2067     1.0  0.89213  0.27782  0.07173  1.0000
  C   C1206     1.0  0.74593  0.28011  0.93332  1.0000
  Fe  Fe174     1.0  0.73510  0.40189  0.74248  1.0000
  S   S354      1.0  0.58268  0.22204  0.79490  1.0000
  C   C1207     1.0  0.63155  0.40246  0.99422  1.0000
  C   C1208     1.0  0.77292  0.34861  0.90077  1.0000
  C   C1209     1.0  0.64291  0.29110  0.77374  1.0000
  H   H2068     1.0  0.89337  0.46270  0.94952  1.0000
  H   H2069     1.0  0.94539  0.25601  0.10360  1.0000
  S   S355      1.0  0.74741  0.43098  0.78797  1.0000
  H   H2070     1.0  0.67105  0.36758  0.94561  1.0000
  H   H2071     1.0  0.90649  0.45133  0.74157  1.0000
  H   H2072     1.0  0.69612  0.42881  0.82578  1.0000
  C   C1210     1.0  0.81620  0.35662  0.88189  1.0000
  H   H2073     1.0  0.87390  0.41691  0.99762  1.0000
  Fe  Fe175     1.0  0.51968  0.24017  0.06614  1.0000
  H   H2074     1.0  0.81588  0.41429  0.79413  1.0000
  Fe  Fe176     1.0  0.56325  0.29570  0.03495  1.0000
  H   H2075     1.0  0.62076  0.27615  0.72053  1.0000
  H   H2076     1.0  0.84624  0.25772  0.93217  1.0000
  C   C1211     1.0  0.96386  0.43436  0.16388  1.0000
  H   H2077     1.0  0.56838  0.35115  0.19003  1.0000
  C   C1212     1.0  0.49377  0.35014  0.71503  1.0000
  H   H2078     1.0  0.87119  0.39680  0.95341  1.0000
  C   C1213     1.0  0.93612  0.25860  0.07069  1.0000
  C   C1214     1.0  0.78539  0.42137  0.79347  1.0000
  Fe  Fe177     1.0  0.69883  0.34579  0.76087  1.0000
  C   C1215     1.0  0.79755  0.35671  0.85965  1.0000
  H   H2079     1.0  0.94472  0.44511  0.94790  1.0000
  H   H2080     1.0  0.56635  0.38565  0.82041  1.0000
  S   S356      1.0  0.90895  0.37295  0.84005  1.0000
  C   C1216     1.0  0.81066  0.42867  0.78841  1.0000
  H   H2081     1.0  0.62969  0.25750  0.92102  1.0000
  H   H2082     1.0  0.70057  0.29912  0.73237  1.0000
  C   C1217     1.0  0.77850  0.43983  0.78603  1.0000
  H   H2083     1.0  0.73935  0.24713  0.78488  1.0000
  S   S357      1.0  0.71674  0.27319  0.16396  1.0000
  H   H2084     1.0  0.83880  0.40639  0.92345  1.0000
  H   H2085     1.0  0.61700  0.46897  0.96271  1.0000
  H   H2086     1.0  0.94508  0.26204  0.80269  1.0000
  C   C1218     1.0  0.82944  0.45470  0.77265  1.0000
  Fe  Fe178     1.0  0.86567  0.34778  0.87518  1.0000
  C   C1219     1.0  0.78615  0.34195  0.98615  1.0000
  H   H2087     1.0  0.81829  0.31826  0.15994  1.0000
  H   H2088     1.0  0.81724  0.22081  0.90801  1.0000
  C   C1220     1.0  0.61158  0.32617  0.79583  1.0000
  N   N89       1.0  0.84868  0.32568  0.19627  1.0000
  C   C1221     1.0  0.69438  0.25804  0.84539  1.0000
  H   H2089     1.0  0.75580  0.28882  0.00939  1.0000
  C   C1222     1.0  0.56517  0.34054  0.93024  1.0000
  H   H2090     1.0  0.77050  0.27898  0.09572  1.0000
  H   H2091     1.0  0.60464  0.46405  0.81165  1.0000
  H   H2092     1.0  0.62338  0.41455  0.00084  1.0000
  H   H2093     1.0  0.91495  0.31153  0.10434  1.0000
  C   C1223     1.0  0.89073  0.43341  0.84123  1.0000
  H   H2094     1.0  0.91158  0.42569  0.99875  1.0000
  S   S358      1.0  0.73933  0.36768  0.75728  1.0000
  H   H2095     1.0  0.77137  0.40145  0.80296  1.0000
  H   H2096     1.0  0.61019  0.34354  0.78979  1.0000
  C   C1224     1.0  0.84413  0.40928  0.96324  1.0000
  C   C1225     1.0  0.65527  0.45828  0.74656  1.0000
  S   S359      1.0  0.57455  0.28416  0.11215  1.0000
  H   H2097     1.0  0.69222  0.34785  0.89228  1.0000
  H   H2098     1.0  0.65410  0.33051  0.12060  1.0000
  H   H2099     1.0  0.66453  0.40197  0.88169  1.0000
  N   N90       1.0  0.91716  0.26604  0.09622  1.0000
  H   H2100     1.0  0.65087  0.43588  0.88018  1.0000
  S   S360      1.0  0.67198  0.39171  0.11230  1.0000
  C   C1226     1.0  0.95817  0.27774  0.00750  1.0000
  C   C1227     1.0  0.67259  0.24800  0.71058  1.0000
  H   H2101     1.0  0.53164  0.30477  0.75095  1.0000
  H   H2102     1.0  0.65489  0.22743  0.80821  1.0000
  H   H2103     1.0  0.78495  0.32513  0.77689  1.0000
  H   H2104     1.0  0.82968  0.39094  0.00326  1.0000
  H   H2105     1.0  0.79795  0.30315  0.02647  1.0000
  C   C1228     1.0  0.69513  0.34393  0.93615  1.0000
  C   C1229     1.0  0.60576  0.24717  0.80957  1.0000
  C   C1230     1.0  0.65316  0.31370  0.10995  1.0000
  H   H2106     1.0  0.58633  0.45654  0.02057  1.0000
  H   H2107     1.0  0.47942  0.44259  0.00739  1.0000
  H   H2108     1.0  0.55860  0.40907  0.09562  1.0000
  H   H2109     1.0  0.88166  0.24856  0.17643  1.0000
  C   C1231     1.0  0.64573  0.28568  0.82985  1.0000
  H   H2110     1.0  0.93571  0.45508  0.85887  1.0000
  Fe  Fe179     1.0  0.72958  0.31407  0.11483  1.0000
  C   C1232     1.0  0.67154  0.24704  0.77581  1.0000
  H   H2111     1.0  0.86435  0.29305  0.15894  1.0000
  C   C1233     1.0  0.64883  0.25134  0.15759  1.0000
  C   C1234     1.0  0.55537  0.28181  0.71308  1.0000
  S   S361      1.0  0.52753  0.22396  0.14561  1.0000
  H   H2112     1.0  0.59987  0.43891  0.91390  1.0000
  H   H2113     1.0  0.52011  0.39664  0.03666  1.0000
  H   H2114     1.0  0.52289  0.26711  0.83772  1.0000
  H   H2115     1.0  0.73263  0.28664  0.94973  1.0000
  H   H2116     1.0  0.66814  0.40440  0.97281  1.0000
  C   C1235     1.0  0.56212  0.31815  0.79020  1.0000
  S   S362      1.0  0.48850  0.22023  0.03200  1.0000
  H   H2117     1.0  0.65146  0.45719  0.94862  1.0000
  C   C1236     1.0  0.71969  0.22972  0.81262  1.0000
  C   C1237     1.0  0.81068  0.34982  0.94500  1.0000
  H   H2118     1.0  0.80187  0.36236  0.81078  1.0000
  H   H2119     1.0  0.88666  0.36126  0.15173  1.0000
  C   C1238     1.0  0.96405  0.36577  0.72303  1.0000
  H   H2120     1.0  0.70047  0.32910  0.93744  1.0000
  H   H2121     1.0  0.75917  0.29387  0.88539  1.0000
  S   S363      1.0  0.93421  0.33602  0.75856  1.0000
  H   H2122     1.0  0.86809  0.36829  0.07033  1.0000
  H   H2123     1.0  0.58362  0.43194  0.76706  1.0000
  S   S364      1.0  0.86190  0.46416  0.75438  1.0000
  C   C1239     1.0  0.71525  0.45675  0.96557  1.0000
  C   C1240     1.0  0.79551  0.31519  0.69857  1.0000
  C   C1241     1.0  0.59781  0.45083  0.99158  1.0000
  S   S365      1.0  0.84577  0.36382  0.83073  1.0000
  H   H2124     1.0  0.52683  0.42593  0.93210  1.0000
  C   C1242     1.0  0.95086  0.36469  0.00312  1.0000
  N   N91       1.0  0.67721  0.44315  0.92856  1.0000
  H   H2125     1.0  0.51760  0.44871  0.10273  1.0000
  H   H2126     1.0  0.58888  0.28494  0.84148  1.0000
  N   N92       1.0  0.76026  0.25685  0.00565  1.0000
  N   N93       1.0  0.89394  0.43783  0.89894  1.0000
  C   C1243     1.0  0.60768  0.24228  0.86703  1.0000
  H   H2127     1.0  0.71025  0.37856  0.08112  1.0000
  H   H2128     1.0  0.94681  0.30235  0.85036  1.0000
  C   C1244     1.0  0.64119  0.46678  0.77970  1.0000
  H   H2129     1.0  0.83461  0.35943  0.09284  1.0000
  H   H2130     1.0  0.53048  0.44363  0.17874  1.0000
  H   H2131     1.0  0.73409  0.26087  0.93145  1.0000
  H   H2132     1.0  0.57688  0.39760  0.03138  1.0000
  C   C1245     1.0  0.79691  0.46565  0.77419  1.0000
  H   H2133     1.0  0.95007  0.30273  0.08584  1.0000
  H   H2134     1.0  0.96372  0.39010  0.13299  1.0000
  Fe  Fe180     1.0  0.86432  0.30362  0.96419  1.0000
  C   C1246     1.0  0.70557  0.45264  0.91309  1.0000
  C   C1247     1.0  0.66659  0.35557  0.99302  1.0000
  C   C1248     1.0  0.92541  0.44273  0.95571  1.0000
  C   C1249     1.0  0.52236  0.32539  0.92732  1.0000
  C   C1250     1.0  0.53978  0.41298  0.02802  1.0000
  S   S366      1.0  0.51105  0.35609  0.85856  1.0000
  H   H2135     1.0  0.63082  0.35545  0.00444  1.0000
  C   C1251     1.0  0.67519  0.42175  0.84671  1.0000
  H   H2136     1.0  0.72428  0.44110  0.17783  1.0000
  C   C1252     1.0  0.53942  0.27132  0.85226  1.0000
  H   H2137     1.0  0.62524  0.32712  0.05703  1.0000
  S   S367      1.0  0.61526  0.40639  0.13967  1.0000
  H   H2138     1.0  0.75826  0.34783  0.88345  1.0000
  H   H2139     1.0  0.87253  0.43119  0.83826  1.0000
  H   H2140     1.0  0.91757  0.42093  0.89592  1.0000
  H   H2141     1.0  0.48186  0.24179  0.81360  1.0000
  C   C1253     1.0  0.63916  0.34805  0.03323  1.0000
  H   H2142     1.0  0.88519  0.33584  0.12865  1.0000
  H   H2143     1.0  0.57895  0.39229  0.96232  1.0000
  C   C1254     1.0  0.48372  0.29462  0.18717  1.0000
  H   H2144     1.0  0.53465  0.26888  0.74395  1.0000
  H   H2145     1.0  0.53208  0.35670  0.00792  1.0000
  C   C1255     1.0  0.94515  0.38806  0.06831  1.0000
  H   H2146     1.0  0.78249  0.29691  0.94444  1.0000
  C   C1256     1.0  0.87157  0.41478  0.95436  1.0000
  C   C1257     1.0  0.64877  0.31172  0.98339  1.0000
  H   H2147     1.0  0.92707  0.46039  0.96232  1.0000
  H   H2148     1.0  0.71290  0.26417  0.85254  1.0000
  C   C1258     1.0  0.66097  0.41726  0.98060  1.0000
  H   H2149     1.0  0.62432  0.32499  0.95690  1.0000
  H   H2150     1.0  0.66903  0.45961  0.99680  1.0000
  C   C1259     1.0  0.78847  0.32930  0.72852  1.0000
  H   H2151     1.0  0.84678  0.32369  0.10882  1.0000
  H   H2152     1.0  0.67548  0.46612  0.73922  1.0000
  C   C1260     1.0  0.52627  0.46890  0.07243  1.0000
  Fe  Fe181     1.0  0.53180  0.25853  0.16838  1.0000
  S   S368      1.0  0.84127  0.26667  0.04643  1.0000
  H   H2153     1.0  0.92850  0.31392  0.16181  1.0000
  N   N94       1.0  0.56001  0.41329  0.97857  1.0000
  H   H2154     1.0  0.93722  0.39912  0.08250  1.0000
  C   C1261     1.0  0.55003  0.40759  0.92863  1.0000
  H   H2155     1.0  0.86395  0.22524  0.11378  1.0000
  H   H2156     1.0  0.85583  0.29628  0.75943  1.0000
  C   C1262     1.0  0.93079  0.28672  0.12096  1.0000
  H   H2157     1.0  0.66293  0.41965  0.02401  1.0000
  C   C1263     1.0  0.76706  0.34081  0.96417  1.0000
  C   C1264     1.0  0.53217  0.34908  0.88174  1.0000
  H   H2158     1.0  0.48661  0.32934  0.19309  1.0000
  H   H2159     1.0  0.51431  0.44931  0.78612  1.0000
  H   H2160     1.0  0.90437  0.24525  0.01133  1.0000
  C   C1265     1.0  0.78810  0.28318  0.05973  1.0000
  H   H2161     1.0  0.86576  0.27496  0.73888  1.0000
  H   H2162     1.0  0.95153  0.27503  0.96936  1.0000
  H   H2163     1.0  0.52018  0.30280  0.82967  1.0000
  H   H2164     1.0  0.88091  0.25406  0.01219  1.0000
  H   H2165     1.0  0.63340  0.29961  0.11417  1.0000
  H   H2166     1.0  0.50603  0.36184  0.73532  1.0000
  Fe  Fe182     1.0  0.63429  0.44656  0.14125  1.0000
  C   C1266     1.0  0.84937  0.35885  0.11000  1.0000
  H   H2167     1.0  0.95107  0.44181  0.16190  1.0000
  C   C1267     1.0  0.82312  0.23969  0.02948  1.0000
  H   H2168     1.0  0.48366  0.44743  0.16629  1.0000
  H   H2169     1.0  0.48967  0.40880  0.02619  1.0000
  C   C1268     1.0  0.90157  0.26166  0.00548  1.0000
  H   H2170     1.0  0.73294  0.36670  0.14052  1.0000
  S   S369      1.0  0.66882  0.44663  0.15213  1.0000
  H   H2171     1.0  0.85201  0.37063  0.13931  1.0000
  C   C1269     1.0  0.73569  0.23902  0.06277  1.0000
  H   H2172     1.0  0.65668  0.30332  0.14629  1.0000
  C   C1270     1.0  0.82914  0.24076  0.96873  1.0000
  C   C1271     1.0  0.91671  0.30007  0.14282  1.0000
  C   C1272     1.0  0.67173  0.23541  0.90390  1.0000
  H   H2173     1.0  0.70742  0.43795  0.00200  1.0000
  H   H2174     1.0  0.83309  0.28157  0.15254  1.0000
  C   C1273     1.0  0.96612  0.35975  0.03160  1.0000
  H   H2175     1.0  0.70679  0.22289  0.02086  1.0000
  H   H2176     1.0  0.47311  0.26265  0.87831  1.0000
  H   H2177     1.0  0.77203  0.23603  0.17139  1.0000
  H   H2178     1.0  0.51270  0.46260  0.84431  1.0000
  C   C1274     1.0  0.49013  0.46652  0.79177  1.0000
  H   H2179     1.0  0.47721  0.46706  0.83143  1.0000
  C   C1275     1.0  0.91289  0.45463  0.77996  1.0000
  C   C1276     1.0  0.89659  0.46285  0.90180  1.0000
  H   H2180     1.0  0.91184  0.34689  0.19131  1.0000
  H   H2181     1.0  0.89297  0.33489  0.71182  1.0000
  H   H2182     1.0  0.71042  0.46901  0.98639  1.0000
  H   H2183     1.0  0.73442  0.22054  0.08313  1.0000
  C   C1277     1.0  0.81278  0.21989  0.95514  1.0000
  C   C1278     1.0  0.87524  0.22009  0.13666  1.0000
  C   C1279     1.0  0.90928  0.29284  0.61924  1.0000
  H   H2184     1.0  0.81381  0.25073  0.37040  1.0000
  H   H2185     1.0  0.85856  0.26864  0.30781  1.0000
  C   C1280     1.0  0.50840  0.39818  0.51808  1.0000
  C   C1281     1.0  0.88279  0.22991  0.30579  1.0000
  Fe  Fe183     1.0  0.59721  0.26157  0.57277  1.0000
  C   C1282     1.0  0.63019  0.28215  0.35210  1.0000
  C   C1283     1.0  0.75878  0.23362  0.42895  1.0000
  S   S370      1.0  0.76664  0.27241  0.22262  1.0000
  H   H2186     1.0  0.73450  0.23129  0.37412  1.0000
  S   S371      1.0  0.92723  0.32841  0.40101  1.0000
  H   H2187     1.0  0.49381  0.34940  0.26845  1.0000
  C   C1284     1.0  0.86521  0.23781  0.30655  1.0000
  C   C1285     1.0  0.60547  0.31768  0.21589  1.0000
  C   C1286     1.0  0.52155  0.35588  0.53630  1.0000
  H   H2188     1.0  0.48687  0.38499  0.54040  1.0000
  H   H2189     1.0  0.64456  0.35944  0.44907  1.0000
  H   H2190     1.0  0.91433  0.29850  0.56890  1.0000
  H   H2191     1.0  0.87871  0.34594  0.66778  1.0000
  H   H2192     1.0  0.68358  0.31824  0.43272  1.0000
  Fe  Fe184     1.0  0.93403  0.36518  0.33913  1.0000
  H   H2193     1.0  0.53854  0.23794  0.31446  1.0000
  C   C1287     1.0  0.83647  0.29691  0.22653  1.0000
  C   C1288     1.0  0.84096  0.30768  0.43389  1.0000
  H   H2194     1.0  0.58485  0.31133  0.23363  1.0000
  C   C1289     1.0  0.71158  0.22285  0.59674  1.0000
  S   S372      1.0  0.60347  0.46860  0.44207  1.0000
  H   H2195     1.0  0.52389  0.22448  0.50196  1.0000
  C   C1290     1.0  0.90765  0.24714  0.30285  1.0000
  N   N95       1.0  0.51914  0.39146  0.46592  1.0000
  S   S373      1.0  0.66741  0.44081  0.31543  1.0000
  H   H2196     1.0  0.92067  0.38099  0.66181  1.0000
  S   S374      1.0  0.75114  0.41410  0.63984  1.0000
  H   H2197     1.0  0.88255  0.46708  0.61876  1.0000
  H   H2198     1.0  0.58672  0.32983  0.30568  1.0000
  H   H2199     1.0  0.47712  0.32628  0.34703  1.0000
  H   H2200     1.0  0.55512  0.38249  0.39919  1.0000
  H   H2201     1.0  0.71855  0.29559  0.45210  1.0000
  H   H2202     1.0  0.50075  0.38890  0.33868  1.0000
  C   C1291     1.0  0.96613  0.30479  0.46874  1.0000
  H   H2203     1.0  0.63242  0.31285  0.24775  1.0000
  H   H2204     1.0  0.92039  0.25774  0.47237  1.0000
  C   C1292     1.0  0.75644  0.32418  0.38175  1.0000
  S   S375      1.0  0.78905  0.28798  0.47486  1.0000
  H   H2205     1.0  0.64143  0.36515  0.63681  1.0000
  Fe  Fe185     1.0  0.78809  0.26246  0.68753  1.0000
  H   H2206     1.0  0.60230  0.25549  0.32534  1.0000
  C   C1293     1.0  0.86704  0.32753  0.40138  1.0000
  C   C1294     1.0  0.80754  0.23938  0.41929  1.0000
  H   H2207     1.0  0.71892  0.31777  0.39234  1.0000
  S   S376      1.0  0.55355  0.36378  0.29696  1.0000
  H   H2208     1.0  0.73976  0.39424  0.42575  1.0000
  C   C1295     1.0  0.89658  0.27937  0.30672  1.0000
  C   C1296     1.0  0.50600  0.38105  0.37527  1.0000
  H   H2209     1.0  0.85310  0.35678  0.23002  1.0000
  H   H2210     1.0  0.92161  0.23281  0.58458  1.0000
  H   H2211     1.0  0.49612  0.42765  0.22616  1.0000
  S   S377      1.0  0.94528  0.29248  0.30258  1.0000
  H   H2212     1.0  0.52421  0.38229  0.35238  1.0000
  N   N96       1.0  0.72860  0.33231  0.46309  1.0000
  H   H2213     1.0  0.83587  0.46179  0.57691  1.0000
  Fe  Fe186     1.0  0.75168  0.37779  0.65537  1.0000
  H   H2214     1.0  0.61273  0.34878  0.44662  1.0000
  H   H2215     1.0  0.76851  0.32337  0.40801  1.0000
  H   H2216     1.0  0.56290  0.24472  0.52692  1.0000
  H   H2217     1.0  0.80784  0.33690  0.22782  1.0000
  C   C1297     1.0  0.83310  0.45276  0.62489  1.0000
  C   C1298     1.0  0.67833  0.22705  0.57118  1.0000
  H   H2218     1.0  0.68991  0.34581  0.45556  1.0000
  S   S378      1.0  0.81792  0.27044  0.59982  1.0000
  H   H2219     1.0  0.58877  0.25593  0.39867  1.0000
  C   C1299     1.0  0.63602  0.37435  0.55129  1.0000
  H   H2220     1.0  0.71124  0.43113  0.66952  1.0000
  H   H2221     1.0  0.65400  0.43313  0.69581  1.0000
  Fe  Fe187     1.0  0.63119  0.23895  0.57330  1.0000
  Fe  Fe188     1.0  0.68640  0.27201  0.23793  1.0000
  C   C1300     1.0  0.79736  0.34003  0.60346  1.0000
  H   H2222     1.0  0.88522  0.33969  0.25552  1.0000
  H   H2223     1.0  0.55614  0.40869  0.47767  1.0000
  C   C1301     1.0  0.63263  0.36577  0.43223  1.0000
  S   S379      1.0  0.60579  0.23832  0.52147  1.0000
  C   C1302     1.0  0.50963  0.36305  0.49196  1.0000
  H   H2224     1.0  0.55780  0.28093  0.32070  1.0000
  C   C1303     1.0  0.68632  0.38702  0.21188  1.0000
  H   H2225     1.0  0.63493  0.35654  0.54659  1.0000
  H   H2226     1.0  0.87233  0.24290  0.52083  1.0000
  H   H2227     1.0  0.93146  0.33134  0.61770  1.0000
  H   H2228     1.0  0.68464  0.26822  0.67703  1.0000
  H   H2229     1.0  0.55464  0.42913  0.41956  1.0000
  H   H2230     1.0  0.51340  0.31215  0.37750  1.0000
  H   H2231     1.0  0.51361  0.35547  0.45547  1.0000
  C   C1304     1.0  0.60523  0.22969  0.23380  1.0000
  H   H2232     1.0  0.48879  0.39270  0.43955  1.0000
  H   H2233     1.0  0.89002  0.27453  0.64397  1.0000
  H   H2234     1.0  0.80645  0.31058  0.61177  1.0000
  H   H2235     1.0  0.47761  0.27485  0.21482  1.0000
  H   H2236     1.0  0.50721  0.43088  0.46473  1.0000
  Fe  Fe189     1.0  0.72476  0.32590  0.23240  1.0000
  C   C1305     1.0  0.62827  0.36956  0.62034  1.0000
  S   S380      1.0  0.60269  0.41008  0.69155  1.0000
  C   C1306     1.0  0.69862  0.37958  0.24632  1.0000
  Fe  Fe190     1.0  0.95307  0.32963  0.31629  1.0000
  S   S381      1.0  0.49019  0.24116  0.48026  1.0000
  C   C1307     1.0  0.92071  0.36926  0.63272  1.0000
  C   C1308     1.0  0.61173  0.30012  0.25462  1.0000
  H   H2237     1.0  0.96352  0.26445  0.69066  1.0000
  S   S382      1.0  0.51116  0.25651  0.26060  1.0000
  C   C1309     1.0  0.56342  0.40333  0.39044  1.0000
  H   H2238     1.0  0.49652  0.44642  0.61556  1.0000
  C   C1310     1.0  0.81193  0.32811  0.26565  1.0000
  H   H2239     1.0  0.89650  0.32011  0.54332  1.0000
  C   C1311     1.0  0.87365  0.35253  0.36994  1.0000
  H   H2240     1.0  0.92384  0.28873  0.62817  1.0000
  S   S383      1.0  0.54839  0.45770  0.59018  1.0000
  H   H2241     1.0  0.64146  0.37318  0.38113  1.0000
  H   H2242     1.0  0.59231  0.33922  0.55609  1.0000
  H   H2243     1.0  0.81493  0.28674  0.24514  1.0000
  C   C1312     1.0  0.51628  0.44182  0.21985  1.0000
  H   H2244     1.0  0.68000  0.23640  0.69471  1.0000
  C   C1313     1.0  0.85764  0.40696  0.60563  1.0000
  C   C1314     1.0  0.87208  0.26249  0.30725  1.0000
  H   H2245     1.0  0.86817  0.23449  0.45452  1.0000
  C   C1315     1.0  0.73701  0.30534  0.54173  1.0000
  S   S384      1.0  0.95725  0.36461  0.25366  1.0000
  S   S385      1.0  0.69680  0.40598  0.58507  1.0000
  Fe  Fe191     1.0  0.96415  0.35413  0.41105  1.0000
  H   H2246     1.0  0.90182  0.29838  0.30763  1.0000
  H   H2247     1.0  0.56188  0.30466  0.37824  1.0000
  H   H2248     1.0  0.61022  0.39994  0.57922  1.0000
  H   H2249     1.0  0.81917  0.41424  0.62472  1.0000
  H   H2250     1.0  0.67388  0.39322  0.23152  1.0000
  H   H2251     1.0  0.51965  0.43373  0.26019  1.0000
  H   H2252     1.0  0.49137  0.22596  0.62360  1.0000
  H   H2253     1.0  0.71595  0.46130  0.20681  1.0000
  H   H2254     1.0  0.51603  0.39567  0.55439  1.0000
  C   C1316     1.0  0.71856  0.22868  0.27219  1.0000
  H   H2255     1.0  0.61962  0.32144  0.33566  1.0000
  C   C1317     1.0  0.85382  0.39101  0.66948  1.0000
  C   C1318     1.0  0.52172  0.31159  0.33322  1.0000
  C   C1319     1.0  0.68367  0.32511  0.47174  1.0000
  C   C1320     1.0  0.82146  0.31271  0.43356  1.0000
  C   C1321     1.0  0.58305  0.31874  0.35265  1.0000
  Fe  Fe192     1.0  0.59575  0.39358  0.24152  1.0000
  Fe  Fe193     1.0  0.57894  0.42494  0.66434  1.0000
  H   H2256     1.0  0.56756  0.26114  0.24808  1.0000
  H   H2257     1.0  0.59369  0.29603  0.40389  1.0000
  S   S386      1.0  0.62669  0.38886  0.26145  1.0000
  C   C1322     1.0  0.72925  0.31655  0.42347  1.0000
  H   H2258     1.0  0.87425  0.40875  0.57075  1.0000
  S   S387      1.0  0.56083  0.41222  0.59850  1.0000
  C   C1323     1.0  0.74453  0.24028  0.23389  1.0000
  C   C1324     1.0  0.64666  0.42931  0.50720  1.0000
  C   C1325     1.0  0.91093  0.31480  0.64188  1.0000
  C   C1326     1.0  0.52062  0.46840  0.21713  1.0000
  H   H2259     1.0  0.58882  0.33278  0.37627  1.0000
  H   H2260     1.0  0.88998  0.26707  0.44515  1.0000
  C   C1327     1.0  0.50866  0.39670  0.41766  1.0000
  H   H2261     1.0  0.77687  0.24186  0.30509  1.0000
  H   H2262     1.0  0.62344  0.39530  0.42722  1.0000
  H   H2263     1.0  0.57736  0.35724  0.63839  1.0000
  C   C1328     1.0  0.90189  0.22917  0.59242  1.0000
  S   S388      1.0  0.59158  0.29389  0.53681  1.0000
  H   H2264     1.0  0.55467  0.25799  0.38300  1.0000
  H   H2265     1.0  0.64576  0.29381  0.30547  1.0000
  H   H2266     1.0  0.64358  0.44402  0.52038  1.0000
  C   C1329     1.0  0.59872  0.30560  0.35423  1.0000
  C   C1330     1.0  0.54213  0.33442  0.28487  1.0000
  H   H2267     1.0  0.50340  0.42753  0.54229  1.0000
  C   C1331     1.0  0.56284  0.27932  0.52333  1.0000
  H   H2268     1.0  0.49486  0.31436  0.24822  1.0000
  H   H2269     1.0  0.71933  0.25298  0.51800  1.0000
  H   H2270     1.0  0.51833  0.36159  0.57663  1.0000
  C   C1332     1.0  0.54834  0.40858  0.44065  1.0000
  C   C1333     1.0  0.71679  0.45745  0.52417  1.0000
  C   C1334     1.0  0.70447  0.23579  0.55777  1.0000
  H   H2271     1.0  0.95163  0.24289  0.38960  1.0000
  C   C1335     1.0  0.47503  0.33745  0.30874  1.0000
  H   H2272     1.0  0.69489  0.37930  0.29287  1.0000
  H   H2273     1.0  0.56700  0.23757  0.30749  1.0000
  C   C1336     1.0  0.85413  0.35758  0.36952  1.0000
  H   H2274     1.0  0.52072  0.41758  0.38736  1.0000
  H   H2275     1.0  0.86075  0.44997  0.45047  1.0000
  H   H2276     1.0  0.81287  0.34158  0.40190  1.0000
  C   C1337     1.0  0.71027  0.43844  0.57882  1.0000
  C   C1338     1.0  0.61992  0.40395  0.52998  1.0000
  C   C1339     1.0  0.54297  0.30967  0.21929  1.0000
  H   H2277     1.0  0.74779  0.30764  0.57288  1.0000
  Fe  Fe194     1.0  0.52930  0.41658  0.65108  1.0000
  C   C1340     1.0  0.82796  0.33758  0.40116  1.0000
  H   H2278     1.0  0.88493  0.36128  0.56622  1.0000
  H   H2279     1.0  0.76129  0.36851  0.39300  1.0000
  H   H2280     1.0  0.61194  0.28608  0.23271  1.0000
  H   H2281     1.0  0.60826  0.40833  0.50652  1.0000
  H   H2282     1.0  0.80412  0.25023  0.44781  1.0000
  C   C1341     1.0  0.75191  0.22701  0.20117  1.0000
  H   H2283     1.0  0.73168  0.36120  0.38738  1.0000
  S   S389      1.0  0.90618  0.37763  0.33128  1.0000
  C   C1342     1.0  0.84042  0.33536  0.24478  1.0000
  Fe  Fe195     1.0  0.64591  0.43023  0.25366  1.0000
  H   H2284     1.0  0.75406  0.31009  0.35834  1.0000
  H   H2285     1.0  0.88925  0.45084  0.50520  1.0000
  C   C1343     1.0  0.63189  0.24046  0.21923  1.0000
  H   H2286     1.0  0.89204  0.35585  0.49584  1.0000
  H   H2287     1.0  0.73183  0.23010  0.58577  1.0000
  H   H2288     1.0  0.55763  0.31144  0.51578  1.0000
  H   H2289     1.0  0.73853  0.25323  0.41331  1.0000
  H   H2290     1.0  0.93744  0.23034  0.49654  1.0000
  H   H2291     1.0  0.88521  0.31433  0.22964  1.0000
  H   H2292     1.0  0.93160  0.43795  0.32662  1.0000
  H   H2293     1.0  0.75864  0.38769  0.46506  1.0000
  S   S390      1.0  0.56310  0.22683  0.65256  1.0000
  S   S391      1.0  0.72575  0.35672  0.26794  1.0000
  C   C1344     1.0  0.95202  0.44394  0.30219  1.0000
  C   C1345     1.0  0.56637  0.26955  0.33314  1.0000
  H   H2294     1.0  0.71271  0.23885  0.29737  1.0000
  H   H2295     1.0  0.81323  0.44675  0.65451  1.0000
  H   H2296     1.0  0.84122  0.29244  0.26740  1.0000
  C   C1346     1.0  0.48356  0.44988  0.64740  1.0000
  H   H2297     1.0  0.75880  0.23718  0.47248  1.0000
  H   H2298     1.0  0.66322  0.31416  0.50512  1.0000
  H   H2299     1.0  0.72375  0.36948  0.49905  1.0000
  C   C1347     1.0  0.48176  0.35932  0.68368  1.0000
  H   H2300     1.0  0.84301  0.32772  0.28713  1.0000
  C   C1348     1.0  0.56000  0.25068  0.29834  1.0000
  S   S392      1.0  0.64405  0.24088  0.27787  1.0000
  C   C1349     1.0  0.89037  0.33465  0.21482  1.0000
  S   S393      1.0  0.71143  0.28577  0.29145  1.0000
  H   H2301     1.0  0.83600  0.28846  0.45884  1.0000
  H   H2302     1.0  0.65951  0.42692  0.52911  1.0000
  C   C1350     1.0  0.80048  0.32098  0.63570  1.0000
  H   H2303     1.0  0.71255  0.45199  0.48639  1.0000
  H   H2304     1.0  0.71600  0.29225  0.57059  1.0000
  H   H2305     1.0  0.95529  0.30798  0.44297  1.0000
  C   C1351     1.0  0.89491  0.34258  0.66359  1.0000
  H   H2306     1.0  0.79792  0.30685  0.28576  1.0000
  N   N97       1.0  0.62021  0.38084  0.52087  1.0000
  H   H2307     1.0  0.63231  0.29421  0.38091  1.0000
  H   H2308     1.0  0.85123  0.30706  0.65836  1.0000
  H   H2309     1.0  0.92066  0.35016  0.54080  1.0000
  C   C1352     1.0  0.71616  0.44566  0.62720  1.0000
  H   H2310     1.0  0.95880  0.29078  0.66580  1.0000
  H   H2311     1.0  0.87358  0.43847  0.67459  1.0000
  H   H2312     1.0  0.65368  0.40370  0.43414  1.0000
  S   S394      1.0  0.47050  0.44604  0.38835  1.0000
  H   H2313     1.0  0.84910  0.37139  0.67079  1.0000
  C   C1353     1.0  0.55313  0.25476  0.51975  1.0000
  H   H2314     1.0  0.48803  0.35120  0.51627  1.0000
  H   H2315     1.0  0.65656  0.43746  0.45634  1.0000
  H   H2316     1.0  0.80820  0.33578  0.30214  1.0000
  Fe  Fe196     1.0  0.59216  0.22957  0.69393  1.0000
  H   H2317     1.0  0.63355  0.26697  0.37322  1.0000
  S   S395      1.0  0.62592  0.26565  0.61657  1.0000
  C   C1354     1.0  0.90833  0.45435  0.59294  1.0000
  Fe  Fe197     1.0  0.58164  0.45452  0.54369  1.0000
  H   H2318     1.0  0.74321  0.29607  0.51239  1.0000
  H   H2319     1.0  0.56454  0.41305  0.34475  1.0000
  H   H2320     1.0  0.92162  0.24137  0.30000  1.0000
  H   H2321     1.0  0.87533  0.46861  0.52412  1.0000
  C   C1355     1.0  0.52771  0.28068  0.50057  1.0000
  C   C1356     1.0  0.78517  0.34829  0.69631  1.0000
  Fe  Fe198     1.0  0.56676  0.46732  0.65758  1.0000
  C   C1357     1.0  0.51409  0.42598  0.50088  1.0000
  H   H2322     1.0  0.76685  0.34354  0.34494  1.0000
  C   C1358     1.0  0.89956  0.33489  0.56484  1.0000
  H   H2323     1.0  0.95169  0.42686  0.29513  1.0000
  C   C1359     1.0  0.71468  0.37127  0.22150  1.0000
  H   H2324     1.0  0.87174  0.39990  0.67923  1.0000
  C   C1360     1.0  0.53110  0.24335  0.50546  1.0000
  H   H2325     1.0  0.59197  0.22049  0.28142  1.0000
  C   C1361     1.0  0.86481  0.30050  0.66170  1.0000
  H   H2326     1.0  0.84896  0.41778  0.49847  1.0000
  S   S396      1.0  0.61308  0.43386  0.24261  1.0000
  H   H2327     1.0  0.96489  0.27432  0.43893  1.0000
  C   C1362     1.0  0.52306  0.28674  0.26845  1.0000
  H   H2328     1.0  0.76518  0.34395  0.47496  1.0000
  C   C1363     1.0  0.90533  0.24258  0.46233  1.0000
  H   H2329     1.0  0.58344  0.41091  0.38950  1.0000
  Fe  Fe199     1.0  0.74281  0.28975  0.21332  1.0000
  S   S397      1.0  0.75890  0.25882  0.64630  1.0000
  C   C1364     1.0  0.88044  0.44803  0.62390  1.0000
  H   H2330     1.0  0.58488  0.35759  0.50664  1.0000
  H   H2331     1.0  0.91436  0.24740  0.41236  1.0000
  C   C1365     1.0  0.70055  0.32041  0.50393  1.0000
  Fe  Fe200     1.0  0.79889  0.22716  0.63464  1.0000
  C   C1366     1.0  0.93811  0.22168  0.41522  1.0000
  H   H2332     1.0  0.73204  0.31509  0.67521  1.0000
  C   C1367     1.0  0.73565  0.23391  0.41768  1.0000
  H   H2333     1.0  0.93781  0.36762  0.62891  1.0000
  H   H2334     1.0  0.85926  0.37697  0.34528  1.0000
  H   H2335     1.0  0.82963  0.41972  0.68483  1.0000
  S   S398      1.0  0.67035  0.24570  0.52571  1.0000
  H   H2336     1.0  0.83281  0.43418  0.52037  1.0000
  S   S399      1.0  0.47158  0.28868  0.53169  1.0000
  H   H2337     1.0  0.56670  0.36964  0.58423  1.0000
  H   H2338     1.0  0.54263  0.36437  0.51223  1.0000
  N   N98       1.0  0.89255  0.32322  0.63294  1.0000
  C   C1368     1.0  0.85196  0.43667  0.49914  1.0000
  H   H2339     1.0  0.92320  0.38027  0.58670  1.0000
  H   H2340     1.0  0.86176  0.28701  0.63634  1.0000
  H   H2341     1.0  0.96235  0.44960  0.33321  1.0000
  H   H2342     1.0  0.55362  0.33574  0.61517  1.0000
  S   S400      1.0  0.78314  0.37543  0.59401  1.0000
  H   H2343     1.0  0.80073  0.34400  0.55512  1.0000
  N   N99       1.0  0.59475  0.28641  0.32212  1.0000
  S   S401      1.0  0.48713  0.39008  0.67393  1.0000
  Fe  Fe201     1.0  0.70966  0.38920  0.65161  1.0000
  H   H2344     1.0  0.90320  0.24774  0.57421  1.0000
  H   H2345     1.0  0.50833  0.46560  0.26305  1.0000
  C   C1369     1.0  0.63285  0.38781  0.45256  1.0000
  H   H2346     1.0  0.51834  0.29104  0.49173  1.0000
  Fe  Fe202     1.0  0.78721  0.26388  0.56089  1.0000
  C   C1370     1.0  0.51244  0.28782  0.32514  1.0000
  C   C1371     1.0  0.49475  0.45783  0.69563  1.0000
  C   C1372     1.0  0.74388  0.33224  0.50295  1.0000
  C   C1373     1.0  0.51828  0.25622  0.49603  1.0000
  H   H2347     1.0  0.88192  0.32342  0.40089  1.0000
  C   C1374     1.0  0.74055  0.35992  0.42198  1.0000
  C   C1375     1.0  0.78899  0.35320  0.63411  1.0000
  H   H2348     1.0  0.51218  0.33450  0.55454  1.0000
  H   H2349     1.0  0.53498  0.44045  0.48693  1.0000
  C   C1376     1.0  0.55280  0.33351  0.22776  1.0000
  C   C1377     1.0  0.74070  0.37873  0.45524  1.0000
  H   H2350     1.0  0.86322  0.33105  0.56028  1.0000
  C   C1378     1.0  0.83505  0.42858  0.63467  1.0000
  H   H2351     1.0  0.49005  0.36044  0.40116  1.0000
  H   H2352     1.0  0.65702  0.38993  0.52802  1.0000
  H   H2353     1.0  0.49700  0.27017  0.36306  1.0000
  C   C1379     1.0  0.87055  0.44845  0.53146  1.0000
  N   N100      1.0  0.86097  0.43303  0.59877  1.0000
  C   C1380     1.0  0.59269  0.35763  0.54376  1.0000
  C   C1381     1.0  0.55015  0.29236  0.51363  1.0000
  C   C1382     1.0  0.60273  0.26872  0.35032  1.0000
  S   S402      1.0  0.77139  0.22166  0.58628  1.0000
  H   H2354     1.0  0.63038  0.38686  0.63030  1.0000
  H   H2355     1.0  0.69064  0.29901  0.52587  1.0000
  H   H2356     1.0  0.74127  0.34196  0.53579  1.0000
  H   H2357     1.0  0.69890  0.32704  0.54346  1.0000
  C   C1383     1.0  0.88388  0.34636  0.54680  1.0000
  H   H2358     1.0  0.84046  0.39455  0.59607  1.0000
  H   H2359     1.0  0.89124  0.22139  0.64308  1.0000
  C   C1384     1.0  0.91452  0.27184  0.30354  1.0000
  C   C1385     1.0  0.57173  0.35512  0.59875  1.0000
  H   H2360     1.0  0.90894  0.43918  0.57696  1.0000
  H   H2361     1.0  0.60844  0.35254  0.64699  1.0000
  C   C1386     1.0  0.88236  0.24657  0.47205  1.0000
  S   S403      1.0  0.96871  0.39079  0.35718  1.0000
  C   C1387     1.0  0.48026  0.31025  0.22666  1.0000
  H   H2362     1.0  0.77645  0.25113  0.39185  1.0000
  S   S404      1.0  0.71123  0.35354  0.65956  1.0000
  H   H2363     1.0  0.83626  0.26327  0.21371  1.0000
  H   H2364     1.0  0.91772  0.45575  0.62693  1.0000
  H   H2365     1.0  0.84683  0.46742  0.63869  1.0000
  H   H2366     1.0  0.48263  0.46560  0.61887  1.0000
  S   S405      1.0  0.60169  0.46725  0.60663  1.0000
  H   H2367     1.0  0.61757  0.33811  0.21185  1.0000
  H   H2368     1.0  0.90817  0.30851  0.69113  1.0000
  H   H2369     1.0  0.55824  0.29886  0.67895  1.0000
  H   H2370     1.0  0.72310  0.27356  0.69034  1.0000
  C   C1388     1.0  0.96426  0.46665  0.24077  1.0000
  H   H2371     1.0  0.94925  0.46204  0.22093  1.0000
  H   H2372     1.0  0.82399  0.23787  0.42463  1.0000
  C   C1389     1.0  0.47384  0.31055  0.69420  1.0000
  H   H2373     1.0  0.55949  0.27021  0.68790  1.0000
  H   H2374     1.0  0.95174  0.41419  0.19816  1.0000
  H   H2375     1.0  0.79838  0.23075  0.31187  1.0000
  C   C1390     1.0  0.77867  0.22479  0.31396  1.0000
  H   H2376     1.0  0.47071  0.35107  0.32422  1.0000
  H   H2377     1.0  0.57508  0.22292  0.19830  1.0000
  C   C1391     1.0  0.52412  0.71357  0.82980  1.0000
  H   H2378     1.0  0.91008  0.57860  0.75935  1.0000
  C   C1392     1.0  0.52065  0.61947  0.86245  1.0000
  S   S406      1.0  0.65547  0.48995  0.81094  1.0000
  H   H2379     1.0  0.61963  0.53387  0.17299  1.0000
  C   C1393     1.0  0.96818  0.59821  0.82146  1.0000
  H   H2380     1.0  0.57838  0.70774  0.18854  1.0000
  H   H2381     1.0  0.91024  0.61334  0.10323  1.0000
  H   H2382     1.0  0.76651  0.57633  0.83607  1.0000
  C   C1394     1.0  0.84531  0.57926  0.76830  1.0000
  C   C1395     1.0  0.72329  0.70278  0.71241  1.0000
  C   C1396     1.0  0.87785  0.55306  0.15128  1.0000
  H   H2383     1.0  0.70840  0.71183  0.09307  1.0000
  C   C1397     1.0  0.75973  0.52020  0.02779  1.0000
  C   C1398     1.0  0.47032  0.53965  0.70733  1.0000
  H   H2384     1.0  0.79633  0.52328  0.73213  1.0000
  C   C1399     1.0  0.53545  0.58944  0.00814  1.0000
  H   H2385     1.0  0.72191  0.53784  0.15315  1.0000
  C   C1400     1.0  0.53444  0.48885  0.10418  1.0000
  H   H2386     1.0  0.54826  0.54428  0.17311  1.0000
  C   C1401     1.0  0.89452  0.64801  0.09069  1.0000
  H   H2387     1.0  0.52077  0.66262  0.92488  1.0000
  Fe  Fe203     1.0  0.75092  0.53582  0.76025  1.0000
  H   H2388     1.0  0.79262  0.70080  0.90104  1.0000
  H   H2389     1.0  0.63670  0.57803  0.79448  1.0000
  H   H2390     1.0  0.75593  0.55010  0.12655  1.0000
  S   S407      1.0  0.94878  0.52574  0.90363  1.0000
  S   S408      1.0  0.63207  0.47614  0.07592  1.0000
  C   C1402     1.0  0.85436  0.57175  0.72159  1.0000
  H   H2391     1.0  0.86984  0.64881  0.94977  1.0000
  H   H2392     1.0  0.69430  0.49401  0.85933  1.0000
  H   H2393     1.0  0.93000  0.56412  0.85888  1.0000
  H   H2394     1.0  0.68609  0.57462  0.70828  1.0000
  H   H2395     1.0  0.62105  0.50507  0.72869  1.0000
  H   H2396     1.0  0.88645  0.67652  0.96901  1.0000
  Fe  Fe204     1.0  0.72591  0.61963  0.90865  1.0000
  C   C1403     1.0  0.51439  0.67463  0.90488  1.0000
  H   H2397     1.0  0.69329  0.58594  0.17885  1.0000
  H   H2398     1.0  0.89987  0.71286  0.17516  1.0000
  C   C1404     1.0  0.83677  0.55123  0.70945  1.0000
  Fe  Fe205     1.0  0.75359  0.67849  0.84602  1.0000
  C   C1405     1.0  0.65542  0.58586  0.14647  1.0000
  C   C1406     1.0  0.77210  0.51757  0.17828  1.0000
  C   C1407     1.0  0.79800  0.61660  0.80035  1.0000
  H   H2399     1.0  0.48476  0.47616  0.13470  1.0000
  H   H2400     1.0  0.78587  0.53052  0.93564  1.0000
  C   C1408     1.0  0.73094  0.51022  0.12997  1.0000
  H   H2401     1.0  0.64716  0.69991  0.04991  1.0000
  H   H2402     1.0  0.91690  0.47938  0.87307  1.0000
  C   C1409     1.0  0.74246  0.47907  0.10839  1.0000
  H   H2403     1.0  0.78584  0.68200  0.71948  1.0000
  S   S409      1.0  0.61205  0.70548  0.90398  1.0000
  C   C1410     1.0  0.51957  0.50681  0.17526  1.0000
  H   H2404     1.0  0.77557  0.53590  0.18437  1.0000
  H   H2405     1.0  0.89264  0.60508  0.94199  1.0000
  H   H2406     1.0  0.68733  0.70140  0.90711  1.0000
  H   H2407     1.0  0.57132  0.66505  0.85027  1.0000
  S   S410      1.0  0.66627  0.64128  0.83693  1.0000
  C   C1411     1.0  0.54811  0.52905  0.15573  1.0000
  C   C1412     1.0  0.55082  0.61050  0.73793  1.0000
  H   H2408     1.0  0.85884  0.59535  0.77727  1.0000
  H   H2409     1.0  0.56570  0.63345  0.87195  1.0000
  Fe  Fe206     1.0  0.47281  0.48728  0.00231  1.0000
  H   H2410     1.0  0.96581  0.61659  0.70071  1.0000
  S   S411      1.0  0.89920  0.54434  0.16845  1.0000
  C   C1413     1.0  0.80216  0.67906  0.71665  1.0000
  C   C1414     1.0  0.92808  0.68735  0.00093  1.0000
  H   H2411     1.0  0.75797  0.47655  0.08311  1.0000
  C   C1415     1.0  0.65840  0.52710  0.00273  1.0000
  N   N101      1.0  0.91305  0.65810  0.02535  1.0000
  C   C1416     1.0  0.82254  0.47318  0.76659  1.0000
  H   H2412     1.0  0.61693  0.62109  0.82588  1.0000
  H   H2413     1.0  0.51086  0.51484  0.14865  1.0000
  H   H2414     1.0  0.69082  0.56078  0.08072  1.0000
  C   C1417     1.0  0.53384  0.62354  0.06588  1.0000
  H   H2415     1.0  0.74219  0.51221  0.01590  1.0000
  H   H2416     1.0  0.77991  0.70448  0.13329  1.0000
  N   N102      1.0  0.92627  0.59616  0.81908  1.0000
  C   C1418     1.0  0.53964  0.64185  0.80004  1.0000
  H   H2417     1.0  0.83690  0.49325  0.75595  1.0000
  C   C1419     1.0  0.64211  0.51662  0.17720  1.0000
  H   H2418     1.0  0.82757  0.61032  0.70804  1.0000
  C   C1420     1.0  0.69003  0.49057  0.90851  1.0000
  C   C1421     1.0  0.62250  0.53065  0.80776  1.0000
  H   H2419     1.0  0.71820  0.47102  0.87209  1.0000
  C   C1422     1.0  0.92068  0.62050  0.05278  1.0000
  H   H2420     1.0  0.57812  0.57680  0.86737  1.0000
  H   H2421     1.0  0.52285  0.60266  0.86727  1.0000
  H   H2422     1.0  0.73971  0.69483  0.11449  1.0000
  H   H2423     1.0  0.96666  0.50799  0.81141  1.0000
  H   H2424     1.0  0.49484  0.60805  0.06849  1.0000
  N   N103      1.0  0.65482  0.56213  0.17932  1.0000
  H   H2425     1.0  0.88130  0.65522  0.09257  1.0000
  C   C1423     1.0  0.83383  0.66169  0.75940  1.0000
  C   C1424     1.0  0.81865  0.56581  0.80374  1.0000
  H   H2426     1.0  0.78698  0.51475  0.18999  1.0000
  H   H2427     1.0  0.71933  0.68519  0.74739  1.0000
  Fe  Fe207     1.0  0.49476  0.54513  0.97092  1.0000
  H   H2428     1.0  0.55670  0.59755  0.72357  1.0000
  H   H2429     1.0  0.73971  0.54818  0.07322  1.0000
  H   H2430     1.0  0.94411  0.65512  0.97281  1.0000
  C   C1425     1.0  0.66963  0.55925  0.75180  1.0000
  H   H2431     1.0  0.93434  0.60934  0.89253  1.0000
  H   H2432     1.0  0.55381  0.49378  0.10508  1.0000
  C   C1426     1.0  0.89954  0.60776  0.89267  1.0000
  C   C1427     1.0  0.94296  0.62346  0.77242  1.0000
  H   H2433     1.0  0.68642  0.49584  0.05327  1.0000
  C   C1428     1.0  0.47648  0.66015  0.15035  1.0000
  H   H2434     1.0  0.68300  0.55308  0.19427  1.0000
  C   C1429     1.0  0.68477  0.51145  0.03025  1.0000
  H   H2435     1.0  0.73807  0.63270  0.06114  1.0000
  C   C1430     1.0  0.70516  0.55640  0.96465  1.0000
  H   H2436     1.0  0.94394  0.57725  0.77776  1.0000
  C   C1431     1.0  0.49812  0.70597  0.85424  1.0000
  S   S412      1.0  0.56758  0.52796  0.94324  1.0000
  H   H2437     1.0  0.58068  0.50363  0.85463  1.0000
  S   S413      1.0  0.83146  0.63137  0.18489  1.0000
  C   C1432     1.0  0.88211  0.55369  0.85057  1.0000
  S   S414      1.0  0.52715  0.55661  0.88441  1.0000
  H   H2438     1.0  0.88574  0.62584  0.00823  1.0000
  H   H2439     1.0  0.94269  0.69508  0.02185  1.0000
  H   H2440     1.0  0.65849  0.61738  0.70259  1.0000
  C   C1433     1.0  0.82825  0.66598  0.82106  1.0000
  H   H2441     1.0  0.81160  0.57139  0.84025  1.0000
  C   C1434     1.0  0.85858  0.56227  0.08053  1.0000
  H   H2442     1.0  0.48348  0.49376  0.70402  1.0000
  H   H2443     1.0  0.77963  0.64614  0.80239  1.0000
  C   C1435     1.0  0.59474  0.58018  0.87839  1.0000
  H   H2444     1.0  0.69674  0.57933  0.79266  1.0000
  H   H2445     1.0  0.77610  0.63875  0.73737  1.0000
  H   H2446     1.0  0.95908  0.63580  0.78527  1.0000
  C   C1436     1.0  0.47687  0.54105  0.75884  1.0000
  C   C1437     1.0  0.70717  0.53608  0.99469  1.0000
  H   H2447     1.0  0.66477  0.66113  0.99440  1.0000
  S   S415      1.0  0.93376  0.56788  0.98849  1.0000
  H   H2448     1.0  0.60501  0.67924  0.71013  1.0000
  H   H2449     1.0  0.90776  0.60882  0.03243  1.0000
  C   C1438     1.0  0.68075  0.55189  0.96856  1.0000
  H   H2450     1.0  0.55058  0.62222  0.69714  1.0000
  H   H2451     1.0  0.53627  0.57648  0.98528  1.0000
  H   H2452     1.0  0.64784  0.54828  0.10559  1.0000
  H   H2453     1.0  0.88150  0.62652  0.10883  1.0000
  Fe  Fe208     1.0  0.71499  0.65084  0.98023  1.0000
  Fe  Fe209     1.0  0.93288  0.55586  0.08362  1.0000
  H   H2454     1.0  0.82977  0.65268  0.85617  1.0000
  H   H2455     1.0  0.84804  0.65561  0.75702  1.0000
  H   H2456     1.0  0.79811  0.52440  0.99274  1.0000
  H   H2457     1.0  0.91845  0.64694  0.14399  1.0000
  C   C1439     1.0  0.55719  0.60574  0.01895  1.0000
  H   H2458     1.0  0.50029  0.61276  0.86743  1.0000
  C   C1440     1.0  0.78015  0.51788  0.98319  1.0000
  C   C1441     1.0  0.65404  0.67050  0.98440  1.0000
  C   C1442     1.0  0.60546  0.66350  0.81683  1.0000
  H   H2459     1.0  0.71868  0.58086  0.09452  1.0000
  H   H2460     1.0  0.49037  0.68348  0.02793  1.0000
  H   H2461     1.0  0.61671  0.68490  0.79341  1.0000
  C   C1443     1.0  0.86527  0.56068  0.19186  1.0000
  C   C1444     1.0  0.55651  0.62312  0.04684  1.0000
  C   C1445     1.0  0.70166  0.70759  0.73868  1.0000
  S   S416      1.0  0.50162  0.51753  0.02652  1.0000
  S   S417      1.0  0.76774  0.53075  0.83050  1.0000
  C   C1446     1.0  0.94116  0.58279  0.81893  1.0000
  H   H2462     1.0  0.88241  0.54618  0.06639  1.0000
  C   C1447     1.0  0.87774  0.65532  0.98398  1.0000
  C   C1448     1.0  0.81002  0.53867  0.74274  1.0000
  C   C1449     1.0  0.79196  0.71784  0.89932  1.0000
  H   H2463     1.0  0.62333  0.57329  0.73857  1.0000
  C   C1450     1.0  0.51312  0.59060  0.02519  1.0000
  C   C1451     1.0  0.89746  0.64736  0.98813  1.0000
  C   C1452     1.0  0.51219  0.60738  0.05476  1.0000
  C   C1453     1.0  0.64070  0.57623  0.74879  1.0000
  H   H2464     1.0  0.89125  0.64842  0.18213  1.0000
  C   C1454     1.0  0.48773  0.71172  0.16566  1.0000
  C   C1455     1.0  0.77554  0.59385  0.79433  1.0000
  H   H2465     1.0  0.61329  0.65523  0.78740  1.0000
  C   C1456     1.0  0.93223  0.64970  0.02161  1.0000
  H   H2466     1.0  0.72612  0.53956  0.99035  1.0000
  H   H2467     1.0  0.93680  0.61698  0.04563  1.0000
  H   H2468     1.0  0.50018  0.65227  0.08435  1.0000
  Fe  Fe210     1.0  0.53144  0.52606  0.93871  1.0000
  C   C1457     1.0  0.76938  0.65350  0.08853  1.0000
  H   H2469     1.0  0.66875  0.60305  0.15497  1.0000
  C   C1458     1.0  0.57617  0.65210  0.83209  1.0000
  Fe  Fe211     1.0  0.69580  0.64299  0.87599  1.0000
  H   H2470     1.0  0.69987  0.70715  0.78609  1.0000
  N   N104      1.0  0.68572  0.71640  0.98126  1.0000
  H   H2471     1.0  0.67917  0.68626  0.05900  1.0000
  Fe  Fe212     1.0  0.57953  0.71101  0.90103  1.0000
  C   C1459     1.0  0.53234  0.69805  0.85501  1.0000
  C   C1460     1.0  0.59447  0.52062  0.81120  1.0000
  H   H2472     1.0  0.86712  0.54438  0.83171  1.0000
  H   H2473     1.0  0.89400  0.59207  0.79393  1.0000
  Fe  Fe213     1.0  0.49697  0.52438  0.86753  1.0000
  C   C1461     1.0  0.58433  0.67350  0.72550  1.0000
  H   H2474     1.0  0.53110  0.63703  0.76561  1.0000
  H   H2475     1.0  0.64352  0.66119  0.95660  1.0000
  C   C1462     1.0  0.48004  0.68265  0.90380  1.0000
  H   H2476     1.0  0.71382  0.50059  0.11746  1.0000
  H   H2477     1.0  0.88989  0.54113  0.85934  1.0000
  H   H2478     1.0  0.78234  0.58919  0.75434  1.0000
  C   C1463     1.0  0.66538  0.71903  0.02203  1.0000
  H   H2479     1.0  0.96419  0.49180  0.13106  1.0000
  Fe  Fe214     1.0  0.58830  0.68380  0.00497  1.0000
  H   H2480     1.0  0.49229  0.71848  0.83487  1.0000
  C   C1464     1.0  0.62894  0.58360  0.16155  1.0000
  S   S418      1.0  0.48667  0.57177  0.00778  1.0000
  H   H2481     1.0  0.55951  0.52265  0.17482  1.0000
  S   S419      1.0  0.72207  0.54735  0.78316  1.0000
  S   S420      1.0  0.50024  0.53415  0.76868  1.0000
  H   H2482     1.0  0.91051  0.65262  0.94050  1.0000
  S   S421      1.0  0.55438  0.68674  0.00011  1.0000
  H   H2483     1.0  0.61496  0.56767  0.15103  1.0000
  H   H2484     1.0  0.72333  0.50015  0.18021  1.0000
  H   H2485     1.0  0.70852  0.49873  0.91596  1.0000
  H   H2486     1.0  0.85335  0.68716  0.15762  1.0000
  H   H2487     1.0  0.55822  0.53848  0.10490  1.0000
  C   C1465     1.0  0.59460  0.55956  0.91498  1.0000
  C   C1466     1.0  0.94337  0.70099  0.93067  1.0000
  H   H2488     1.0  0.95633  0.69443  0.91278  1.0000
  H   H2489     1.0  0.73369  0.71924  0.02552  1.0000
  H   H2490     1.0  0.90692  0.57749  0.91816  1.0000
  H   H2491     1.0  0.52344  0.62602  0.90120  1.0000
  H   H2492     1.0  0.87200  0.55409  0.89461  1.0000
  H   H2493     1.0  0.93039  0.69849  0.90505  1.0000
  H   H2494     1.0  0.62335  0.53549  0.84957  1.0000
  H   H2495     1.0  0.50763  0.70540  0.05956  1.0000
  Fe  Fe215     1.0  0.95501  0.54806  0.96682  1.0000
  H   H2496     1.0  0.79157  0.47993  0.76891  1.0000
  C   C1467     1.0  0.48002  0.64219  0.11857  1.0000
  C   C1468     1.0  0.66385  0.60276  0.70151  1.0000
  H   H2497     1.0  0.87463  0.71072  0.08135  1.0000
  H   H2498     1.0  0.56749  0.61273  0.80586  1.0000
  H   H2499     1.0  0.49789  0.70352  0.18505  1.0000
  H   H2500     1.0  0.70176  0.59429  0.06757  1.0000
  S   S422      1.0  0.70822  0.65632  0.07101  1.0000
  N   N105      1.0  0.51555  0.48197  0.16722  1.0000
  H   H2501     1.0  0.93155  0.63280  0.77146  1.0000
  C   C1469     1.0  0.67543  0.56613  0.80684  1.0000
  H   H2502     1.0  0.72657  0.47056  0.09128  1.0000
  H   H2503     1.0  0.78994  0.61724  0.84618  1.0000
  C   C1470     1.0  0.90697  0.65573  0.13695  1.0000
  Fe  Fe216     1.0  0.69795  0.51619  0.75365  1.0000
  H   H2504     1.0  0.78928  0.51298  0.09580  1.0000
  C   C1471     1.0  0.64069  0.54091  0.15680  1.0000
  N   N106      1.0  0.81056  0.64252  0.75030  1.0000
  C   C1472     1.0  0.73790  0.53828  0.11957  1.0000
  H   H2505     1.0  0.58994  0.63507  0.73127  1.0000
  H   H2506     1.0  0.53308  0.63647  0.08894  1.0000
  H   H2507     1.0  0.76000  0.59743  0.79160  1.0000
  C   C1473     1.0  0.77643  0.52022  0.11040  1.0000
  C   C1474     1.0  0.48821  0.69457  0.05732  1.0000
  C   C1475     1.0  0.73594  0.66282  0.08730  1.0000
  H   H2508     1.0  0.86924  0.71493  0.86172  1.0000
  C   C1476     1.0  0.77056  0.68856  0.11845  1.0000
  C   C1477     1.0  0.79101  0.65044  0.75396  1.0000
  C   C1478     1.0  0.63872  0.60985  0.86758  1.0000
  C   C1479     1.0  0.56989  0.62693  0.76448  1.0000
  S   S423      1.0  0.72566  0.50290  0.73651  1.0000
  C   C1480     1.0  0.78108  0.67341  0.10982  1.0000
  H   H2509     1.0  0.65592  0.59224  0.91115  1.0000
  H   H2510     1.0  0.67127  0.54220  0.75359  1.0000
  H   H2511     1.0  0.62535  0.51413  0.81399  1.0000
  Fe  Fe217     1.0  0.80081  0.63880  0.17303  1.0000
  H   H2512     1.0  0.59098  0.51404  0.77312  1.0000
  H   H2513     1.0  0.63957  0.52358  0.00495  1.0000
  C   C1481     1.0  0.69901  0.57658  0.09821  1.0000
  H   H2514     1.0  0.70471  0.69533  0.99084  1.0000
  H   H2515     1.0  0.86084  0.64551  0.02844  1.0000
  H   H2516     1.0  0.58936  0.53538  0.81206  1.0000
  H   H2517     1.0  0.81256  0.61145  0.80365  1.0000
  H   H2518     1.0  0.66192  0.52057  0.15574  1.0000
  C   C1482     1.0  0.69568  0.70342  0.01832  1.0000
  C   C1483     1.0  0.87392  0.70066  0.12624  1.0000
  H   H2519     1.0  0.85589  0.56268  0.03762  1.0000
  H   H2520     1.0  0.57480  0.60556  0.00366  1.0000
  H   H2521     1.0  0.62915  0.50172  0.16241  1.0000
  H   H2522     1.0  0.84505  0.68076  0.72126  1.0000
  H   H2523     1.0  0.84255  0.68635  0.81353  1.0000
  H   H2524     1.0  0.67912  0.56734  0.94439  1.0000
  C   C1484     1.0  0.63873  0.58914  0.90336  1.0000
  H   H2525     1.0  0.66361  0.59120  0.09590  1.0000
  C   C1485     1.0  0.95471  0.62609  0.70533  1.0000
  H   H2526     1.0  0.58396  0.68941  0.73889  1.0000
  H   H2527     1.0  0.68230  0.69237  0.74297  1.0000
  C   C1486     1.0  0.74770  0.68299  0.10816  1.0000
  H   H2528     1.0  0.50666  0.48700  0.76531  1.0000
  N   N107      1.0  0.64367  0.55348  0.75051  1.0000
  H   H2529     1.0  0.88189  0.59724  0.88306  1.0000
  H   H2530     1.0  0.61685  0.54802  0.95447  1.0000
  C   C1487     1.0  0.61680  0.60529  0.85461  1.0000
  H   H2531     1.0  0.91014  0.62880  0.86569  1.0000
  H   H2532     1.0  0.77208  0.49794  0.98291  1.0000
  H   H2533     1.0  0.53805  0.50661  0.07097  1.0000
  N   N108      1.0  0.75250  0.50741  0.09571  1.0000
  H   H2534     1.0  0.91519  0.69467  0.01435  1.0000
  S   S424      1.0  0.73329  0.58745  0.92453  1.0000
  S   S425      1.0  0.58484  0.64674  0.05036  1.0000
  S   S426      1.0  0.80795  0.67825  0.12860  1.0000
  S   S427      1.0  0.90691  0.53771  0.72524  1.0000
  S   S428      1.0  0.78139  0.60427  0.14708  1.0000
  C   C1488     1.0  0.48359  0.71444  0.02137  1.0000
  S   S429      1.0  0.71847  0.67798  0.89677  1.0000
  H   H2535     1.0  0.89031  0.48635  0.83401  1.0000
  C   C1489     1.0  0.74690  0.64819  0.07743  1.0000
  S   S430      1.0  0.68913  0.61554  0.96445  1.0000
  H   H2536     1.0  0.47597  0.62470  0.15387  1.0000
  S   S431      1.0  0.95109  0.53305  0.06427  1.0000
  C   C1490     1.0  0.85002  0.56984  0.17589  1.0000
  H   H2537     1.0  0.94628  0.65989  0.04188  1.0000
  C   C1491     1.0  0.61668  0.56401  0.92715  1.0000
  H   H2538     1.0  0.78853  0.71260  0.99259  1.0000
  S   S432      1.0  0.73114  0.64514  0.81883  1.0000
  C   C1492     1.0  0.66037  0.50693  0.03399  1.0000
  C   C1493     1.0  0.90339  0.58111  0.80311  1.0000
  H   H2539     1.0  0.49568  0.67267  0.15226  1.0000
  H   H2540     1.0  0.68119  0.50173  0.92034  1.0000
  C   C1494     1.0  0.67280  0.69991  0.94705  1.0000
  H   H2541     1.0  0.63917  0.66595  0.02815  1.0000
  S   S433      1.0  0.56526  0.70876  0.82447  1.0000
  H   H2542     1.0  0.66835  0.54838  0.84618  1.0000
  H   H2543     1.0  0.91906  0.67703  0.12362  1.0000
  H   H2544     1.0  0.60873  0.65932  0.86020  1.0000
  H   H2545     1.0  0.81451  0.69242  0.73552  1.0000
  H   H2546     1.0  0.76779  0.54135  0.01496  1.0000
  H   H2547     1.0  0.53911  0.65912  0.80382  1.0000
  C   C1495     1.0  0.80103  0.54577  0.79033  1.0000
  Fe  Fe218     1.0  0.81022  0.59524  0.16591  1.0000
  C   C1496     1.0  0.87390  0.55326  0.09636  1.0000
  H   H2548     1.0  0.66688  0.57682  0.82285  1.0000
  S   S434      1.0  0.50327  0.49421  0.91671  1.0000
  H   H2549     1.0  0.63200  0.60187  0.13232  1.0000
  S   S435      1.0  0.83004  0.58446  0.09595  1.0000
  H   H2550     1.0  0.78823  0.54143  0.08312  1.0000
  C   C1497     1.0  0.48807  0.66672  0.92884  1.0000
  H   H2551     1.0  0.80894  0.66333  0.84017  1.0000
  H   H2552     1.0  0.53069  0.59762  0.77299  1.0000
  S   S436      1.0  0.75136  0.65308  0.93061  1.0000
  C   C1498     1.0  0.84706  0.57106  0.11968  1.0000
  H   H2553     1.0  0.77803  0.64257  0.07882  1.0000
  C   C1499     1.0  0.91741  0.59710  0.88204  1.0000
  C   C1500     1.0  0.68245  0.56912  0.16594  1.0000
  N   N109      1.0  0.56724  0.64817  0.77981  1.0000
  H   H2554     1.0  0.54358  0.47407  0.03323  1.0000
  H   H2555     1.0  0.96736  0.60442  0.86124  1.0000
  H   H2556     1.0  0.88209  0.68854  0.11990  1.0000
  H   H2557     1.0  0.91784  0.47436  0.77760  1.0000
  H   H2558     1.0  0.84253  0.71245  0.91698  1.0000
  H   H2559     1.0  0.66188  0.70698  0.92692  1.0000
  H   H2560     1.0  0.47418  0.64866  0.96734  1.0000
  S   S437      1.0  0.60627  0.71853  0.03059  1.0000
  H   H2561     1.0  0.68134  0.60911  0.71322  1.0000
  H   H2562     1.0  0.74126  0.71929  0.71114  1.0000
  C   C1501     1.0  0.96878  0.51306  0.89640  1.0000
  S   S438      1.0  0.78738  0.71925  0.78953  1.0000
  H   H2563     1.0  0.67366  0.71929  0.10594  1.0000
  H   H2564     1.0  0.87167  0.47844  0.91144  1.0000
  H   H2565     1.0  0.51229  0.46987  0.05273  1.0000
  C   C1502     1.0  0.87889  0.47041  0.87982  1.0000
  H   H2566     1.0  0.73452  0.52594  0.29728  1.0000
  H   H2567     1.0  0.55895  0.59660  0.57418  1.0000
  H   H2568     1.0  0.73404  0.47712  0.65770  1.0000
  H   H2569     1.0  0.60788  0.58581  0.41309  1.0000
  Fe  Fe219     1.0  0.75716  0.58217  0.24749  1.0000
  H   H2570     1.0  0.50814  0.66928  0.46644  1.0000
  C   C1503     1.0  0.77692  0.66040  0.57469  1.0000
  C   C1504     1.0  0.67190  0.49524  0.58464  1.0000
  H   H2571     1.0  0.93075  0.49335  0.34581  1.0000
  H   H2572     1.0  0.83743  0.57246  0.42695  1.0000
  C   C1505     1.0  0.85228  0.70565  0.24810  1.0000
  H   H2573     1.0  0.54764  0.51674  0.59106  1.0000
  H   H2574     1.0  0.78222  0.69694  0.24541  1.0000
  S   S439      1.0  0.88766  0.58833  0.67806  1.0000
  H   H2575     1.0  0.72372  0.52975  0.50086  1.0000
  H   H2576     1.0  0.58327  0.66266  0.64449  1.0000
  H   H2577     1.0  0.96747  0.53848  0.21729  1.0000
  H   H2578     1.0  0.96740  0.58975  0.38045  1.0000
  H   H2579     1.0  0.78831  0.51967  0.45384  1.0000
  H   H2580     1.0  0.55773  0.66855  0.67570  1.0000
  H   H2581     1.0  0.87392  0.69508  0.29668  1.0000
  H   H2582     1.0  0.47585  0.62733  0.46143  1.0000
  C   C1506     1.0  0.55150  0.51971  0.54188  1.0000
  C   C1507     1.0  0.72885  0.47178  0.62081  1.0000
  S   S440      1.0  0.79496  0.68900  0.39191  1.0000
  H   H2583     1.0  0.95186  0.67611  0.33398  1.0000
  H   H2584     1.0  0.63437  0.69092  0.31064  1.0000
  H   H2585     1.0  0.67055  0.54748  0.45350  1.0000
  H   H2586     1.0  0.69528  0.50222  0.46632  1.0000
  H   H2587     1.0  0.94820  0.68700  0.45356  1.0000
  H   H2588     1.0  0.93006  0.59029  0.25763  1.0000
  H   H2589     1.0  0.71390  0.68682  0.55400  1.0000
  Fe  Fe220     1.0  0.94288  0.55123  0.64578  1.0000
  H   H2590     1.0  0.76642  0.63300  0.44595  1.0000
  H   H2591     1.0  0.59845  0.67830  0.23852  1.0000
  H   H2592     1.0  0.83013  0.66096  0.65123  1.0000
  H   H2593     1.0  0.79551  0.52579  0.57909  1.0000
  H   H2594     1.0  0.54625  0.56895  0.39407  1.0000
  C   C1508     1.0  0.53716  0.53126  0.51698  1.0000
  C   C1509     1.0  0.53391  0.65559  0.46657  1.0000
  H   H2595     1.0  0.64775  0.49045  0.49085  1.0000
  C   C1510     1.0  0.92599  0.62885  0.43333  1.0000
  S   S441      1.0  0.93685  0.57690  0.58007  1.0000
  H   H2596     1.0  0.88563  0.59866  0.25994  1.0000
  C   C1511     1.0  0.56275  0.49620  0.34221  1.0000
  N   N110      1.0  0.54485  0.55788  0.51768  1.0000
  H   H2597     1.0  0.47827  0.60165  0.40537  1.0000
  C   C1512     1.0  0.95068  0.53112  0.45285  1.0000
  C   C1513     1.0  0.71694  0.62034  0.30619  1.0000
  H   H2598     1.0  0.51967  0.57336  0.41002  1.0000
  H   H2599     1.0  0.86267  0.56134  0.37733  1.0000
  H   H2600     1.0  0.51350  0.54169  0.44037  1.0000
  H   H2601     1.0  0.64058  0.53564  0.27234  1.0000
  H   H2602     1.0  0.69252  0.59129  0.45361  1.0000
  H   H2603     1.0  0.62408  0.71776  0.33470  1.0000
  H   H2604     1.0  0.91969  0.64428  0.61449  1.0000
  C   C1514     1.0  0.81931  0.64136  0.68739  1.0000
  Fe  Fe221     1.0  0.50332  0.48336  0.38291  1.0000
  C   C1515     1.0  0.58836  0.52948  0.63581  1.0000
  C   C1516     1.0  0.66593  0.48459  0.29630  1.0000
  H   H2605     1.0  0.69532  0.66918  0.35238  1.0000
  H   H2606     1.0  0.57073  0.71583  0.28896  1.0000
  H   H2607     1.0  0.51592  0.51731  0.54402  1.0000
  H   H2608     1.0  0.95987  0.60478  0.32381  1.0000
  C   C1517     1.0  0.57382  0.57713  0.48676  1.0000
  C   C1518     1.0  0.92731  0.57164  0.28246  1.0000
  S   S442      1.0  0.75353  0.52378  0.55550  1.0000
  S   S443      1.0  0.91130  0.53997  0.46922  1.0000
  S   S444      1.0  0.87633  0.52739  0.63205  1.0000
  C   C1519     1.0  0.55010  0.68444  0.53969  1.0000
  H   H2609     1.0  0.84631  0.51560  0.48950  1.0000
  H   H2610     1.0  0.92205  0.61993  0.55266  1.0000
  S   S445      1.0  0.71408  0.54309  0.65640  1.0000
  C   C1520     1.0  0.89366  0.64309  0.32779  1.0000
  H   H2611     1.0  0.79057  0.50306  0.54269  1.0000
  H   H2612     1.0  0.90184  0.63071  0.53530  1.0000
  H   H2613     1.0  0.85923  0.58312  0.56364  1.0000
  H   H2614     1.0  0.60205  0.47240  0.32245  1.0000
  H   H2615     1.0  0.51621  0.53890  0.61124  1.0000
  C   C1521     1.0  0.85009  0.55681  0.51373  1.0000
  H   H2616     1.0  0.50947  0.50320  0.22427  1.0000
  H   H2617     1.0  0.52546  0.58432  0.58252  1.0000
  S   S446      1.0  0.65399  0.61123  0.50615  1.0000
  C   C1522     1.0  0.85750  0.68590  0.28201  1.0000
  C   C1523     1.0  0.77292  0.70703  0.26223  1.0000
  C   C1524     1.0  0.73237  0.65962  0.36877  1.0000
  H   H2618     1.0  0.54409  0.50034  0.53838  1.0000
  Fe  Fe222     1.0  0.95909  0.67804  0.21125  1.0000
  C   C1525     1.0  0.47529  0.60422  0.59800  1.0000
  H   H2619     1.0  0.57384  0.54772  0.68736  1.0000
  Fe  Fe223     1.0  0.80373  0.60712  0.28263  1.0000
  H   H2620     1.0  0.55875  0.68310  0.33092  1.0000
  C   C1526     1.0  0.56254  0.49886  0.39857  1.0000
  H   H2621     1.0  0.96837  0.64690  0.67594  1.0000
  H   H2622     1.0  0.78987  0.71090  0.61377  1.0000
  H   H2623     1.0  0.50989  0.55798  0.52261  1.0000
  H   H2624     1.0  0.66444  0.47988  0.56530  1.0000
  H   H2625     1.0  0.84072  0.58980  0.29349  1.0000
  C   C1527     1.0  0.93620  0.50371  0.37604  1.0000
  C   C1528     1.0  0.52309  0.66983  0.48189  1.0000
  H   H2626     1.0  0.90815  0.55633  0.28559  1.0000
  H   H2627     1.0  0.65232  0.59056  0.25864  1.0000
  S   S447      1.0  0.78449  0.57019  0.26507  1.0000
  H   H2628     1.0  0.91524  0.59077  0.43127  1.0000
  Fe  Fe224     1.0  0.64258  0.68643  0.52841  1.0000
  Fe  Fe225     1.0  0.66427  0.69263  0.39529  1.0000
  C   C1529     1.0  0.74856  0.69463  0.63530  1.0000
  H   H2629     1.0  0.54101  0.48048  0.21292  1.0000
  H   H2630     1.0  0.63522  0.50771  0.22762  1.0000
  C   C1530     1.0  0.59163  0.48050  0.34276  1.0000
  C   C1531     1.0  0.69072  0.55576  0.45204  1.0000
  H   H2631     1.0  0.65761  0.48733  0.63235  1.0000
  C   C1532     1.0  0.58754  0.58023  0.42053  1.0000
  S   S448      1.0  0.89475  0.70178  0.62254  1.0000
  H   H2632     1.0  0.70338  0.56530  0.40214  1.0000
  C   C1533     1.0  0.75907  0.62363  0.54302  1.0000
  S   S449      1.0  0.77211  0.56429  0.66266  1.0000
  H   H2633     1.0  0.67889  0.53276  0.57604  1.0000
  C   C1534     1.0  0.85545  0.60455  0.30332  1.0000
  H   H2634     1.0  0.60880  0.59251  0.61535  1.0000
  H   H2635     1.0  0.73577  0.49838  0.47427  1.0000
  C   C1535     1.0  0.47115  0.63684  0.31150  1.0000
  H   H2636     1.0  0.57666  0.49434  0.47062  1.0000
  C   C1536     1.0  0.73595  0.49085  0.56576  1.0000
  H   H2637     1.0  0.84093  0.57637  0.20648  1.0000
  H   H2638     1.0  0.68476  0.65599  0.59986  1.0000
  C   C1537     1.0  0.72996  0.48368  0.51733  1.0000
  H   H2639     1.0  0.66305  0.48811  0.42203  1.0000
  H   H2640     1.0  0.52786  0.64475  0.43761  1.0000
  H   H2641     1.0  0.68573  0.67859  0.66688  1.0000
  H   H2642     1.0  0.48440  0.57916  0.44925  1.0000
  N   N111      1.0  0.69405  0.53464  0.48328  1.0000
  C   C1538     1.0  0.56126  0.67044  0.52361  1.0000
  C   C1539     1.0  0.78751  0.67729  0.51374  1.0000
  H   H2643     1.0  0.68594  0.63683  0.36477  1.0000
  H   H2644     1.0  0.58424  0.57308  0.51489  1.0000
  H   H2645     1.0  0.71541  0.65968  0.59241  1.0000
  H   H2646     1.0  0.71539  0.47917  0.31608  1.0000
  C   C1540     1.0  0.70276  0.67663  0.65501  1.0000
  H   H2647     1.0  0.86788  0.56008  0.23489  1.0000
  H   H2648     1.0  0.72146  0.61185  0.27215  1.0000
  N   N112      1.0  0.72709  0.70002  0.65044  1.0000
  H   H2649     1.0  0.48953  0.60285  0.50990  1.0000
  H   H2650     1.0  0.57626  0.67095  0.53908  1.0000
  C   C1541     1.0  0.81045  0.50211  0.60348  1.0000
  H   H2651     1.0  0.85594  0.64287  0.67997  1.0000
  C   C1542     1.0  0.80544  0.51754  0.55491  1.0000
  H   H2652     1.0  0.64177  0.56164  0.50264  1.0000
  H   H2653     1.0  0.56174  0.67347  0.23474  1.0000
  C   C1543     1.0  0.70120  0.52585  0.28761  1.0000
  H   H2654     1.0  0.83780  0.58398  0.52695  1.0000
  H   H2655     1.0  0.79907  0.69789  0.50276  1.0000
  N   N113      1.0  0.60057  0.70670  0.27979  1.0000
  C   C1544     1.0  0.60441  0.71213  0.33617  1.0000
  H   H2656     1.0  0.72219  0.61395  0.34442  1.0000
  H   H2657     1.0  0.75221  0.66309  0.35829  1.0000
  C   C1545     1.0  0.72073  0.54568  0.48512  1.0000
  H   H2658     1.0  0.62570  0.66659  0.27799  1.0000
  C   C1546     1.0  0.57811  0.67433  0.66719  1.0000
  C   C1547     1.0  0.96560  0.52196  0.42643  1.0000
  H   H2659     1.0  0.96461  0.63897  0.49210  1.0000
  H   H2660     1.0  0.70815  0.66157  0.44780  1.0000
  H   H2661     1.0  0.57895  0.56220  0.41087  1.0000
  N   N114      1.0  0.72715  0.66495  0.31111  1.0000
  H   H2662     1.0  0.92532  0.71106  0.48475  1.0000
  C   C1548     1.0  0.53881  0.57949  0.59657  1.0000
  C   C1549     1.0  0.74388  0.56486  0.42365  1.0000
  H   H2663     1.0  0.79669  0.55069  0.40644  1.0000
  C   C1550     1.0  0.92154  0.51331  0.40152  1.0000
  H   H2664     1.0  0.78012  0.66807  0.61037  1.0000
  H   H2665     1.0  0.95165  0.66511  0.55627  1.0000
  H   H2666     1.0  0.95648  0.54190  0.48205  1.0000
  S   S450      1.0  0.67470  0.68296  0.47539  1.0000
  H   H2667     1.0  0.95381  0.70378  0.34689  1.0000
  C   C1551     1.0  0.72796  0.67404  0.41113  1.0000
  H   H2668     1.0  0.57812  0.48573  0.26955  1.0000
  S   S451      1.0  0.51903  0.70376  0.53250  1.0000
  N   N115      1.0  0.93929  0.64841  0.46073  1.0000
  H   H2669     1.0  0.86101  0.67494  0.25386  1.0000
  C   C1552     1.0  0.65154  0.57245  0.27879  1.0000
  H   H2670     1.0  0.85798  0.54687  0.53789  1.0000
  H   H2671     1.0  0.94039  0.60356  0.45964  1.0000
  H   H2672     1.0  0.48796  0.63515  0.30120  1.0000
  H   H2673     1.0  0.53305  0.57538  0.64677  1.0000
  C   C1553     1.0  0.57327  0.69954  0.28671  1.0000
  C   C1554     1.0  0.69573  0.57701  0.47998  1.0000
  H   H2674     1.0  0.55659  0.69585  0.56729  1.0000
  N   N116      1.0  0.82886  0.53832  0.49775  1.0000
  H   H2675     1.0  0.49138  0.60385  0.60909  1.0000
  H   H2676     1.0  0.90845  0.65833  0.33625  1.0000
  C   C1555     1.0  0.83925  0.52560  0.46228  1.0000
  H   H2677     1.0  0.57847  0.59685  0.48433  1.0000
  H   H2678     1.0  0.81870  0.49151  0.58521  1.0000
  Fe  Fe226     1.0  0.88750  0.50567  0.69268  1.0000
  C   C1556     1.0  0.94819  0.56738  0.24804  1.0000
  H   H2679     1.0  0.75281  0.69304  0.58917  1.0000
  S   S452      1.0  0.95302  0.71062  0.21202  1.0000
  Fe  Fe227     1.0  0.64422  0.64181  0.49675  1.0000
  H   H2680     1.0  0.74820  0.60291  0.55426  1.0000
  C   C1557     1.0  0.55316  0.65611  0.48687  1.0000
  Fe  Fe228     1.0  0.74378  0.53202  0.64118  1.0000
  S   S453      1.0  0.92396  0.51736  0.61753  1.0000
  C   C1558     1.0  0.96610  0.65409  0.45456  1.0000
  C   C1559     1.0  0.95853  0.50853  0.38747  1.0000
  H   H2681     1.0  0.58664  0.66609  0.32040  1.0000
  H   H2682     1.0  0.62022  0.58121  0.21003  1.0000
  H   H2683     1.0  0.65461  0.51517  0.54972  1.0000
  C   C1560     1.0  0.47073  0.59136  0.55020  1.0000
  H   H2684     1.0  0.84482  0.71238  0.28315  1.0000
  C   C1561     1.0  0.62785  0.58000  0.55480  1.0000
  C   C1562     1.0  0.57670  0.49215  0.42729  1.0000
  H   H2685     1.0  0.69053  0.49884  0.58785  1.0000
  H   H2686     1.0  0.77545  0.70913  0.30531  1.0000
  C   C1563     1.0  0.78333  0.66752  0.46736  1.0000
  S   S454      1.0  0.71371  0.55856  0.27735  1.0000
  H   H2687     1.0  0.76217  0.57026  0.43140  1.0000
  H   H2688     1.0  0.92015  0.47307  0.55310  1.0000
  C   C1564     1.0  0.64182  0.54791  0.69315  1.0000
  H   H2689     1.0  0.57274  0.53159  0.51456  1.0000
  H   H2690     1.0  0.66453  0.51878  0.28551  1.0000
  C   C1565     1.0  0.47341  0.65960  0.31797  1.0000
  H   H2691     1.0  0.60691  0.51710  0.57392  1.0000
  H   H2692     1.0  0.54842  0.55058  0.60658  1.0000
  H   H2693     1.0  0.61959  0.54558  0.25985  1.0000
  C   C1566     1.0  0.69067  0.51677  0.44791  1.0000
  H   H2694     1.0  0.58810  0.59571  0.38654  1.0000
  H   H2695     1.0  0.73049  0.69263  0.38662  1.0000
  S   S455      1.0  0.64967  0.70775  0.59343  1.0000
  H   H2696     1.0  0.90646  0.62559  0.43843  1.0000
  Fe  Fe229     1.0  0.91435  0.54165  0.55895  1.0000
  H   H2697     1.0  0.64662  0.47298  0.29697  1.0000
  H   H2698     1.0  0.92014  0.66841  0.43876  1.0000
  S   S456      1.0  0.56522  0.49812  0.68957  1.0000
  H   H2699     1.0  0.86138  0.53358  0.36720  1.0000
  H   H2700     1.0  0.63706  0.52023  0.64807  1.0000
  C   C1567     1.0  0.59035  0.48198  0.40063  1.0000
  C   C1568     1.0  0.71549  0.51456  0.29669  1.0000
  H   H2701     1.0  0.74421  0.55623  0.38784  1.0000
  C   C1569     1.0  0.80485  0.53959  0.42441  1.0000
  C   C1570     1.0  0.83710  0.63059  0.67664  1.0000
  H   H2702     1.0  0.67105  0.57700  0.27718  1.0000
  C   C1571     1.0  0.88071  0.60942  0.28482  1.0000
  S   S457      1.0  0.56820  0.64028  0.46205  1.0000
  H   H2703     1.0  0.55123  0.50584  0.42023  1.0000
  H   H2704     1.0  0.74233  0.67891  0.43327  1.0000
  C   C1572     1.0  0.94018  0.67277  0.43167  1.0000
  C   C1573     1.0  0.92245  0.63739  0.52837  1.0000
  C   C1574     1.0  0.95700  0.68790  0.36273  1.0000
  H   H2705     1.0  0.69574  0.61216  0.32262  1.0000
  C   C1575     1.0  0.70462  0.66966  0.59663  1.0000
  H   H2706     1.0  0.66893  0.65276  0.29455  1.0000
  S   S458      1.0  0.81771  0.61238  0.35886  1.0000
  S   S459      1.0  0.74857  0.61331  0.66695  1.0000
  H   H2707     1.0  0.48174  0.62487  0.57954  1.0000
  C   C1576     1.0  0.67425  0.52022  0.54842  1.0000
  S   S460      1.0  0.61250  0.64391  0.55785  1.0000
  S   S461      1.0  0.63601  0.65134  0.41266  1.0000
  C   C1577     1.0  0.56471  0.69243  0.23454  1.0000
  C   C1578     1.0  0.53668  0.55534  0.58439  1.0000
  C   C1579     1.0  0.53021  0.56727  0.48920  1.0000
  H   H2708     1.0  0.70474  0.52776  0.39963  1.0000
  C   C1580     1.0  0.92890  0.52712  0.43960  1.0000
  H   H2709     1.0  0.96668  0.48393  0.25174  1.0000
  H   H2710     1.0  0.88113  0.55042  0.40604  1.0000
  H   H2711     1.0  0.64362  0.69952  0.22767  1.0000
  C   C1581     1.0  0.86243  0.54391  0.39998  1.0000
  C   C1582     1.0  0.74398  0.69339  0.27115  1.0000
  C   C1583     1.0  0.84250  0.57092  0.55255  1.0000
  C   C1584     1.0  0.89989  0.62899  0.29609  1.0000
  C   C1585     1.0  0.68009  0.47329  0.30601  1.0000
  H   H2712     1.0  0.79155  0.48725  0.64219  1.0000
  H   H2713     1.0  0.49203  0.67548  0.31177  1.0000
  S   S462      1.0  0.51937  0.70895  0.36492  1.0000
  H   H2714     1.0  0.74349  0.69644  0.22432  1.0000
  S   S463      1.0  0.63415  0.69888  0.44643  1.0000
  H   H2715     1.0  0.80843  0.55833  0.49027  1.0000
  C   C1586     1.0  0.87734  0.71609  0.60678  1.0000
  H   H2716     1.0  0.48022  0.53527  0.67258  1.0000
  C   C1587     1.0  0.60211  0.68337  0.27842  1.0000
  C   C1588     1.0  0.68939  0.65800  0.27610  1.0000
  H   H2717     1.0  0.70077  0.67784  0.24073  1.0000
  H   H2718     1.0  0.83536  0.69474  0.23589  1.0000
  S   S464      1.0  0.54298  0.50203  0.30967  1.0000
  H   H2719     1.0  0.81736  0.53902  0.38414  1.0000
  H   H2720     1.0  0.92582  0.56937  0.33038  1.0000
  C   C1589     1.0  0.86551  0.71136  0.56436  1.0000
  H   H2721     1.0  0.77439  0.71427  0.68063  1.0000
  H   H2722     1.0  0.92571  0.67056  0.55400  1.0000
  C   C1590     1.0  0.58858  0.55080  0.64670  1.0000
  H   H2723     1.0  0.80230  0.62964  0.67627  1.0000
  H   H2724     1.0  0.86611  0.69794  0.54278  1.0000
  C   C1591     1.0  0.62709  0.55867  0.54303  1.0000
  H   H2725     1.0  0.74253  0.67559  0.66859  1.0000
  H   H2726     1.0  0.75398  0.65605  0.26201  1.0000
  C   C1592     1.0  0.86810  0.63731  0.34905  1.0000
  H   H2727     1.0  0.53913  0.58838  0.47843  1.0000
  S   S465      1.0  0.93168  0.63601  0.26937  1.0000
  H   H2728     1.0  0.90699  0.59093  0.50753  1.0000
  H   H2729     1.0  0.84367  0.54551  0.67331  1.0000
  C   C1593     1.0  0.62810  0.68573  0.27349  1.0000
  H   H2730     1.0  0.65604  0.52135  0.69371  1.0000
  C   C1594     1.0  0.70462  0.48809  0.30762  1.0000
  C   C1595     1.0  0.92209  0.60212  0.46018  1.0000
  H   H2731     1.0  0.74448  0.58307  0.40634  1.0000
  H   H2732     1.0  0.73111  0.65470  0.23002  1.0000
  H   H2733     1.0  0.68960  0.64405  0.25426  1.0000
  H   H2734     1.0  0.65977  0.51523  0.41681  1.0000
  H   H2735     1.0  0.94242  0.54771  0.27646  1.0000
  C   C1596     1.0  0.60729  0.53345  0.58321  1.0000
  H   H2736     1.0  0.86313  0.64797  0.37425  1.0000
  Fe  Fe230     1.0  0.48807  0.71605  0.35744  1.0000
  C   C1597     1.0  0.76257  0.63361  0.58951  1.0000
  H   H2737     1.0  0.72285  0.55539  0.51922  1.0000
  H   H2738     1.0  0.83993  0.67143  0.32434  1.0000
  Fe  Fe231     1.0  0.60653  0.65638  0.47153  1.0000
  H   H2739     1.0  0.54000  0.53068  0.47022  1.0000
  H   H2740     1.0  0.86695  0.57223  0.47105  1.0000
  H   H2741     1.0  0.71594  0.58777  0.47770  1.0000
  H   H2742     1.0  0.69709  0.65924  0.69380  1.0000
  H   H2743     1.0  0.82363  0.50970  0.45472  1.0000
  H   H2744     1.0  0.93651  0.63584  0.38322  1.0000
  C   C1598     1.0  0.60830  0.57610  0.60599  1.0000
  H   H2745     1.0  0.68194  0.56910  0.52820  1.0000
  C   C1599     1.0  0.76932  0.64064  0.48188  1.0000
  H   H2746     1.0  0.82594  0.55730  0.59695  1.0000
  H   H2747     1.0  0.90467  0.51020  0.39133  1.0000
  C   C1600     1.0  0.63896  0.52216  0.69171  1.0000
  C   C1601     1.0  0.69903  0.65676  0.32938  1.0000
  H   H2748     1.0  0.71943  0.63871  0.39811  1.0000
  H   H2749     1.0  0.59064  0.69457  0.63340  1.0000
  H   H2750     1.0  0.59111  0.69422  0.37786  1.0000
  H   H2751     1.0  0.82296  0.51453  0.62360  1.0000
  H   H2752     1.0  0.66859  0.60282  0.65395  1.0000
  C   C1602     1.0  0.52759  0.56245  0.43001  1.0000
  H   H2753     1.0  0.84170  0.63050  0.62914  1.0000
  C   C1603     1.0  0.93071  0.65567  0.56439  1.0000
  H   H2754     1.0  0.73632  0.70459  0.28887  1.0000
  Fe  Fe232     1.0  0.74101  0.57333  0.68439  1.0000
  S   S466      1.0  0.48128  0.50325  0.38479  1.0000
  H   H2755     1.0  0.81318  0.68463  0.66729  1.0000
  C   C1604     1.0  0.73327  0.65010  0.27461  1.0000
  H   H2756     1.0  0.93953  0.61820  0.68622  1.0000
  H   H2757     1.0  0.54563  0.69055  0.24185  1.0000
  C   C1605     1.0  0.67620  0.51065  0.28894  1.0000
  C   C1606     1.0  0.57796  0.48781  0.31321  1.0000
  H   H2758     1.0  0.51196  0.47801  0.67201  1.0000
  H   H2759     1.0  0.65919  0.56359  0.65170  1.0000
  Fe  Fe233     1.0  0.89919  0.56087  0.65764  1.0000
  C   C1607     1.0  0.64059  0.55273  0.24790  1.0000
  C   C1608     1.0  0.66367  0.50203  0.44491  1.0000
  S   S467      1.0  0.77466  0.61726  0.27240  1.0000
  C   C1609     1.0  0.84914  0.61839  0.33578  1.0000
  C   C1610     1.0  0.53131  0.68446  0.51786  1.0000
  H   H2760     1.0  0.63856  0.56365  0.32824  1.0000
  C   C1611     1.0  0.82052  0.55329  0.46038  1.0000
  C   C1612     1.0  0.77496  0.71509  0.63378  1.0000
  H   H2761     1.0  0.62511  0.54785  0.68517  1.0000
  H   H2762     1.0  0.94571  0.56605  0.20422  1.0000
  H   H2763     1.0  0.75298  0.50136  0.21276  1.0000
  H   H2764     1.0  0.69488  0.71788  0.63317  1.0000
  S   S468      1.0  0.49328  0.46980  0.48490  1.0000
  H   H2765     1.0  0.86171  0.76711  0.04272  1.0000
  C   C1613     1.0  0.79048  0.74749  0.94881  1.0000
  C   C1614     1.0  0.62800  0.82208  0.86868  1.0000
  H   H2766     1.0  0.84458  0.79148  0.92745  1.0000
  H   H2767     1.0  0.62418  0.80540  0.90650  1.0000
  H   H2768     1.0  0.58247  0.86344  0.08506  1.0000
  H   H2769     1.0  0.69855  0.88622  0.75388  1.0000
  H   H2770     1.0  0.72044  0.95884  0.97927  1.0000
  C   C1615     1.0  0.89519  0.78495  0.92346  1.0000
  S   S469      1.0  0.63030  0.85606  0.99678  1.0000
  S   S470      1.0  0.66928  0.77255  0.87818  1.0000
  H   H2771     1.0  0.87517  0.78040  0.82913  1.0000
  C   C1616     1.0  0.86212  0.77354  0.87792  1.0000
  H   H2772     1.0  0.47168  0.94679  0.06329  1.0000
  C   C1617     1.0  0.67262  0.73195  0.06833  1.0000
  Fe  Fe234     1.0  0.48302  0.76267  0.78404  1.0000
  H   H2773     1.0  0.69211  0.89593  0.10594  1.0000
  H   H2774     1.0  0.96055  0.82990  0.80554  1.0000
  H   H2775     1.0  0.59230  0.83344  0.12537  1.0000
  H   H2776     1.0  0.72089  0.83660  0.16765  1.0000
  C   C1618     1.0  0.73090  0.74450  0.89149  1.0000
  C   C1619     1.0  0.56501  0.78567  0.05037  1.0000
  C   C1620     1.0  0.47511  0.88781  0.13273  1.0000
  C   C1621     1.0  0.85078  0.74461  0.98345  1.0000
  H   H2777     1.0  0.90083  0.87879  0.86939  1.0000
  C   C1622     1.0  0.94308  0.88335  0.77817  1.0000
  H   H2778     1.0  0.66917  0.81804  0.86937  1.0000
  H   H2779     1.0  0.48053  0.80899  0.94532  1.0000
  H   H2780     1.0  0.74228  0.87889  0.18461  1.0000
  C   C1623     1.0  0.67380  0.78907  0.02994  1.0000
  S   S471      1.0  0.78731  0.75501  0.01554  1.0000
  H   H2781     1.0  0.52537  0.84841  0.73791  1.0000
  H   H2782     1.0  0.85348  0.80281  0.84740  1.0000
  H   H2783     1.0  0.76689  0.92437  0.03922  1.0000
  H   H2784     1.0  0.49431  0.93713  0.06706  1.0000
  H   H2785     1.0  0.63298  0.84808  0.13469  1.0000
  C   C1624     1.0  0.94343  0.92399  0.82930  1.0000
  C   C1625     1.0  0.72621  0.96436  0.82424  1.0000
  H   H2786     1.0  0.63155  0.80633  0.77219  1.0000
  S   S472      1.0  0.60105  0.91475  0.82523  1.0000
  H   H2787     1.0  0.90353  0.82708  0.75578  1.0000
  C   C1626     1.0  0.95232  0.96173  0.71147  1.0000
  S   S473      1.0  0.47557  0.74892  0.88472  1.0000
  H   H2788     1.0  0.85157  0.78817  0.76046  1.0000
  C   C1627     1.0  0.92494  0.86623  0.11624  1.0000
  C   C1628     1.0  0.48725  0.82848  0.91373  1.0000
  C   C1629     1.0  0.85975  0.79664  0.88379  1.0000
  H   H2789     1.0  0.56438  0.93475  0.78326  1.0000
  C   C1630     1.0  0.79928  0.96063  0.10108  1.0000
  N   N117      1.0  0.72210  0.91295  0.01458  1.0000
  C   C1631     1.0  0.79253  0.73254  0.84618  1.0000
  N   N118      1.0  0.92803  0.91488  0.79051  1.0000
  H   H2790     1.0  0.69408  0.94595  0.79684  1.0000
  C   C1632     1.0  0.90590  0.87471  0.99111  1.0000
  H   H2791     1.0  0.69083  0.75131  0.04658  1.0000
  C   C1633     1.0  0.50870  0.85068  0.73888  1.0000
  H   H2792     1.0  0.81611  0.96753  0.83832  1.0000
  H   H2793     1.0  0.69616  0.84800  0.02845  1.0000
  N   N119      1.0  0.87203  0.76283  0.92061  1.0000
  H   H2794     1.0  0.85524  0.73076  0.00691  1.0000
  H   H2795     1.0  0.79010  0.85707  0.14620  1.0000
  C   C1634     1.0  0.61686  0.80550  0.03689  1.0000
  H   H2796     1.0  0.94057  0.90513  0.11652  1.0000
  C   C1635     1.0  0.54418  0.81469  0.76858  1.0000
  C   C1636     1.0  0.72451  0.93022  0.10457  1.0000
  H   H2797     1.0  0.69158  0.95637  0.16693  1.0000
  H   H2798     1.0  0.64830  0.85147  0.73566  1.0000
  H   H2799     1.0  0.85728  0.73470  0.83787  1.0000
  H   H2800     1.0  0.47925  0.87229  0.76478  1.0000
  H   H2801     1.0  0.92577  0.89058  0.97171  1.0000
  H   H2802     1.0  0.48704  0.96585  0.81702  1.0000
  C   C1637     1.0  0.47316  0.85332  0.79818  1.0000
  H   H2803     1.0  0.91147  0.78434  0.13984  1.0000
  Fe  Fe235     1.0  0.75242  0.81371  0.03074  1.0000
  H   H2804     1.0  0.70662  0.72708  0.71168  1.0000
  S   S474      1.0  0.92324  0.79593  0.73073  1.0000
  C   C1638     1.0  0.91012  0.77741  0.95731  1.0000
  C   C1639     1.0  0.87361  0.83015  0.01275  1.0000
  C   C1640     1.0  0.69407  0.86478  0.02768  1.0000
  H   H2805     1.0  0.88947  0.79633  0.94604  1.0000
  H   H2806     1.0  0.89891  0.76043  0.84995  1.0000
  H   H2807     1.0  0.79419  0.76728  0.80166  1.0000
  C   C1641     1.0  0.81927  0.96135  0.79863  1.0000
  C   C1642     1.0  0.79388  0.75585  0.84262  1.0000
  H   H2808     1.0  0.65977  0.73028  0.99319  1.0000
  H   H2809     1.0  0.91663  0.89492  0.08499  1.0000
  H   H2810     1.0  0.75194  0.95378  0.98689  1.0000
  Fe  Fe236     1.0  0.96450  0.74556  0.71018  1.0000
  Fe  Fe237     1.0  0.57707  0.88856  0.92449  1.0000
  H   H2811     1.0  0.77348  0.96950  0.15425  1.0000
  Fe  Fe238     1.0  0.62734  0.74079  0.92855  1.0000
  H   H2812     1.0  0.96439  0.93832  0.80017  1.0000
  C   C1643     1.0  0.59966  0.77874  0.05428  1.0000
  H   H2813     1.0  0.70937  0.92034  0.94064  1.0000
  S   S475      1.0  0.55275  0.73573  0.07791  1.0000
  H   H2814     1.0  0.62636  0.86114  0.19107  1.0000
  S   S476      1.0  0.82151  0.82913  0.95001  1.0000
  C   C1644     1.0  0.51566  0.87607  0.80654  1.0000
  C   C1645     1.0  0.68112  0.78701  0.92806  1.0000
  H   H2815     1.0  0.77377  0.88381  0.14692  1.0000
  H   H2816     1.0  0.82862  0.74082  0.07317  1.0000
  H   H2817     1.0  0.56528  0.83374  0.82031  1.0000
  N   N120      1.0  0.90093  0.88160  0.18437  1.0000
  C   C1646     1.0  0.50317  0.89040  0.95877  1.0000
  C   C1647     1.0  0.66407  0.78086  0.98657  1.0000
  H   H2818     1.0  0.68352  0.90026  0.01388  1.0000
  C   C1648     1.0  0.93410  0.93594  0.87179  1.0000
  H   H2819     1.0  0.73915  0.73583  0.91746  1.0000
  S   S477      1.0  0.60999  0.90661  0.95563  1.0000
  C   C1649     1.0  0.47310  0.91626  0.79163  1.0000
  C   C1650     1.0  0.77124  0.93290  0.98971  1.0000
  C   C1651     1.0  0.53529  0.94121  0.95017  1.0000
  S   S478      1.0  0.78632  0.85428  0.97878  1.0000
  H   H2820     1.0  0.55705  0.89204  0.75503  1.0000
  H   H2821     1.0  0.50665  0.84175  0.91315  1.0000
  H   H2822     1.0  0.83849  0.76960  0.01466  1.0000
  C   C1652     1.0  0.84146  0.90099  0.82958  1.0000
  C   C1653     1.0  0.94153  0.90658  0.74729  1.0000
  C   C1654     1.0  0.54309  0.92337  0.96050  1.0000
  H   H2823     1.0  0.49298  0.79707  0.04598  1.0000
  H   H2824     1.0  0.71464  0.92309  0.15539  1.0000
  C   C1655     1.0  0.64792  0.81121  0.78795  1.0000
  H   H2825     1.0  0.86341  0.86480  0.83319  1.0000
  S   S479      1.0  0.92360  0.84609  0.94836  1.0000
  S   S480      1.0  0.64467  0.90140  0.83969  1.0000
  C   C1656     1.0  0.86029  0.85853  0.04042  1.0000
  H   H2826     1.0  0.88700  0.73748  0.92409  1.0000
  C   C1657     1.0  0.78651  0.84607  0.19338  1.0000
  H   H2827     1.0  0.78964  0.95222  0.97049  1.0000
  S   S481      1.0  0.92305  0.73489  0.73680  1.0000
  H   H2828     1.0  0.47752  0.90242  0.94095  1.0000
  H   H2829     1.0  0.57571  0.76472  0.71197  1.0000
  H   H2830     1.0  0.87850  0.81391  0.87627  1.0000
  H   H2831     1.0  0.65698  0.73490  0.09009  1.0000
  H   H2832     1.0  0.54754  0.96076  0.94773  1.0000
  C   C1658     1.0  0.89956  0.85059  0.98747  1.0000
  H   H2833     1.0  0.54903  0.87063  0.11134  1.0000
  H   H2834     1.0  0.93244  0.90231  0.71336  1.0000
  H   H2835     1.0  0.95645  0.88864  0.80285  1.0000
  H   H2836     1.0  0.95447  0.83238  0.18302  1.0000
  H   H2837     1.0  0.52726  0.79962  0.80893  1.0000
  H   H2838     1.0  0.63675  0.81299  0.03285  1.0000
  H   H2839     1.0  0.83135  0.88876  0.87748  1.0000
  C   C1659     1.0  0.87428  0.94314  0.75084  1.0000
  H   H2840     1.0  0.66513  0.79911  0.72181  1.0000
  H   H2841     1.0  0.68233  0.86086  0.07521  1.0000
  H   H2842     1.0  0.88962  0.89994  0.85724  1.0000
  H   H2843     1.0  0.49974  0.72616  0.97534  1.0000
  C   C1660     1.0  0.88113  0.74743  0.89273  1.0000
  H   H2844     1.0  0.57542  0.82527  0.02413  1.0000
  H   H2845     1.0  0.92245  0.77237  0.92848  1.0000
  H   H2846     1.0  0.52003  0.89373  0.77163  1.0000
  H   H2847     1.0  0.59568  0.79455  0.84890  1.0000
  Fe  Fe239     1.0  0.61766  0.87653  0.93737  1.0000
  H   H2848     1.0  0.92339  0.79448  0.96615  1.0000
  S   S482      1.0  0.95345  0.74037  0.05334  1.0000
  H   H2849     1.0  0.49172  0.78397  0.12186  1.0000
  H   H2850     1.0  0.48354  0.72809  0.04437  1.0000
  C   C1661     1.0  0.89245  0.91665  0.13686  1.0000
  H   H2851     1.0  0.50727  0.87776  0.85038  1.0000
  H   H2852     1.0  0.64217  0.79307  0.82401  1.0000
  C   C1662     1.0  0.92130  0.88837  0.12424  1.0000
  H   H2853     1.0  0.90745  0.85018  0.11483  1.0000
  H   H2854     1.0  0.65121  0.86683  0.78943  1.0000
  H   H2855     1.0  0.50150  0.72790  0.12109  1.0000
  H   H2856     1.0  0.72246  0.74068  0.02789  1.0000
  Fe  Fe240     1.0  0.80741  0.84110  0.02546  1.0000
  C   C1663     1.0  0.47967  0.94003  0.09450  1.0000
  H   H2857     1.0  0.67690  0.95370  0.70415  1.0000
  H   H2858     1.0  0.67609  0.87095  0.85817  1.0000
  H   H2859     1.0  0.54497  0.77804  0.05574  1.0000
  H   H2860     1.0  0.74556  0.93913  0.09456  1.0000
  C   C1664     1.0  0.71748  0.81294  0.95304  1.0000
  H   H2861     1.0  0.63137  0.87607  0.11151  1.0000
  H   H2862     1.0  0.82264  0.94547  0.81326  1.0000
  C   C1665     1.0  0.51424  0.93573  0.70632  1.0000
  H   H2863     1.0  0.88455  0.88940  0.75940  1.0000
  S   S483      1.0  0.61571  0.87633  0.72872  1.0000
  H   H2864     1.0  0.66390  0.84304  0.92499  1.0000
  H   H2865     1.0  0.89126  0.93300  0.14528  1.0000
  H   H2866     1.0  0.71400  0.75759  0.95460  1.0000
  H   H2867     1.0  0.78895  0.94068  0.13192  1.0000
  C   C1666     1.0  0.68775  0.87691  0.72674  1.0000
  H   H2868     1.0  0.58741  0.81027  0.89595  1.0000
  C   C1667     1.0  0.85398  0.83401  0.03995  1.0000
  C   C1668     1.0  0.79024  0.72489  0.95088  1.0000
  H   H2869     1.0  0.57488  0.90138  0.10164  1.0000
  C   C1669     1.0  0.88980  0.72025  0.15230  1.0000
  C   C1670     1.0  0.67066  0.81704  0.73224  1.0000
  H   H2870     1.0  0.61219  0.96620  0.75145  1.0000
  S   S484      1.0  0.76203  0.79875  0.95708  1.0000
  H   H2871     1.0  0.77505  0.92084  0.96573  1.0000
  C   C1671     1.0  0.60835  0.82242  0.02394  1.0000
  C   C1672     1.0  0.67802  0.85443  0.87669  1.0000
  C   C1673     1.0  0.54107  0.81300  0.16039  1.0000
  C   C1674     1.0  0.63564  0.79926  0.18294  1.0000
  H   H2872     1.0  0.63694  0.78995  0.15022  1.0000
  C   C1675     1.0  0.92631  0.93621  0.75323  1.0000
  H   H2873     1.0  0.51979  0.79857  0.18155  1.0000
  C   C1676     1.0  0.84493  0.75665  0.03025  1.0000
  H   H2874     1.0  0.90705  0.92473  0.08949  1.0000
  H   H2875     1.0  0.94574  0.94033  0.90084  1.0000
  C   C1677     1.0  0.58235  0.81244  0.03147  1.0000
  H   H2876     1.0  0.80133  0.95290  0.78896  1.0000
  N   N121      1.0  0.65261  0.83218  0.81436  1.0000
  S   S485      1.0  0.83568  0.86453  0.06260  1.0000
  C   C1678     1.0  0.54488  0.81483  0.70987  1.0000
  H   H2877     1.0  0.94692  0.78251  0.01410  1.0000
  H   H2878     1.0  0.73323  0.88454  0.02225  1.0000
  S   S486      1.0  0.51891  0.79091  0.69971  1.0000
  H   H2879     1.0  0.55769  0.95898  0.79269  1.0000
  H   H2880     1.0  0.84280  0.75814  0.88223  1.0000
  C   C1679     1.0  0.71372  0.90701  0.08319  1.0000
  C   C1680     1.0  0.70062  0.80397  0.01397  1.0000
  S   S487      1.0  0.89546  0.96110  0.90429  1.0000
  C   C1681     1.0  0.86531  0.74134  0.15538  1.0000
  C   C1682     1.0  0.52702  0.89797  0.96441  1.0000
  H   H2881     1.0  0.83482  0.81296  0.72464  1.0000
  C   C1683     1.0  0.49196  0.89777  0.16997  1.0000
  H   H2882     1.0  0.90946  0.79890  0.87606  1.0000
  Fe  Fe241     1.0  0.60975  0.88441  0.81569  1.0000
  H   H2883     1.0  0.63001  0.83714  0.88879  1.0000
  H   H2884     1.0  0.68321  0.86558  0.99779  1.0000
  C   C1684     1.0  0.58789  0.85300  0.72269  1.0000
  H   H2885     1.0  0.72667  0.73549  0.85712  1.0000
  H   H2886     1.0  0.89703  0.76118  0.00211  1.0000
  H   H2887     1.0  0.96202  0.92261  0.71898  1.0000
  H   H2888     1.0  0.48816  0.89809  0.08310  1.0000
  C   C1685     1.0  0.86111  0.72622  0.87679  1.0000
  Fe  Fe242     1.0  0.78532  0.79034  0.00456  1.0000
  H   H2889     1.0  0.68863  0.82246  0.74126  1.0000
  C   C1686     1.0  0.74945  0.93611  0.97840  1.0000
  H   H2890     1.0  0.94295  0.90762  0.85981  1.0000
  C   C1687     1.0  0.57166  0.95281  0.79331  1.0000
  C   C1688     1.0  0.71603  0.72005  0.04202  1.0000
  H   H2891     1.0  0.84449  0.76125  0.15667  1.0000
  H   H2892     1.0  0.50246  0.91917  0.15547  1.0000
  H   H2893     1.0  0.88136  0.75704  0.11190  1.0000
  S   S488      1.0  0.59651  0.74800  0.91828  1.0000
  H   H2894     1.0  0.55052  0.80185  0.15493  1.0000
  C   C1689     1.0  0.86943  0.93279  0.70561  1.0000
  H   H2895     1.0  0.91443  0.94118  0.78390  1.0000
  H   H2896     1.0  0.49041  0.87068  0.96333  1.0000
  H   H2897     1.0  0.72993  0.89451  0.95171  1.0000
  H   H2898     1.0  0.79382  0.78130  0.89155  1.0000
  H   H2899     1.0  0.83216  0.73219  0.97937  1.0000
  H   H2900     1.0  0.69005  0.94327  0.97147  1.0000
  Fe  Fe243     1.0  0.79744  0.83873  0.90811  1.0000
  C   C1690     1.0  0.58265  0.87068  0.12370  1.0000
  C   C1691     1.0  0.72127  0.88984  0.00214  1.0000
  C   C1692     1.0  0.70377  0.91745  0.99050  1.0000
  H   H2901     1.0  0.50148  0.82038  0.83639  1.0000
  S   S489      1.0  0.53565  0.87491  0.97832  1.0000
  C   C1693     1.0  0.88401  0.87706  0.80065  1.0000
  H   H2902     1.0  0.94100  0.87388  0.07154  1.0000
  H   H2903     1.0  0.54522  0.82598  0.11490  1.0000
  H   H2904     1.0  0.88960  0.86372  0.78838  1.0000
  H   H2905     1.0  0.72128  0.94549  0.08441  1.0000
  C   C1694     1.0  0.57378  0.76885  0.06075  1.0000
  C   C1695     1.0  0.56569  0.83395  0.77500  1.0000
  S   S490      1.0  0.50108  0.95513  0.92994  1.0000
  H   H2906     1.0  0.74640  0.76524  0.86511  1.0000
  H   H2907     1.0  0.50888  0.92438  0.80207  1.0000
  C   C1696     1.0  0.74031  0.84408  0.17066  1.0000
  H   H2908     1.0  0.66064  0.78261  0.07649  1.0000
  H   H2909     1.0  0.95974  0.80048  0.81507  1.0000
  C   C1697     1.0  0.49967  0.92541  0.76969  1.0000
  H   H2910     1.0  0.69275  0.84469  0.80163  1.0000
  C   C1698     1.0  0.70779  0.80411  0.91019  1.0000
  H   H2911     1.0  0.93064  0.76951  0.13413  1.0000
  H   H2912     1.0  0.69901  0.75015  0.90295  1.0000
  H   H2913     1.0  0.66137  0.75579  0.16824  1.0000
  H   H2914     1.0  0.89104  0.89778  0.01732  1.0000
  H   H2915     1.0  0.90592  0.73725  0.11107  1.0000
  C   C1699     1.0  0.70339  0.96025  0.81581  1.0000
  H   H2916     1.0  0.67720  0.82412  0.15409  1.0000
  H   H2917     1.0  0.54065  0.86015  0.81262  1.0000
  H   H2918     1.0  0.95115  0.87761  0.74187  1.0000
  H   H2919     1.0  0.87124  0.86477  0.14760  1.0000
  C   C1700     1.0  0.91637  0.83602  0.70782  1.0000
  H   H2920     1.0  0.64344  0.76920  0.99899  1.0000
  C   C1701     1.0  0.83619  0.89075  0.78451  1.0000
  C   C1702     1.0  0.54187  0.87889  0.80180  1.0000
  C   C1703     1.0  0.79317  0.76352  0.89389  1.0000
  H   H2921     1.0  0.93695  0.95440  0.84518  1.0000
  S   S491      1.0  0.77255  0.80145  0.08339  1.0000
  C   C1704     1.0  0.90065  0.90556  0.18543  1.0000
  C   C1705     1.0  0.70145  0.94031  0.99786  1.0000
  C   C1706     1.0  0.51171  0.93369  0.94258  1.0000
  H   H2922     1.0  0.73415  0.95300  0.81243  1.0000
  C   C1707     1.0  0.65873  0.85646  0.76711  1.0000
  H   H2923     1.0  0.75389  0.94110  0.92809  1.0000
  H   H2924     1.0  0.75303  0.88149  0.10646  1.0000
  C   C1708     1.0  0.49580  0.90833  0.94652  1.0000
  H   H2925     1.0  0.57186  0.94788  0.83992  1.0000
  C   C1709     1.0  0.62267  0.85760  0.15001  1.0000
  H   H2926     1.0  0.54806  0.88694  0.83616  1.0000
  C   C1710     1.0  0.60300  0.81337  0.85541  1.0000
  H   H2927     1.0  0.60575  0.82812  0.81508  1.0000
  N   N122      1.0  0.49658  0.85211  0.79939  1.0000
  S   S492      1.0  0.81273  0.85794  0.80579  1.0000
  C   C1711     1.0  0.48829  0.82743  0.84945  1.0000
  H   H2928     1.0  0.69043  0.93592  0.04653  1.0000
  C   C1712     1.0  0.88625  0.87876  0.01729  1.0000
  H   H2929     1.0  0.75140  0.84069  0.13349  1.0000
  S   S493      1.0  0.58332  0.85690  0.91198  1.0000
  C   C1713     1.0  0.90074  0.89275  0.83236  1.0000
  H   H2930     1.0  0.69771  0.86216  0.87798  1.0000
  N   N123      1.0  0.57647  0.84990  0.18077  1.0000
  C   C1714     1.0  0.91718  0.77250  0.16599  1.0000
  H   H2931     1.0  0.60275  0.88768  0.10732  1.0000
  H   H2932     1.0  0.83385  0.81817  0.05894  1.0000
  C   C1715     1.0  0.86006  0.92723  0.81284  1.0000
  H   H2933     1.0  0.73813  0.82600  0.93938  1.0000
  S   S494      1.0  0.83189  0.94991  0.03066  1.0000
  H   H2934     1.0  0.86860  0.81146  0.01058  1.0000
  C   C1716     1.0  0.85018  0.90670  0.72237  1.0000
  C   C1717     1.0  0.85350  0.79197  0.71185  1.0000
  H   H2935     1.0  0.50471  0.81784  0.08676  1.0000
  H   H2936     1.0  0.86341  0.93496  0.84818  1.0000
  H   H2937     1.0  0.71933  0.89394  0.10505  1.0000
  H   H2938     1.0  0.87306  0.90234  0.13918  1.0000
  H   H2939     1.0  0.50695  0.89268  0.16106  1.0000
  H   H2940     1.0  0.72105  0.80975  0.86414  1.0000
  C   C1718     1.0  0.59350  0.83931  0.16559  1.0000
  S   S495      1.0  0.71322  0.80797  0.07113  1.0000
  C   C1719     1.0  0.67374  0.83674  0.83875  1.0000
  H   H2941     1.0  0.91349  0.92255  0.90339  1.0000
  H   H2942     1.0  0.56138  0.92919  0.96585  1.0000
  Fe  Fe244     1.0  0.63455  0.93010  0.85515  1.0000
  C   C1720     1.0  0.56386  0.88041  0.13023  1.0000
  H   H2943     1.0  0.92396  0.86607  0.81037  1.0000
  H   H2944     1.0  0.60619  0.76565  0.06417  1.0000
  H   H2945     1.0  0.91603  0.92979  0.72250  1.0000
  Fe  Fe245     1.0  0.96307  0.87578  0.93975  1.0000
  H   H2946     1.0  0.62085  0.72341  0.18061  1.0000
  H   H2947     1.0  0.49040  0.95577  0.11039  1.0000
  H   H2948     1.0  0.92858  0.78432  0.18896  1.0000
  H   H2949     1.0  0.93049  0.85857  0.15213  1.0000
  H   H2950     1.0  0.53800  0.73196  0.79278  1.0000
  H   H2951     1.0  0.47353  0.83373  0.93452  1.0000
  C   C1721     1.0  0.48931  0.79815  0.09257  1.0000
  C   C1722     1.0  0.75311  0.87369  0.15217  1.0000
  C   C1723     1.0  0.70689  0.74283  0.93365  1.0000
  C   C1724     1.0  0.96736  0.78976  0.99361  1.0000
  C   C1725     1.0  0.65835  0.81877  0.18473  1.0000
  H   H2952     1.0  0.92024  0.92158  0.17813  1.0000
  Fe  Fe246     1.0  0.57424  0.72330  0.01812  1.0000
  H   H2953     1.0  0.49453  0.83293  0.73339  1.0000
  H   H2954     1.0  0.85117  0.72727  0.14074  1.0000
  H   H2955     1.0  0.83770  0.77415  0.71087  1.0000
  C   C1726     1.0  0.85134  0.75278  0.18806  1.0000
  N   N124      1.0  0.87516  0.72845  0.19290  1.0000
  H   H2956     1.0  0.87450  0.84189  0.19550  1.0000
  H   H2957     1.0  0.69780  0.86895  0.70218  1.0000
  C   C1727     1.0  0.87488  0.86023  0.19025  1.0000
  H   H2958     1.0  0.95593  0.72217  0.91957  1.0000
  H   H2959     1.0  0.55429  0.87814  0.17812  1.0000
  H   H2960     1.0  0.61962  0.89399  0.18561  1.0000
  H   H2961     1.0  0.52261  0.74502  0.71509  1.0000
  H   H2962     1.0  0.78432  0.82721  0.19542  1.0000
  H   H2963     1.0  0.88295  0.75165  0.25022  1.0000
  C   C1728     1.0  0.93730  0.87101  0.60944  1.0000
  S   S496      1.0  0.67333  0.82208  0.52926  1.0000
  C   C1729     1.0  0.47721  0.78711  0.33491  1.0000
  C   C1730     1.0  0.75896  0.77478  0.35965  1.0000
  H   H2964     1.0  0.59097  0.79927  0.29499  1.0000
  C   C1731     1.0  0.94949  0.79605  0.43134  1.0000
  H   H2965     1.0  0.76411  0.83674  0.39274  1.0000
  C   C1732     1.0  0.59659  0.88993  0.44279  1.0000
  C   C1733     1.0  0.74710  0.75475  0.28632  1.0000
  H   H2966     1.0  0.83339  0.83676  0.24578  1.0000
  S   S497      1.0  0.94094  0.77167  0.59410  1.0000
  N   N125      1.0  0.48172  0.78500  0.56202  1.0000
  H   H2967     1.0  0.73221  0.79274  0.27824  1.0000
  C   C1734     1.0  0.49927  0.92181  0.47301  1.0000
  H   H2968     1.0  0.74263  0.86011  0.40625  1.0000
  H   H2969     1.0  0.68930  0.89271  0.69160  1.0000
  H   H2970     1.0  0.65466  0.73682  0.24337  1.0000
  H   H2971     1.0  0.75710  0.85271  0.54316  1.0000
  C   C1735     1.0  0.81343  0.80427  0.58147  1.0000
  S   S498      1.0  0.78256  0.79286  0.38585  1.0000
  C   C1736     1.0  0.66839  0.75506  0.60371  1.0000
  H   H2972     1.0  0.82392  0.78170  0.63617  1.0000
  S   S499      1.0  0.95998  0.94275  0.40519  1.0000
  H   H2973     1.0  0.95506  0.73161  0.41984  1.0000
  H   H2974     1.0  0.65450  0.78464  0.46880  1.0000
  C   C1737     1.0  0.96458  0.85221  0.30132  1.0000
  H   H2975     1.0  0.89070  0.83603  0.58330  1.0000
  S   S500      1.0  0.89871  0.80517  0.24448  1.0000
  N   N126      1.0  0.77161  0.86244  0.44377  1.0000
  C   C1738     1.0  0.86393  0.74615  0.61979  1.0000
  H   H2976     1.0  0.95453  0.82698  0.60052  1.0000
  H   H2977     1.0  0.76128  0.83108  0.28688  1.0000
  S   S501      1.0  0.94280  0.90058  0.56683  1.0000
  C   C1739     1.0  0.57556  0.78328  0.56746  1.0000
  H   H2978     1.0  0.70023  0.94074  0.63568  1.0000
  H   H2979     1.0  0.48186  0.72022  0.19798  1.0000
  H   H2980     1.0  0.54717  0.75629  0.53759  1.0000
  C   C1740     1.0  0.59647  0.76094  0.60042  1.0000
  H   H2981     1.0  0.90145  0.73731  0.24076  1.0000
  H   H2982     1.0  0.73149  0.88756  0.45115  1.0000
  H   H2983     1.0  0.88046  0.94471  0.65767  1.0000
  C   C1741     1.0  0.51798  0.82855  0.55972  1.0000
  H   H2984     1.0  0.56298  0.79078  0.58235  1.0000
  H   H2985     1.0  0.63042  0.83412  0.29654  1.0000
  H   H2986     1.0  0.96239  0.86857  0.53547  1.0000
  S   S502      1.0  0.84013  0.92237  0.54474  1.0000
  C   C1742     1.0  0.93871  0.84021  0.34086  1.0000
  H   H2987     1.0  0.86976  0.80320  0.59271  1.0000
  H   H2988     1.0  0.74882  0.74194  0.60861  1.0000
  S   S503      1.0  0.68422  0.85506  0.23094  1.0000
  H   H2989     1.0  0.70075  0.76690  0.23529  1.0000
  C   C1743     1.0  0.64765  0.74692  0.21696  1.0000
  Fe  Fe247     1.0  0.54715  0.75107  0.30722  1.0000
  H   H2990     1.0  0.54388  0.81295  0.24771  1.0000
  C   C1744     1.0  0.76621  0.77061  0.30505  1.0000
  Fe  Fe248     1.0  0.66424  0.84153  0.45655  1.0000
  H   H2991     1.0  0.94387  0.75308  0.49197  1.0000
  C   C1745     1.0  0.73020  0.80260  0.23766  1.0000
  H   H2992     1.0  0.58003  0.76420  0.50107  1.0000
  S   S504      1.0  0.79486  0.74085  0.46294  1.0000
  H   H2993     1.0  0.86484  0.91444  0.34606  1.0000
  C   C1746     1.0  0.92265  0.79047  0.46971  1.0000
  H   H2994     1.0  0.56213  0.78171  0.68399  1.0000
  H   H2995     1.0  0.52770  0.94300  0.37629  1.0000
  C   C1747     1.0  0.85179  0.81589  0.68826  1.0000
  H   H2996     1.0  0.51279  0.78166  0.51039  1.0000
  H   H2997     1.0  0.76532  0.90587  0.40449  1.0000
  N   N127      1.0  0.73775  0.82973  0.23310  1.0000
  H   H2998     1.0  0.54858  0.72672  0.69160  1.0000
  H   H2999     1.0  0.53486  0.83398  0.21589  1.0000
  H   H3000     1.0  0.49547  0.85406  0.42125  1.0000
  H   H3001     1.0  0.69873  0.82126  0.27452  1.0000
  H   H3002     1.0  0.81291  0.90646  0.29223  1.0000
  C   C1748     1.0  0.89344  0.74677  0.21572  1.0000
  H   H3003     1.0  0.75429  0.89342  0.48759  1.0000
  H   H3004     1.0  0.51685  0.84962  0.31913  1.0000
  H   H3005     1.0  0.61593  0.74242  0.63065  1.0000
  C   C1749     1.0  0.87596  0.73301  0.63552  1.0000
  C   C1750     1.0  0.56803  0.77171  0.51924  1.0000
  S   S505      1.0  0.51667  0.80425  0.37577  1.0000
  H   H3006     1.0  0.51424  0.92100  0.48901  1.0000
  H   H3007     1.0  0.81061  0.78960  0.55966  1.0000
  H   H3008     1.0  0.70081  0.96391  0.25809  1.0000
  C   C1751     1.0  0.73513  0.72466  0.60093  1.0000
  C   C1752     1.0  0.65398  0.75132  0.51944  1.0000
  H   H3009     1.0  0.60487  0.92743  0.44402  1.0000
  C   C1753     1.0  0.74311  0.81234  0.48752  1.0000
  C   C1754     1.0  0.75027  0.88924  0.44734  1.0000
  H   H3010     1.0  0.87778  0.90788  0.54321  1.0000
  C   C1755     1.0  0.63207  0.82395  0.26607  1.0000
  C   C1756     1.0  0.76756  0.94194  0.28807  1.0000
  C   C1757     1.0  0.71315  0.72828  0.59222  1.0000
  C   C1758     1.0  0.49892  0.81414  0.53080  1.0000
  C   C1759     1.0  0.82369  0.79965  0.63248  1.0000
  H   H3011     1.0  0.78459  0.83622  0.42997  1.0000
  H   H3012     1.0  0.81275  0.88304  0.38800  1.0000
  H   H3013     1.0  0.77854  0.89100  0.32278  1.0000
  H   H3014     1.0  0.83393  0.73764  0.22972  1.0000
  S   S506      1.0  0.96576  0.73625  0.62489  1.0000
  C   C1760     1.0  0.61123  0.79149  0.22428  1.0000
  H   H3015     1.0  0.69464  0.92562  0.50010  1.0000
  C   C1761     1.0  0.57461  0.91070  0.40982  1.0000
  C   C1762     1.0  0.91853  0.82512  0.32412  1.0000
  C   C1763     1.0  0.93536  0.72790  0.44081  1.0000
  Fe  Fe249     1.0  0.94341  0.91606  0.35705  1.0000
  H   H3016     1.0  0.83693  0.91822  0.43085  1.0000
  H   H3017     1.0  0.78361  0.72694  0.22731  1.0000
  C   C1764     1.0  0.59312  0.91098  0.43339  1.0000
  H   H3018     1.0  0.47812  0.78283  0.65511  1.0000
  H   H3019     1.0  0.91003  0.78831  0.44323  1.0000
  H   H3020     1.0  0.86453  0.76867  0.19998  1.0000
  H   H3021     1.0  0.51076  0.81941  0.48192  1.0000
  C   C1765     1.0  0.49666  0.88797  0.43401  1.0000
  H   H3022     1.0  0.52820  0.84975  0.53452  1.0000
  C   C1766     1.0  0.65646  0.83106  0.22653  1.0000
  H   H3023     1.0  0.52684  0.87016  0.63940  1.0000
  C   C1767     1.0  0.60365  0.80413  0.64848  1.0000
  H   H3024     1.0  0.91020  0.86743  0.68995  1.0000
  H   H3025     1.0  0.94107  0.79463  0.33272  1.0000
  H   H3026     1.0  0.63263  0.92671  0.51241  1.0000
  S   S507      1.0  0.81333  0.95691  0.30369  1.0000
  H   H3027     1.0  0.91482  0.74390  0.47872  1.0000
  C   C1768     1.0  0.73395  0.94658  0.34803  1.0000
  C   C1769     1.0  0.48543  0.74475  0.58543  1.0000
  H   H3028     1.0  0.49278  0.88962  0.58155  1.0000
  H   H3029     1.0  0.78471  0.88415  0.50142  1.0000
  C   C1770     1.0  0.87458  0.90874  0.50079  1.0000
  Fe  Fe250     1.0  0.92612  0.73019  0.64565  1.0000
  H   H3030     1.0  0.87213  0.86270  0.60518  1.0000
  C   C1771     1.0  0.78356  0.95449  0.31725  1.0000
  S   S508      1.0  0.48286  0.72636  0.44205  1.0000
  Fe  Fe251     1.0  0.81251  0.72961  0.39067  1.0000
  C   C1772     1.0  0.72076  0.74239  0.32332  1.0000
  H   H3031     1.0  0.67126  0.96575  0.20592  1.0000
  C   C1773     1.0  0.56027  0.88969  0.39388  1.0000
  C   C1774     1.0  0.54862  0.82759  0.20384  1.0000
  C   C1775     1.0  0.58125  0.86840  0.42959  1.0000
  C   C1776     1.0  0.77519  0.96406  0.35974  1.0000
  H   H3032     1.0  0.64054  0.91497  0.60476  1.0000
  C   C1777     1.0  0.52463  0.74025  0.67295  1.0000
  C   C1778     1.0  0.92872  0.82452  0.68259  1.0000
  Fe  Fe252     1.0  0.67884  0.89627  0.38628  1.0000
  S   S509      1.0  0.56851  0.93592  0.40058  1.0000
  C   C1779     1.0  0.56331  0.86850  0.40451  1.0000
  C   C1780     1.0  0.66887  0.89265  0.58464  1.0000
  C   C1781     1.0  0.57932  0.85913  0.23373  1.0000
  C   C1782     1.0  0.65838  0.74034  0.56922  1.0000
  H   H3033     1.0  0.76812  0.86190  0.24453  1.0000
  H   H3034     1.0  0.51325  0.94535  0.61604  1.0000
  H   H3035     1.0  0.89411  0.87087  0.28140  1.0000
  H   H3036     1.0  0.47261  0.80644  0.45334  1.0000
  C   C1783     1.0  0.76300  0.84260  0.24221  1.0000
  H   H3037     1.0  0.70888  0.72307  0.55295  1.0000
  C   C1784     1.0  0.90691  0.87225  0.23807  1.0000
  H   H3038     1.0  0.78320  0.83309  0.53406  1.0000
  H   H3039     1.0  0.90236  0.85220  0.24654  1.0000
  H   H3040     1.0  0.50355  0.87717  0.67429  1.0000
  Fe  Fe253     1.0  0.67015  0.85781  0.32248  1.0000
  H   H3041     1.0  0.77415  0.93479  0.25468  1.0000
  C   C1785     1.0  0.79461  0.88843  0.32614  1.0000
  C   C1786     1.0  0.65638  0.93366  0.56725  1.0000
  H   H3042     1.0  0.79867  0.86045  0.55555  1.0000
  C   C1787     1.0  0.49722  0.80847  0.33928  1.0000
  H   H3043     1.0  0.79409  0.80157  0.60204  1.0000
  Fe  Fe254     1.0  0.86049  0.78386  0.32398  1.0000
  H   H3044     1.0  0.48880  0.92695  0.50695  1.0000
  S   S510      1.0  0.63816  0.82391  0.40812  1.0000
  C   C1788     1.0  0.66846  0.79107  0.54118  1.0000
  Fe  Fe255     1.0  0.94023  0.77676  0.68368  1.0000
  Fe  Fe256     1.0  0.58323  0.96296  0.45098  1.0000
  Fe  Fe257     1.0  0.80815  0.77681  0.38558  1.0000
  H   H3045     1.0  0.60212  0.89080  0.26044  1.0000
  H   H3046     1.0  0.50171  0.94914  0.39260  1.0000
  H   H3047     1.0  0.72593  0.80569  0.47444  1.0000
  H   H3048     1.0  0.90518  0.90321  0.45952  1.0000
  H   H3049     1.0  0.67432  0.83184  0.69044  1.0000
  H   H3050     1.0  0.92558  0.80709  0.48420  1.0000
  H   H3051     1.0  0.73870  0.96688  0.51294  1.0000
  H   H3052     1.0  0.92694  0.94260  0.60585  1.0000
  H   H3053     1.0  0.60987  0.75094  0.30748  1.0000
  H   H3054     1.0  0.73001  0.92769  0.28212  1.0000
  C   C1789     1.0  0.71095  0.81438  0.34905  1.0000
  S   S511      1.0  0.58305  0.76564  0.22546  1.0000
  H   H3055     1.0  0.85271  0.84715  0.28984  1.0000
  C   C1790     1.0  0.89025  0.90638  0.45312  1.0000
  C   C1791     1.0  0.74264  0.93786  0.30374  1.0000
  H   H3056     1.0  0.95949  0.81541  0.39528  1.0000
  C   C1792     1.0  0.95000  0.83424  0.22746  1.0000
  S   S512      1.0  0.70165  0.93788  0.37508  1.0000
  H   H3057     1.0  0.90581  0.94310  0.56804  1.0000
  H   H3058     1.0  0.65106  0.88696  0.57491  1.0000
  H   H3059     1.0  0.62093  0.80263  0.63422  1.0000
  H   H3060     1.0  0.95217  0.75475  0.31595  1.0000
  H   H3061     1.0  0.80110  0.90356  0.39719  1.0000
  H   H3062     1.0  0.57125  0.78714  0.47946  1.0000
  S   S513      1.0  0.65445  0.88316  0.33192  1.0000
  H   H3063     1.0  0.65208  0.94825  0.57669  1.0000
  H   H3064     1.0  0.47351  0.90837  0.38988  1.0000
  C   C1793     1.0  0.94510  0.83598  0.62023  1.0000
  H   H3065     1.0  0.78657  0.77961  0.27721  1.0000
  H   H3066     1.0  0.70440  0.79376  0.35804  1.0000
  S   S514      1.0  0.80210  0.94858  0.47572  1.0000
  C   C1794     1.0  0.93522  0.77486  0.36048  1.0000
  H   H3067     1.0  0.88434  0.73619  0.66973  1.0000
  C   C1795     1.0  0.79344  0.85452  0.51779  1.0000
  H   H3068     1.0  0.48044  0.88881  0.22017  1.0000
  H   H3069     1.0  0.58288  0.84684  0.26638  1.0000
  C   C1796     1.0  0.50147  0.83313  0.31515  1.0000
  C   C1797     1.0  0.65885  0.77663  0.50568  1.0000
  C   C1798     1.0  0.85347  0.74267  0.57474  1.0000
  C   C1799     1.0  0.60019  0.88782  0.21741  1.0000
  C   C1800     1.0  0.50220  0.93738  0.66493  1.0000
  S   S515      1.0  0.54632  0.76301  0.38892  1.0000
  N   N128      1.0  0.94940  0.77639  0.40351  1.0000
  H   H3070     1.0  0.75275  0.75154  0.24411  1.0000
  C   C1801     1.0  0.67689  0.95710  0.65693  1.0000
  H   H3071     1.0  0.61509  0.77953  0.57039  1.0000
  H   H3072     1.0  0.57897  0.72601  0.36902  1.0000
  H   H3073     1.0  0.86335  0.75950  0.64153  1.0000
  H   H3074     1.0  0.54731  0.72888  0.61828  1.0000
  H   H3075     1.0  0.51238  0.88941  0.44993  1.0000
  H   H3076     1.0  0.52404  0.75409  0.63750  1.0000
  H   H3077     1.0  0.92395  0.72170  0.41221  1.0000
  C   C1802     1.0  0.70280  0.96725  0.52249  1.0000
  S   S516      1.0  0.59327  0.95061  0.52997  1.0000
  H   H3078     1.0  0.53340  0.82411  0.55495  1.0000
  H   H3079     1.0  0.73765  0.81435  0.53255  1.0000
  S   S517      1.0  0.84685  0.79931  0.39162  1.0000
  C   C1803     1.0  0.93513  0.88890  0.23322  1.0000
  C   C1804     1.0  0.85592  0.91383  0.49182  1.0000
  C   C1805     1.0  0.71731  0.82947  0.28183  1.0000
  N   N129      1.0  0.84970  0.82133  0.62615  1.0000
  H   H3080     1.0  0.59544  0.80094  0.54202  1.0000
  H   H3081     1.0  0.72693  0.76675  0.43699  1.0000
  Fe  Fe258     1.0  0.51387  0.76704  0.37782  1.0000
  H   H3082     1.0  0.55185  0.85219  0.39296  1.0000
  Fe  Fe259     1.0  0.57100  0.96524  0.57917  1.0000
  C   C1806     1.0  0.77585  0.86386  0.50256  1.0000
  H   H3083     1.0  0.47703  0.73718  0.63646  1.0000
  S   S518      1.0  0.82249  0.76380  0.31269  1.0000
  H   H3084     1.0  0.60796  0.73898  0.38402  1.0000
  C   C1807     1.0  0.71357  0.74717  0.37702  1.0000
  H   H3085     1.0  0.73068  0.84797  0.48719  1.0000
  H   H3086     1.0  0.78186  0.73502  0.60475  1.0000
  Fe  Fe260     1.0  0.83481  0.76225  0.46341  1.0000
  H   H3087     1.0  0.56749  0.83427  0.61226  1.0000
  H   H3088     1.0  0.85331  0.85412  0.56110  1.0000
  H   H3089     1.0  0.94624  0.77500  0.26671  1.0000
  H   H3090     1.0  0.89210  0.82986  0.48589  1.0000
  C   C1808     1.0  0.47991  0.87209  0.57371  1.0000
  H   H3091     1.0  0.48735  0.82318  0.52900  1.0000
  H   H3092     1.0  0.47356  0.76796  0.35462  1.0000
  Fe  Fe261     1.0  0.62453  0.85093  0.42113  1.0000
  H   H3093     1.0  0.88048  0.85075  0.49298  1.0000
  H   H3094     1.0  0.88783  0.90213  0.23158  1.0000
  H   H3095     1.0  0.72756  0.82361  0.36293  1.0000
  S   S519      1.0  0.64794  0.86580  0.47667  1.0000
  C   C1809     1.0  0.65290  0.93248  0.50625  1.0000
  C   C1810     1.0  0.57785  0.77794  0.66931  1.0000
  N   N130      1.0  0.68263  0.94018  0.56805  1.0000
  H   H3096     1.0  0.47415  0.76868  0.49172  1.0000
  H   H3097     1.0  0.61007  0.75934  0.67735  1.0000
  N   N131      1.0  0.57477  0.76544  0.62200  1.0000
  H   H3098     1.0  0.56083  0.85643  0.26274  1.0000
  C   C1811     1.0  0.60956  0.80407  0.26532  1.0000
  H   H3099     1.0  0.52709  0.96285  0.41955  1.0000
  H   H3100     1.0  0.70478  0.96820  0.47461  1.0000
  C   C1812     1.0  0.58842  0.85305  0.66421  1.0000
  C   C1813     1.0  0.92410  0.82260  0.26686  1.0000
  S   S520      1.0  0.51614  0.75716  0.29315  1.0000
  H   H3101     1.0  0.69484  0.81474  0.37957  1.0000
  H   H3102     1.0  0.93727  0.94886  0.52560  1.0000
  H   H3103     1.0  0.60540  0.86779  0.62361  1.0000
  C   C1814     1.0  0.79574  0.88487  0.39057  1.0000
  H   H3104     1.0  0.50764  0.90189  0.38560  1.0000
  H   H3105     1.0  0.49989  0.73932  0.57139  1.0000
  H   H3106     1.0  0.48892  0.85541  0.26750  1.0000
  H   H3107     1.0  0.87268  0.79540  0.68582  1.0000
  C   C1815     1.0  0.67354  0.78031  0.58954  1.0000
  C   C1816     1.0  0.51460  0.94522  0.41137  1.0000
  C   C1817     1.0  0.68968  0.92179  0.55011  1.0000
  H   H3108     1.0  0.74748  0.79687  0.49497  1.0000
  H   H3109     1.0  0.81183  0.86303  0.47805  1.0000
  C   C1818     1.0  0.87553  0.83061  0.51268  1.0000
  H   H3110     1.0  0.67162  0.74670  0.64252  1.0000
  H   H3111     1.0  0.61067  0.89008  0.46167  1.0000
  H   H3112     1.0  0.96098  0.79869  0.46109  1.0000
  H   H3113     1.0  0.54655  0.88962  0.37383  1.0000
  C   C1819     1.0  0.93560  0.75079  0.45595  1.0000
  Fe  Fe262     1.0  0.96003  0.91045  0.46558  1.0000
  H   H3114     1.0  0.68744  0.77891  0.28563  1.0000
  S   S521      1.0  0.90923  0.91046  0.33384  1.0000
  H   H3115     1.0  0.60386  0.81093  0.68770  1.0000
  C   C1820     1.0  0.48585  0.83644  0.28557  1.0000
  H   H3116     1.0  0.74609  0.72583  0.55535  1.0000
  H   H3117     1.0  0.65597  0.91800  0.49212  1.0000
  C   C1821     1.0  0.47564  0.92868  0.68694  1.0000
  H   H3118     1.0  0.66580  0.95167  0.46826  1.0000
  S   S522      1.0  0.58334  0.84074  0.44639  1.0000
  H   H3119     1.0  0.47523  0.86202  0.39111  1.0000
  C   C1822     1.0  0.60161  0.74700  0.65173  1.0000
  H   H3120     1.0  0.50732  0.72073  0.68516  1.0000
  C   C1823     1.0  0.70259  0.78484  0.24068  1.0000
  C   C1824     1.0  0.75049  0.96039  0.37455  1.0000
  H   H3121     1.0  0.72308  0.84952  0.27879  1.0000
  C   C1825     1.0  0.48204  0.86106  0.42967  1.0000
  H   H3122     1.0  0.66636  0.91851  0.66592  1.0000
  H   H3123     1.0  0.59258  0.74909  0.57097  1.0000
  C   C1826     1.0  0.87189  0.82245  0.58092  1.0000
  C   C1827     1.0  0.76706  0.83749  0.43620  1.0000
  C   C1828     1.0  0.68187  0.93815  0.63221  1.0000
  H   H3124     1.0  0.93603  0.88210  0.27852  1.0000
  C   C1829     1.0  0.85170  0.91476  0.43714  1.0000
  H   H3125     1.0  0.91966  0.74439  0.32301  1.0000
  H   H3126     1.0  0.72002  0.74917  0.57892  1.0000
  C   C1830     1.0  0.85373  0.72480  0.54803  1.0000
  Fe  Fe263     1.0  0.83868  0.95397  0.48540  1.0000
  H   H3127     1.0  0.67671  0.88123  0.56896  1.0000
  H   H3128     1.0  0.79360  0.87240  0.31146  1.0000
  C   C1831     1.0  0.51899  0.87400  0.68018  1.0000
  H   H3129     1.0  0.64977  0.76356  0.23035  1.0000
  C   C1832     1.0  0.94947  0.85939  0.58347  1.0000
  H   H3130     1.0  0.91234  0.77323  0.51250  1.0000
  H   H3131     1.0  0.66339  0.88674  0.63490  1.0000
  H   H3132     1.0  0.84792  0.86954  0.24127  1.0000
  H   H3133     1.0  0.61248  0.74291  0.21279  1.0000
  H   H3134     1.0  0.58643  0.82127  0.20403  1.0000
  H   H3135     1.0  0.66743  0.96242  0.31853  1.0000
  C   C1833     1.0  0.56691  0.83409  0.65778  1.0000
  H   H3136     1.0  0.69326  0.73813  0.40516  1.0000
  C   C1834     1.0  0.49930  0.77460  0.55901  1.0000
  S   S523      1.0  0.94039  0.88282  0.42228  1.0000
  H   H3137     1.0  0.81188  0.83435  0.65906  1.0000
  C   C1835     1.0  0.93876  0.76148  0.31453  1.0000
  C   C1836     1.0  0.86729  0.91239  0.38952  1.0000
  C   C1837     1.0  0.74802  0.86374  0.44574  1.0000
  H   H3138     1.0  0.89872  0.81570  0.35548  1.0000
  H   H3139     1.0  0.93416  0.84190  0.38527  1.0000
  H   H3140     1.0  0.82596  0.82342  0.54398  1.0000
  H   H3141     1.0  0.85864  0.81697  0.50468  1.0000
  C   C1838     1.0  0.85113  0.85334  0.24516  1.0000
  S   S524      1.0  0.69715  0.87339  0.37014  1.0000
  C   C1839     1.0  0.88717  0.90911  0.39674  1.0000
  C   C1840     1.0  0.60002  0.73330  0.34917  1.0000
  C   C1841     1.0  0.73265  0.76359  0.39478  1.0000
  C   C1842     1.0  0.92044  0.85903  0.67104  1.0000
  C   C1843     1.0  0.92644  0.95243  0.56252  1.0000
  H   H3142     1.0  0.50799  0.82480  0.60856  1.0000
  H   H3143     1.0  0.70757  0.92488  0.55749  1.0000
  H   H3144     1.0  0.64596  0.74006  0.49299  1.0000
  S   S525      1.0  0.85164  0.74878  0.39612  1.0000
  H   H3145     1.0  0.91392  0.76481  0.38694  1.0000
  S   S526      1.0  0.84113  0.76159  0.55143  1.0000
  H   H3146     1.0  0.51198  0.78184  0.58465  1.0000
  H   H3147     1.0  0.60552  0.81931  0.61074  1.0000
  C   C1844     1.0  0.85283  0.84755  0.60792  1.0000
  H   H3148     1.0  0.65764  0.95398  0.66057  1.0000
  H   H3149     1.0  0.68085  0.79127  0.61734  1.0000
  H   H3150     1.0  0.80825  0.79408  0.67691  1.0000
  C   C1845     1.0  0.54936  0.73953  0.65056  1.0000
  Fe  Fe264     1.0  0.51588  0.72153  0.44593  1.0000
  H   H3151     1.0  0.84481  0.72124  0.51499  1.0000
  H   H3152     1.0  0.58410  0.72828  0.68446  1.0000
  H   H3153     1.0  0.53529  0.89208  0.67888  1.0000
  S   S527      1.0  0.54715  0.94545  0.68082  1.0000
  H   H3154     1.0  0.49131  0.86470  0.55156  1.0000
  H   H3155     1.0  0.96523  0.95908  0.67701  1.0000
  H   H3156     1.0  0.83426  0.86859  0.62942  1.0000
  H   H3157     1.0  0.84628  0.89892  0.68716  1.0000
  H   H3158     1.0  0.81222  0.96536  0.67832  1.0000
  N   N132      1.0  0.48064  0.89600  0.47107  1.0000
  C   C1846     1.0  0.83186  0.84965  0.65091  1.0000
  H   H3159     1.0  0.94887  0.88680  0.19959  1.0000
  H   H3160     1.0  0.94198  0.90964  0.22188  1.0000
  H   H3161     1.0  0.80430  0.85728  0.20216  1.0000
  H   H3162     1.0  0.86908  0.83282  0.68811  1.0000
  H   H3163     1.0  0.89981  0.96871  0.50188  1.0000
  H   H3164     1.0  0.74387  0.96735  0.40822  1.0000
  C   C1847     1.0  0.61964  0.72970  0.22073  1.0000
  H   H3165     1.0  0.69863  0.79379  0.20298  1.0000
  C   C1848     1.0  0.97021  0.84858  0.24540  1.0000
  S   S528      1.0  0.69671  0.72002  0.30471  1.0000
  H   H3166     1.0  0.59428  0.90085  0.19738  1.0000
  H   H3167     1.0  0.83402  0.84924  0.69550  1.0000
  H   H3168     1.0  0.74371  0.80292  0.19750  1.0000
