data_image0
_chemical_formula_structural       HSHSFeHSCSHNFeCHNH3CH2CFeSC6H11C2H4SH6CH2C2H4CHCNCHFeH3FeCSC4H2SCH2SFeH2SCSFeHSCH6CH3C3H6SH3SHCHSCH2FeH4C2HFeS2FeS2FeSFeS3FeS2FeS2FeCFeS3FeS2FeS2FeSFeS5C6H4CHCH4C6H4C6H4C6H4C6H5CHCNCH2CNHC2SC8H7SH5C2H2CH4NC8H21CH3C2NC8H20CH3CHCHSNHSH3CH4NCHCH2CH3CHFeC2HNC3HSCH5CH6CH2CH2C2H4CH3FeH2SH2CHC2H2CH4FeH5FeCH2C3H3CH3CH3CH4CH4C2HCHSHC2H2FeS2CSCFeSFeCSH2CHCHC2H2C2SHC6H6SHCHC3HSNC8H22SCH2NCHC4HSH5NC8H21CHSCFeH4C2FeSCH3CHCSHCFeH2C2H5SC2H2C5H2CSCH7SH3FeS2FeS2FeS2FeS2FeSFeS3CFeS2FeSFeS3H2CHCH5S2C4HCHSH3C3H3NC5H2C6H4CHFeC6H4C6H4C3H3CH2CH3C2HC2HCH3CNC8H20NC5H10CSCH4CHCHCH2CH3C2HCH6CHCH2NCFeCH4SH2CHNHCH5C2H2C3H6CHS2H2FeC3SCH6CH3CSCHC2HCH3FeH2CH2C3H2CH2C2HCHCH2C2HC2H2NHCH4CH2SC2HCHNCSHCH3C2HCHCH5CH3CH4CH5CH2FeSHCHFeHFeS2FeS3HFeS3C4H4CH2C2HC2HC2HC2H2CHC6H6CH4CHCH2CH3CH2C2H7CHSC2SH3FeH2C2H2FeH3CSHCSH3CH6C2HCHSHC2SCH2SH5N2C5HCH3CH8NH8NH2C2HFeC3H6C2SH5CH3SH3CHNHCFeCHFeH3C2HCHSCH7FeNHSH2C2S2FeH5C4HFeS2FeSHFe2S3C2FeS2H4SCHCSFeS2C3SFeCH2SHCH2SHC3H2CH3C4SHC6H4FeC3NH4C2HCH3C2H7C2HCH2C5H5C6H4CFeH3SH6NC2HCHC2H6C3H3C2SC2SHCSH2NC8H20C2H3CSC3HS2CHNHFeSH6CH3CHCHSCH2C2H2CH5NCH3NHSC2FeH2CFeHSH3SH2CH3CFeC2HCHCHFeH3CFeH4NC2HSFeCHSH2SHCH3C3HSH2SHCHS2CHFeHCHCH3C2HCHCH2FeHSH2CHCFeCH4CHCHC5H2SCH2C3H3CH2SHCH2SCHCHCHNHCFeHCHFeSHCH6CH2SFeHCH6FeHC2HCH4CSH3C2H3CNH2C2H4CSCH2CFeCHC2H2CH2NHCH5CH2CH4NCHC3H3C2Fe2S2FeS2FeS2FeS2FeSFeCS2H3FeSHSHSHCH2SCFeH2C2HC4HS2CHSHC6H4C6H4C6H3NC8H20CH6CHC2HCHCH2CH8CH4NHC2HCSHCSH2C2FeH7SH2CHNHC2HNC8H20C2HNCHCH6C2H4CFeH4NC8H13CH3FeHCHC2H2CHFeCFeHSHC4HC2H2CH3CNH3SC2HCSH2CH6C2H12CHC2H2CH2NCHSH3CNSHCH6SHC3HNCHCS2H2C2HC2H2SH2CFeSC2H2CHSCH2CH2CH4SHSHCFeCH3CHC3SCH3NSCHCSCH5FeHCHCHCSHSH3S2HCFeH5FeS2FeCFeNHSHC2H2CH3CSC6H4C2FeHC2H2C3NCH6C2HCHCH3C3H2CHNCH3NH3SC2H4CH14C4H4CH2CHCHSH2CH3FeH4CH3C2HNH9CHC2H4SHCHCH2CHC2HCSH2C3FeS2FeS2FeSFeS3FeSHFeS2FeSFeS2HS2FeSFeSHCSC5H2CHC4H3C4HCH2SNC4H3C6H4NHCHS2CHSC6H2CHCHC2H3CSCHCH4CHCH4CH3C4H9FeH3CHCH2CHNCH2CH3C2SHCH9CH3C2SHCH4CHCFeHSH2FeH3NC8H20CH7SFeHCHSHCHC3HNC8H18SCFeNCHCHFeCHCHFeCH7C2H3C4SHCH3C2HCHC4H4C5NHCSH3CSH8CH2CH3SC2HC2H3NH2CH3SHCH2NHCH2CH3CH6SHC2HSCFeHCH3C2HCHCH2FeHSCHS2H2CHC3H4SHCH4CH2CH2SCHFeH5SH3C2H2CH2CFeH2C5HCFeSH2FeSH3FeH2NH3FeHCH3C2HNC2H4S2HCH2CHCH2SC3HC2FeHCHCSCH3SH4
_chemical_formula_sum              "H1536 S256 Fe128 C896 N64"
_cell_length_a       50.4342
_cell_length_b       52.0474
_cell_length_c       54.7348
_cell_angle_alpha    79.9839
_cell_angle_beta     77.8939
_cell_angle_gamma    75.1324

_space_group_name_H-M_alt    "P 1"
_space_group_IT_number       1

loop_
  _space_group_symop_operation_xyz
  'x, y, z'

loop_
  _atom_site_type_symbol
  _atom_site_label
  _atom_site_symmetry_multiplicity
  _atom_site_fract_x
  _atom_site_fract_y
  _atom_site_fract_z
  _atom_site_occupancy
  H   H1        1.0  0.34288  0.22690  0.29134  1.0000
  S   S1        1.0  0.44371  0.21310  0.23605  1.0000
  H   H2        1.0  0.08944  0.48193  0.17871  1.0000
  S   S2        1.0  0.41224  0.22287  0.30623  1.0000
  Fe  Fe1       1.0  0.06552  0.40944  0.25011  1.0000
  H   H3        1.0  0.15332  0.43923  0.10679  1.0000
  S   S3        1.0  0.44416  0.14455  0.21804  1.0000
  C   C1        1.0  0.17529  0.39850  0.27065  1.0000
  S   S4        1.0  0.02870  0.48480  0.09298  1.0000
  H   H4        1.0  0.44547  0.01165  0.14084  1.0000
  N   N1        1.0  0.20619  0.37949  0.30542  1.0000
  Fe  Fe2       1.0  0.09465  0.42499  0.28677  1.0000
  C   C2        1.0  0.01440  0.41673  0.20734  1.0000
  H   H5        1.0  0.35476  0.12366  0.31114  1.0000
  N   N2        1.0  0.09799  0.45323  0.13649  1.0000
  H   H6        1.0  0.40836  0.16805  0.30793  1.0000
  H   H7        1.0  0.39032  0.12416  0.24479  1.0000
  H   H8        1.0  0.08208  0.45684  0.10211  1.0000
  C   C3        1.0  0.36440  0.18606  0.28574  1.0000
  H   H9        1.0  0.38310  0.19392  0.27614  1.0000
  H   H10       1.0  0.15462  0.41741  0.14699  1.0000
  C   C4        1.0  0.01146  0.39703  0.22816  1.0000
  Fe  Fe3       1.0  0.12055  0.42561  0.23188  1.0000
  S   S5        1.0  0.16052  0.41956  0.20427  1.0000
  C   C5        1.0  0.46114  0.07376  0.26266  1.0000
  C   C6        1.0  0.44989  0.11038  0.22966  1.0000
  C   C7        1.0  0.18815  0.47255  0.14800  1.0000
  C   C8        1.0  0.18607  0.44917  0.16463  1.0000
  C   C9        1.0  0.16416  0.44962  0.18510  1.0000
  C   C10       1.0  0.14470  0.47374  0.18927  1.0000
  H   H11       1.0  0.23534  0.42239  0.29618  1.0000
  H   H12       1.0  0.20478  0.47193  0.13186  1.0000
  H   H13       1.0  0.20109  0.43057  0.16132  1.0000
  H   H14       1.0  0.13500  0.40295  0.13096  1.0000
  H   H15       1.0  0.07439  0.40718  0.14103  1.0000
  H   H16       1.0  0.10803  0.42767  0.10661  1.0000
  H   H17       1.0  0.35231  0.18670  0.27077  1.0000
  H   H18       1.0  0.21672  0.40308  0.26937  1.0000
  H   H19       1.0  0.19043  0.42107  0.29099  1.0000
  H   H20       1.0  0.17980  0.37916  0.26313  1.0000
  H   H21       1.0  0.44496  0.09890  0.19520  1.0000
  C   C11       1.0  0.10934  0.43232  0.15675  1.0000
  C   C12       1.0  0.22197  0.34035  0.27825  1.0000
  H   H22       1.0  0.09311  0.42221  0.16838  1.0000
  H   H23       1.0  0.12972  0.47368  0.13847  1.0000
  H   H24       1.0  0.42376  0.29667  0.30850  1.0000
  H   H25       1.0  0.13579  0.39256  0.16311  1.0000
  S   S6        1.0  0.10772  0.39304  0.26108  1.0000
  H   H26       1.0  0.15608  0.47303  0.09685  1.0000
  H   H27       1.0  0.35629  0.13611  0.26170  1.0000
  H   H28       1.0  0.04726  0.43685  0.13467  1.0000
  H   H29       1.0  0.39832  0.04428  0.11421  1.0000
  H   H30       1.0  0.13841  0.45006  0.29939  1.0000
  H   H31       1.0  0.37627  0.15927  0.24244  1.0000
  C   C13       1.0  0.07183  0.47130  0.14888  1.0000
  H   H32       1.0  0.23618  0.32012  0.27924  1.0000
  H   H33       1.0  0.45655  0.05026  0.20983  1.0000
  C   C14       1.0  0.45547  0.10127  0.25406  1.0000
  C   C15       1.0  0.06763  0.42433  0.12687  1.0000
  H   H34       1.0  0.03337  0.42386  0.20204  1.0000
  H   H35       1.0  0.05791  0.45933  0.16174  1.0000
  H   H36       1.0  0.05932  0.48334  0.13458  1.0000
  H   H37       1.0  0.40943  0.01718  0.15032  1.0000
  C   C16       1.0  0.45596  0.06441  0.22234  1.0000
  H   H38       1.0  0.43808  0.32341  0.31261  1.0000
  C   C17       1.0  0.37724  0.14044  0.25571  1.0000
  N   N3        1.0  0.37326  0.15779  0.29833  1.0000
  C   C18       1.0  0.14113  0.45974  0.10211  1.0000
  H   H39       1.0  0.15468  0.40172  0.28322  1.0000
  Fe  Fe4       1.0  0.48819  0.21666  0.22825  1.0000
  H   H40       1.0  0.22440  0.35004  0.25841  1.0000
  H   H41       1.0  0.42873  0.02868  0.09363  1.0000
  H   H42       1.0  0.26039  0.39180  0.30481  1.0000
  Fe  Fe5       1.0  0.44804  0.20719  0.27665  1.0000
  C   C19       1.0  0.19820  0.40111  0.28415  1.0000
  S   S7        1.0  0.49083  0.21515  0.26900  1.0000
  C   C20       1.0  0.08993  0.44091  0.11696  1.0000
  C   C21       1.0  0.42090  0.03477  0.11267  1.0000
  C   C22       1.0  0.11871  0.47013  0.12424  1.0000
  C   C23       1.0  0.44938  0.09195  0.21406  1.0000
  H   H43       1.0  0.43228  0.05007  0.11391  1.0000
  H   H44       1.0  0.12765  0.47425  0.20499  1.0000
  S   S8        1.0  0.05113  0.43837  0.27853  1.0000
  C   C24       1.0  0.42616  0.01146  0.13412  1.0000
  H   H45       1.0  0.32486  0.20273  0.30955  1.0000
  H   H46       1.0  0.47674  0.00356  0.10171  1.0000
  S   S9        1.0  0.11113  0.45619  0.25842  1.0000
  Fe  Fe6       1.0  0.46192  0.16895  0.23768  1.0000
  H   H47       1.0  0.13180  0.46076  0.08520  1.0000
  H   H48       1.0  0.06394  0.41597  0.11086  1.0000
  S   S10       1.0  0.07952  0.43906  0.21872  1.0000
  C   C25       1.0  0.13523  0.41042  0.14857  1.0000
  S   S11       1.0  0.03763  0.38347  0.24663  1.0000
  Fe  Fe7       1.0  0.06888  0.46686  0.24783  1.0000
  H   H49       1.0  0.17346  0.41456  0.25443  1.0000
  S   S12       1.0  0.46278  0.16265  0.27896  1.0000
  C   C26       1.0  0.22921  0.35702  0.29554  1.0000
  H   H50       1.0  0.11546  0.44199  0.17055  1.0000
  H   H51       1.0  0.45585  0.11527  0.26625  1.0000
  H   H52       1.0  0.20083  0.33657  0.28414  1.0000
  H   H53       1.0  0.01760  0.48229  0.20770  1.0000
  H   H54       1.0  0.47294  0.28090  0.11551  1.0000
  H   H55       1.0  0.48882  0.31371  0.08242  1.0000
  C   C27       1.0  0.39107  0.14129  0.27813  1.0000
  H   H56       1.0  0.41039  0.14864  0.27012  1.0000
  H   H57       1.0  0.24710  0.36498  0.28428  1.0000
  H   H58       1.0  0.47760  0.24831  0.13445  1.0000
  C   C28       1.0  0.46208  0.05530  0.24657  1.0000
  C   C29       1.0  0.34587  0.20681  0.30269  1.0000
  C   C30       1.0  0.48599  0.26658  0.12813  1.0000
  H   H59       1.0  0.39463  0.99848  0.10511  1.0000
  H   H60       1.0  0.39813  0.11999  0.28607  1.0000
  H   H61       1.0  0.48821  0.23256  0.09684  1.0000
  H   H62       1.0  0.00274  0.47720  0.25329  1.0000
  H   H63       1.0  0.46597  0.06672  0.28137  1.0000
  H   H64       1.0  0.48762  0.27361  0.07207  1.0000
  S   S13       1.0  0.46529  0.99504  0.19439  1.0000
  H   H65       1.0  0.38146  0.99265  0.13757  1.0000
  H   H66       1.0  0.33210  0.15255  0.29797  1.0000
  H   H67       1.0  0.48403  0.27596  0.14539  1.0000
  S   S14       1.0  0.47301  0.02096  0.25602  1.0000
  H   H68       1.0  0.23852  0.34315  0.31106  1.0000
  C   C31       1.0  0.34844  0.14593  0.31008  1.0000
  H   H69       1.0  0.99487  0.44224  0.17726  1.0000
  S   S15       1.0  0.48993  0.04093  0.13073  1.0000
  C   C32       1.0  0.24085  0.40613  0.31151  1.0000
  H   H70       1.0  0.17414  0.46686  0.31290  1.0000
  H   H71       1.0  0.16997  0.36266  0.30807  1.0000
  Fe  Fe8       1.0  0.49055  0.00112  0.22121  1.0000
  H   H72       1.0  0.99371  0.45382  0.23852  1.0000
  H   H73       1.0  0.42341  0.11988  0.31591  1.0000
  H   H74       1.0  0.42380  0.25826  0.34753  1.0000
  H   H75       1.0  0.37638  0.21029  0.35259  1.0000
  C   C33       1.0  0.37207  0.30274  0.38087  1.0000
  C   C34       1.0  0.48064  0.37263  0.62849  1.0000
  H   H76       1.0  0.38607  0.19041  0.39501  1.0000
  Fe  Fe9       1.0  0.24294  0.36527  0.38833  1.0000
  S   S16       1.0  0.19776  0.38549  0.39366  1.0000
  S   S17       1.0  0.25795  0.33304  0.36280  1.0000
  Fe  Fe10      1.0  0.25592  0.40036  0.42088  1.0000
  S   S18       1.0  0.21169  0.42425  0.42902  1.0000
  S   S19       1.0  0.29415  0.40481  0.43330  1.0000
  Fe  Fe11      1.0  0.20091  0.38409  0.43404  1.0000
  S   S20       1.0  0.16850  0.36835  0.46327  1.0000
  Fe  Fe12      1.0  0.21194  0.42378  0.38790  1.0000
  S   S21       1.0  0.19350  0.45749  0.36016  1.0000
  S   S22       1.0  0.24495  0.36023  0.42933  1.0000
  S   S23       1.0  0.25720  0.40358  0.37924  1.0000
  Fe  Fe13      1.0  0.37059  0.40073  0.58550  1.0000
  S   S24       1.0  0.38989  0.35828  0.59941  1.0000
  S   S25       1.0  0.38586  0.43781  0.58502  1.0000
  Fe  Fe14      1.0  0.32614  0.38545  0.56546  1.0000
  S   S26       1.0  0.34131  0.34153  0.57704  1.0000
  S   S27       1.0  0.28653  0.40334  0.55008  1.0000
  Fe  Fe15      1.0  0.34582  0.35394  0.61272  1.0000
  C   C35       1.0  0.35137  0.27207  0.35142  1.0000
  Fe  Fe16      1.0  0.38395  0.34894  0.56283  1.0000
  S   S28       1.0  0.41670  0.31862  0.54224  1.0000
  S   S29       1.0  0.32696  0.39749  0.60259  1.0000
  S   S30       1.0  0.36853  0.39166  0.54744  1.0000
  Fe  Fe17      1.0  0.33647  0.21896  0.44211  1.0000
  S   S31       1.0  0.36188  0.18073  0.45917  1.0000
  S   S32       1.0  0.30288  0.21980  0.42071  1.0000
  Fe  Fe18      1.0  0.37037  0.25374  0.45551  1.0000
  S   S33       1.0  0.39889  0.21863  0.47367  1.0000
  S   S34       1.0  0.37212  0.29697  0.45037  1.0000
  Fe  Fe19      1.0  0.39834  0.19856  0.44060  1.0000
  S   S35       1.0  0.43641  0.17791  0.41574  1.0000
  Fe  Fe20      1.0  0.35971  0.20435  0.49055  1.0000
  S   S36       1.0  0.34777  0.19171  0.53206  1.0000
  S   S37       1.0  0.37280  0.23510  0.42137  1.0000
  S   S38       1.0  0.33120  0.24121  0.47478  1.0000
  S   S39       1.0  0.23063  0.28623  0.58833  1.0000
  S   S40       1.0  0.19114  0.35895  0.57337  1.0000
  C   C36       1.0  0.31127  0.19835  0.53889  1.0000
  C   C37       1.0  0.29710  0.20432  0.56286  1.0000
  C   C38       1.0  0.26817  0.21494  0.56682  1.0000
  C   C39       1.0  0.25336  0.21834  0.54706  1.0000
  C   C40       1.0  0.26724  0.21016  0.52381  1.0000
  C   C41       1.0  0.29620  0.20058  0.51960  1.0000
  H   H77       1.0  0.30863  0.20189  0.57798  1.0000
  H   H78       1.0  0.25742  0.22085  0.58496  1.0000
  H   H79       1.0  0.25571  0.21201  0.50879  1.0000
  H   H80       1.0  0.30692  0.19522  0.50126  1.0000
  C   C42       1.0  0.39062  0.27439  0.60087  1.0000
  H   H81       1.0  0.48134  0.35099  0.62903  1.0000
  C   C43       1.0  0.30172  0.46964  0.55756  1.0000
  H   H82       1.0  0.31165  0.15270  0.33935  1.0000
  H   H83       1.0  0.29775  0.32868  0.61569  1.0000
  H   H84       1.0  0.26298  0.30154  0.61899  1.0000
  H   H85       1.0  0.34209  0.13489  0.35125  1.0000
  C   C44       1.0  0.40545  0.31346  0.51572  1.0000
  C   C45       1.0  0.38313  0.33190  0.50653  1.0000
  C   C46       1.0  0.37380  0.32735  0.48563  1.0000
  C   C47       1.0  0.38598  0.30382  0.47461  1.0000
  C   C48       1.0  0.40832  0.28539  0.48378  1.0000
  C   C49       1.0  0.41827  0.29036  0.50416  1.0000
  H   H86       1.0  0.37324  0.34980  0.51531  1.0000
  H   H87       1.0  0.35692  0.34189  0.47824  1.0000
  H   H88       1.0  0.41807  0.26739  0.47505  1.0000
  H   H89       1.0  0.43555  0.27610  0.51123  1.0000
  C   C50       1.0  0.29174  0.40545  0.46560  1.0000
  C   C51       1.0  0.26584  0.41119  0.48134  1.0000
  C   C52       1.0  0.26449  0.41112  0.50722  1.0000
  C   C53       1.0  0.28893  0.40466  0.51748  1.0000
  C   C54       1.0  0.31483  0.39907  0.50172  1.0000
  C   C55       1.0  0.31621  0.39963  0.47579  1.0000
  H   H90       1.0  0.24690  0.41579  0.47354  1.0000
  H   H91       1.0  0.24446  0.41578  0.51932  1.0000
  H   H92       1.0  0.33378  0.39393  0.50948  1.0000
  H   H93       1.0  0.33626  0.39500  0.46363  1.0000
  C   C56       1.0  0.27266  0.30178  0.37796  1.0000
  C   C57       1.0  0.28603  0.29970  0.39843  1.0000
  C   C58       1.0  0.29665  0.27436  0.41095  1.0000
  C   C59       1.0  0.29291  0.25128  0.40354  1.0000
  C   C60       1.0  0.27992  0.25341  0.38286  1.0000
  C   C61       1.0  0.27029  0.27860  0.36977  1.0000
  H   H94       1.0  0.28851  0.31757  0.40434  1.0000
  H   H95       1.0  0.30709  0.27271  0.42670  1.0000
  H   H96       1.0  0.27720  0.23555  0.37703  1.0000
  H   H97       1.0  0.26009  0.28017  0.35386  1.0000
  C   C62       1.0  0.17164  0.36963  0.49427  1.0000
  C   C63       1.0  0.19050  0.38280  0.49926  1.0000
  C   C64       1.0  0.19522  0.38074  0.52399  1.0000
  C   C65       1.0  0.18140  0.36525  0.54358  1.0000
  C   C66       1.0  0.16143  0.35338  0.53876  1.0000
  C   C67       1.0  0.15643  0.35570  0.51414  1.0000
  H   H98       1.0  0.20208  0.39382  0.48399  1.0000
  H   H99       1.0  0.21048  0.39010  0.52773  1.0000
  H   H100      1.0  0.15001  0.34219  0.55394  1.0000
  H   H101      1.0  0.14152  0.34585  0.51036  1.0000
  H   H102      1.0  0.41939  0.26475  0.40259  1.0000
  C   C68       1.0  0.40542  0.12983  0.32921  1.0000
  H   H103      1.0  0.28345  0.47767  0.54800  1.0000
  C   C69       1.0  0.16497  0.44996  0.35166  1.0000
  N   N4        1.0  0.21347  0.41309  0.61109  1.0000
  C   C70       1.0  0.41210  0.45984  0.61209  1.0000
  H   H104      1.0  0.19987  0.40655  0.33308  1.0000
  H   H105      1.0  0.06484  0.47321  0.32436  1.0000
  C   C71       1.0  0.31671  0.23685  0.61420  1.0000
  N   N5        1.0  0.04529  0.20832  0.64355  1.0000
  H   H106      1.0  0.05421  0.15578  0.63133  1.0000
  C   C72       1.0  0.39929  0.43901  0.61185  1.0000
  C   C73       1.0  0.02993  0.20916  0.62244  1.0000
  S   S41       1.0  0.49072  0.47686  0.62911  1.0000
  C   C74       1.0  0.24687  0.44288  0.61420  1.0000
  C   C75       1.0  0.34993  0.32904  0.37690  1.0000
  C   C76       1.0  0.41956  0.20734  0.33594  1.0000
  C   C77       1.0  0.44707  0.19870  0.34016  1.0000
  C   C78       1.0  0.45248  0.18845  0.36458  1.0000
  C   C79       1.0  0.43039  0.18641  0.38460  1.0000
  C   C80       1.0  0.40310  0.19321  0.37987  1.0000
  C   C81       1.0  0.39765  0.20417  0.35574  1.0000
  H   H107      1.0  0.46415  0.20080  0.32486  1.0000
  H   H108      1.0  0.44725  0.38331  0.56528  1.0000
  H   H109      1.0  0.35871  0.25424  0.36459  1.0000
  H   H110      1.0  0.34438  0.44854  0.55160  1.0000
  H   H111      1.0  0.19486  0.35226  0.35651  1.0000
  H   H112      1.0  0.36651  0.21297  0.57043  1.0000
  H   H113      1.0  0.23570  0.44471  0.56015  1.0000
  S   S42       1.0  0.10079  0.41665  0.32712  1.0000
  H   H114      1.0  0.16531  0.38645  0.32864  1.0000
  H   H115      1.0  0.29623  0.45361  0.57259  1.0000
  H   H116      1.0  0.32372  0.43956  0.53357  1.0000
  H   H117      1.0  0.35964  0.34642  0.37015  1.0000
  H   H118      1.0  0.43636  0.28742  0.37983  1.0000
  C   C82       1.0  0.43028  0.30560  0.32261  1.0000
  C   C83       1.0  0.48379  0.37711  0.58272  1.0000
  H   H119      1.0  0.33622  0.32812  0.36384  1.0000
  H   H120      1.0  0.43873  0.38414  0.59837  1.0000
  C   C84       1.0  0.37393  0.28792  0.33948  1.0000
  H   H121      1.0  0.15070  0.43134  0.38872  1.0000
  H   H122      1.0  0.41390  0.13234  0.34562  1.0000
  H   H123      1.0  0.01990  0.09310  0.63669  1.0000
  H   H124      1.0  0.33283  0.28496  0.36155  1.0000
  N   N6        1.0  0.27495  0.31943  0.50524  1.0000
  C   C85       1.0  0.29145  0.33369  0.48319  1.0000
  C   C86       1.0  0.27140  0.33374  0.52780  1.0000
  C   C87       1.0  0.24672  0.32223  0.49857  1.0000
  C   C88       1.0  0.29014  0.29047  0.50915  1.0000
  C   C89       1.0  0.29983  0.32054  0.45862  1.0000
  C   C90       1.0  0.29861  0.33457  0.53598  1.0000
  C   C91       1.0  0.22535  0.30998  0.51842  1.0000
  C   C92       1.0  0.28424  0.27481  0.53549  1.0000
  H   H125      1.0  0.27994  0.35475  0.47866  1.0000
  H   H126      1.0  0.31148  0.33502  0.48763  1.0000
  H   H127      1.0  0.25887  0.32462  0.54459  1.0000
  H   H128      1.0  0.25941  0.35486  0.52432  1.0000
  H   H129      1.0  0.23695  0.34377  0.49383  1.0000
  H   H130      1.0  0.24847  0.31299  0.48140  1.0000
  H   H131      1.0  0.28562  0.27916  0.49565  1.0000
  H   H132      1.0  0.31311  0.28871  0.50508  1.0000
  H   H133      1.0  0.31436  0.30073  0.46098  1.0000
  H   H134      1.0  0.28202  0.31800  0.45136  1.0000
  H   H135      1.0  0.31092  0.33346  0.44378  1.0000
  H   H136      1.0  0.31409  0.31520  0.53599  1.0000
  H   H137      1.0  0.30864  0.34986  0.52370  1.0000
  H   H138      1.0  0.29349  0.34034  0.55531  1.0000
  H   H139      1.0  0.22223  0.31632  0.53723  1.0000
  H   H140      1.0  0.23012  0.28792  0.51965  1.0000
  H   H141      1.0  0.20487  0.31689  0.51229  1.0000
  H   H142      1.0  0.29053  0.28279  0.55027  1.0000
  H   H143      1.0  0.29670  0.25404  0.53478  1.0000
  H   H144      1.0  0.26243  0.27342  0.54140  1.0000
  H   H145      1.0  0.38821  0.44093  0.52984  1.0000
  C   C93       1.0  0.21382  0.44340  0.56774  1.0000
  H   H146      1.0  0.19012  0.38198  0.61753  1.0000
  H   H147      1.0  0.36563  0.46911  0.48114  1.0000
  H   H148      1.0  0.32000  0.24454  0.63072  1.0000
  C   C94       1.0  0.36191  0.45870  0.50068  1.0000
  C   C95       1.0  0.12412  0.43142  0.33639  1.0000
  N   N7        1.0  0.20529  0.27272  0.44926  1.0000
  C   C96       1.0  0.22910  0.25013  0.45624  1.0000
  C   C97       1.0  0.18357  0.26066  0.44327  1.0000
  C   C98       1.0  0.19222  0.28936  0.47045  1.0000
  C   C99       1.0  0.21650  0.29059  0.42688  1.0000
  C   C100      1.0  0.25080  0.25774  0.46800  1.0000
  C   C101      1.0  0.19141  0.24838  0.41830  1.0000
  C   C102      1.0  0.18059  0.27399  0.49545  1.0000
  C   C103      1.0  0.19497  0.31434  0.41607  1.0000
  H   H149      1.0  0.22140  0.23383  0.46964  1.0000
  H   H150      1.0  0.24086  0.24038  0.43938  1.0000
  H   H151      1.0  0.16330  0.27550  0.44307  1.0000
  H   H152      1.0  0.17873  0.24438  0.45841  1.0000
  H   H153      1.0  0.20718  0.29994  0.47422  1.0000
  H   H154      1.0  0.17454  0.30577  0.46509  1.0000
  H   H155      1.0  0.23203  0.29978  0.43167  1.0000
  H   H156      1.0  0.22858  0.27896  0.41137  1.0000
  H   H157      1.0  0.25906  0.27465  0.45675  1.0000
  H   H158      1.0  0.24231  0.26219  0.48751  1.0000
  H   H159      1.0  0.26886  0.24033  0.46907  1.0000
  H   H160      1.0  0.17499  0.23822  0.41694  1.0000
  H   H161      1.0  0.19251  0.26399  0.40173  1.0000
  H   H162      1.0  0.21137  0.23311  0.41722  1.0000
  H   H163      1.0  0.19654  0.25709  0.50266  1.0000
  H   H164      1.0  0.16251  0.26648  0.49362  1.0000
  H   H165      1.0  0.17303  0.28785  0.51004  1.0000
  H   H166      1.0  0.19288  0.33240  0.42513  1.0000
  H   H167      1.0  0.17404  0.31041  0.41826  1.0000
  H   H168      1.0  0.20200  0.31887  0.39549  1.0000
  C   C104      1.0  0.14056  0.44649  0.31892  1.0000
  H   H169      1.0  0.36594  0.24749  0.62236  1.0000
  H   H170      1.0  0.41404  0.19997  0.56469  1.0000
  H   H171      1.0  0.15457  0.41474  0.63065  1.0000
  C   C105      1.0  0.39143  0.15767  0.31703  1.0000
  H   H172      1.0  0.32566  0.21497  0.61519  1.0000
  C   C106      1.0  0.20888  0.38567  0.62272  1.0000
  H   H173      1.0  0.04420  0.19851  0.60699  1.0000
  S   S43       1.0  0.17952  0.30667  0.63385  1.0000
  N   N8        1.0  0.33851  0.47550  0.51734  1.0000
  H   H174      1.0  0.16659  0.34110  0.35069  1.0000
  S   S44       1.0  0.21804  0.23462  0.55031  1.0000
  H   H175      1.0  0.38792  0.27658  0.32438  1.0000
  H   H176      1.0  0.39366  0.27890  0.61908  1.0000
  H   H177      1.0  0.44806  0.29124  0.33005  1.0000
  C   C107      1.0  0.18663  0.34650  0.34158  1.0000
  H   H178      1.0  0.46685  0.42280  0.60853  1.0000
  H   H179      1.0  0.06376  0.24427  0.60117  1.0000
  H   H180      1.0  0.49024  0.42792  0.56251  1.0000
  H   H181      1.0  0.02322  0.23021  0.61367  1.0000
  N   N9        1.0  0.39062  0.29312  0.35726  1.0000
  C   C108      1.0  0.07433  0.21183  0.63211  1.0000
  H   H182      1.0  0.44928  0.25248  0.37949  1.0000
  C   C109      1.0  0.21698  0.39180  0.32326  1.0000
  H   H183      1.0  0.34440  0.26504  0.33631  1.0000
  H   H184      1.0  0.40437  0.43447  0.49850  1.0000
  C   C110      1.0  0.23301  0.36159  0.61574  1.0000
  H   H185      1.0  0.39935  0.25159  0.37351  1.0000
  H   H186      1.0  0.25860  0.40382  0.60180  1.0000
  H   H187      1.0  0.07149  0.25543  0.62806  1.0000
  C   C111      1.0  0.29463  0.31409  0.63197  1.0000
  H   H188      1.0  0.45795  0.38200  0.63136  1.0000
  Fe  Fe21      1.0  0.20482  0.25956  0.58211  1.0000
  C   C112      1.0  0.37461  0.22293  0.58283  1.0000
  C   C113      1.0  0.21255  0.41593  0.58335  1.0000
  H   H189      1.0  0.36117  0.28718  0.39173  1.0000
  N   N10       1.0  0.35869  0.25160  0.58396  1.0000
  C   C114      1.0  0.32791  0.25218  0.58896  1.0000
  C   C115      1.0  0.36452  0.26909  0.55932  1.0000
  C   C116      1.0  0.36446  0.26289  0.60550  1.0000
  H   H190      1.0  0.37114  0.21083  0.60157  1.0000
  S   S45       1.0  0.19549  0.24351  0.62279  1.0000
  C   C117      1.0  0.36289  0.25786  0.53546  1.0000
  H   H191      1.0  0.19327  0.45416  0.61816  1.0000
  H   H192      1.0  0.31534  0.27324  0.58845  1.0000
  H   H193      1.0  0.32221  0.24357  0.57419  1.0000
  H   H194      1.0  0.38552  0.27332  0.55588  1.0000
  H   H195      1.0  0.35009  0.28919  0.55972  1.0000
  C   C118      1.0  0.40597  0.31438  0.34402  1.0000
  H   H196      1.0  0.20289  0.44586  0.55154  1.0000
  H   H197      1.0  0.22586  0.34283  0.62335  1.0000
  H   H198      1.0  0.38785  0.40321  0.63270  1.0000
  H   H199      1.0  0.38112  0.24121  0.53076  1.0000
  H   H200      1.0  0.34378  0.25082  0.53672  1.0000
  H   H201      1.0  0.36318  0.27394  0.51929  1.0000
  C   C119      1.0  0.39795  0.41922  0.63265  1.0000
  H   H202      1.0  0.41358  0.23427  0.56111  1.0000
  H   H203      1.0  0.20086  0.32826  0.33448  1.0000
  C   C120      1.0  0.33428  0.15176  0.33717  1.0000
  H   H204      1.0  0.38464  0.30626  0.39391  1.0000
  H   H205      1.0  0.39067  0.11658  0.33606  1.0000
  C   C121      1.0  0.18103  0.36967  0.32018  1.0000
  C   C122      1.0  0.24161  0.41473  0.61540  1.0000
  H   H206      1.0  0.41422  0.32266  0.35754  1.0000
  H   H207      1.0  0.08538  0.19625  0.61960  1.0000
  H   H208      1.0  0.26901  0.44068  0.61566  1.0000
  H   H209      1.0  0.09868  0.23773  0.60682  1.0000
  C   C123      1.0  0.40652  0.21801  0.57472  1.0000
  H   H210      1.0  0.40987  0.26053  0.59311  1.0000
  H   H211      1.0  0.41693  0.21453  0.59137  1.0000
  H   H212      1.0  0.22487  0.37656  0.33841  1.0000
  Fe  Fe22      1.0  0.15797  0.27786  0.62436  1.0000
  H   H213      1.0  0.35628  0.44002  0.49833  1.0000
  H   H214      1.0  0.33590  0.17080  0.34237  1.0000
  S   S46       1.0  0.16528  0.29135  0.58281  1.0000
  H   H215      1.0  0.24337  0.45575  0.59637  1.0000
  H   H216      1.0  0.44886  0.41231  0.57748  1.0000
  C   C124      1.0  0.16082  0.45596  0.32659  1.0000
  H   H217      1.0  0.00784  0.17884  0.61940  1.0000
  C   C125      1.0  0.42978  0.26828  0.38268  1.0000
  C   C126      1.0  0.41069  0.26725  0.36435  1.0000
  H   H218      1.0  0.40044  0.46688  0.50738  1.0000
  H   H219      1.0  0.25125  0.36081  0.62440  1.0000
  C   C127      1.0  0.30147  0.47091  0.49327  1.0000
  H   H220      1.0  0.11488  0.41479  0.37524  1.0000
  H   H221      1.0  0.38783  0.29374  0.58840  1.0000
  H   H222      1.0  0.41299  0.47532  0.59614  1.0000
  H   H223      1.0  0.23963  0.36141  0.59515  1.0000
  Fe  Fe23      1.0  0.19028  0.31709  0.59205  1.0000
  H   H224      1.0  0.33640  0.33295  0.39533  1.0000
  H   H225      1.0  0.34685  0.27969  0.61161  1.0000
  H   H226      1.0  0.30528  0.48523  0.56715  1.0000
  H   H227      1.0  0.14593  0.44995  0.63178  1.0000
  H   H228      1.0  0.39148  0.33198  0.33552  1.0000
  Fe  Fe24      1.0  0.21764  0.27329  0.62928  1.0000
  C   C128      1.0  0.14795  0.43563  0.36923  1.0000
  H   H229      1.0  0.23001  0.40121  0.57384  1.0000
  H   H230      1.0  0.47367  0.18292  0.36810  1.0000
  C   C129      1.0  0.16070  0.43369  0.62183  1.0000
  C   C130      1.0  0.12755  0.42643  0.36162  1.0000
  C   C131      1.0  0.42391  0.46071  0.63289  1.0000
  H   H231      1.0  0.29383  0.23966  0.61579  1.0000
  H   H232      1.0  0.28987  0.45969  0.50919  1.0000
  H   H233      1.0  0.19155  0.43017  0.64503  1.0000
  C   C132      1.0  0.39020  0.44989  0.50986  1.0000
  H   H234      1.0  0.28600  0.48323  0.48165  1.0000
  H   H235      1.0  0.23417  0.45309  0.63043  1.0000
  H   H236      1.0  0.19388  0.41030  0.58006  1.0000
  C   C133      1.0  0.32807  0.45711  0.53971  1.0000
  H   H237      1.0  0.36326  0.30698  0.32936  1.0000
  H   H238      1.0  0.24531  0.40447  0.63446  1.0000
  H   H239      1.0  0.38000  0.16929  0.33260  1.0000
  C   C134      1.0  0.07665  0.23898  0.61618  1.0000
  H   H240      1.0  0.43331  0.47710  0.63309  1.0000
  H   H241      1.0  0.02968  0.25066  0.64730  1.0000
  H   H242      1.0  0.20476  0.38408  0.64370  1.0000
  H   H243      1.0  0.35549  0.20842  0.31857  1.0000
  C   C135      1.0  0.27473  0.29889  0.63395  1.0000
  H   H244      1.0  0.24527  0.41582  0.32629  1.0000
  H   H245      1.0  0.08606  0.15545  0.64208  1.0000
  H   H246      1.0  0.15779  0.43792  0.60187  1.0000
  H   H247      1.0  0.20294  0.46067  0.57799  1.0000
  C   C136      1.0  0.45294  0.39016  0.58121  1.0000
  C   C137      1.0  0.00394  0.19695  0.62896  1.0000
  H   H248      1.0  0.31647  0.45668  0.48121  1.0000
  C   C138      1.0  0.19064  0.43343  0.62450  1.0000
  H   H249      1.0  0.14875  0.22205  0.64100  1.0000
  S   S47       1.0  0.11549  0.27554  0.64664  1.0000
  H   H250      1.0  0.08703  0.20891  0.64706  1.0000
  C   C139      1.0  0.48949  0.41404  0.60324  1.0000
  C   C140      1.0  0.06333  0.15685  0.64775  1.0000
  H   H251      1.0  0.48577  0.35510  0.58456  1.0000
  H   H252      1.0  0.99650  0.19163  0.64918  1.0000
  Fe  Fe25      1.0  0.04047  0.11592  0.76462  1.0000
  S   S48       1.0  0.06000  0.14607  0.77410  1.0000
  S   S49       1.0  0.04631  0.07376  0.78374  1.0000
  C   C141      1.0  0.99575  0.13094  0.85539  1.0000
  S   S50       1.0  0.02708  0.18964  0.73267  1.0000
  C   C142      1.0  0.00302  0.12165  0.66328  1.0000
  Fe  Fe26      1.0  0.06769  0.15915  0.73259  1.0000
  S   S51       1.0  0.10990  0.16366  0.71133  1.0000
  Fe  Fe27      1.0  0.01774  0.17350  0.77371  1.0000
  C   C143      1.0  0.48485  0.45042  0.91133  1.0000
  S   S52       1.0  0.05198  0.12625  0.72310  1.0000
  H   H253      1.0  0.06024  0.02395  0.75984  1.0000
  H   H254      1.0  0.02864  0.17846  0.67135  1.0000
  C   C144      1.0  0.09821  0.00128  0.69809  1.0000
  H   H255      1.0  0.01058  0.20042  0.85567  1.0000
  C   C145      1.0  0.00278  0.13669  0.87686  1.0000
  H   H256      1.0  0.13467  0.02236  0.74651  1.0000
  C   C146      1.0  0.08782  0.04785  0.67960  1.0000
  C   C147      1.0  0.99999  0.17499  0.83387  1.0000
  H   H257      1.0  0.06395  0.02426  0.88985  1.0000
  H   H258      1.0  0.99442  0.24780  0.68487  1.0000
  C   C148      1.0  0.12942  0.05914  0.78084  1.0000
  C   C149      1.0  0.27013  0.28034  0.65531  1.0000
  S   S53       1.0  0.24547  0.26100  0.65841  1.0000
  H   H259      1.0  0.28239  0.26235  0.69094  1.0000
  C   C150      1.0  0.11062  0.19475  0.69321  1.0000
  C   C151      1.0  0.09064  0.21785  0.69945  1.0000
  C   C152      1.0  0.09212  0.24266  0.68492  1.0000
  C   C153      1.0  0.11350  0.24435  0.66416  1.0000
  C   C154      1.0  0.13300  0.22111  0.65762  1.0000
  C   C155      1.0  0.13183  0.19641  0.67233  1.0000
  H   H260      1.0  0.07444  0.21673  0.71576  1.0000
  H   H261      1.0  0.07692  0.26062  0.68999  1.0000
  H   H262      1.0  0.09802  0.05398  0.72830  1.0000
  H   H263      1.0  0.14712  0.17849  0.66729  1.0000
  H   H264      1.0  0.01785  0.02986  0.81635  1.0000
  H   H265      1.0  0.04383  0.23099  0.67356  1.0000
  S   S54       1.0  0.00579  0.11215  0.90312  1.0000
  H   H266      1.0  0.06820  0.02663  0.81487  1.0000
  C   C156      1.0  0.10836  0.03642  0.71788  1.0000
  H   H267      1.0  0.31730  0.28928  0.68753  1.0000
  C   C157      1.0  0.10211  0.07176  0.77729  1.0000
  C   C158      1.0  0.08014  0.05967  0.78915  1.0000
  C   C159      1.0  0.08524  0.03559  0.80515  1.0000
  H   H268      1.0  0.09816  0.09042  0.76492  1.0000
  S   S55       1.0  0.16845  0.01671  0.79826  1.0000
  N   N11       1.0  0.09205  0.08074  0.86778  1.0000
  C   C160      1.0  0.07147  0.06315  0.87272  1.0000
  C   C161      1.0  0.07764  0.10895  0.85897  1.0000
  C   C162      1.0  0.10306  0.08107  0.89126  1.0000
  C   C163      1.0  0.11598  0.06986  0.84800  1.0000
  C   C164      1.0  0.08192  0.03394  0.88428  1.0000
  C   C165      1.0  0.06729  0.11314  0.83367  1.0000
  C   C166      1.0  0.08084  0.08738  0.91490  1.0000
  C   C167      1.0  0.13786  0.08687  0.83822  1.0000
  H   H269      1.0  0.05197  0.07204  0.88507  1.0000
  H   H270      1.0  0.06479  0.06175  0.85495  1.0000
  H   H271      1.0  0.09120  0.12317  0.85754  1.0000
  H   H272      1.0  0.05908  0.11621  0.87299  1.0000
  H   H273      1.0  0.11768  0.06172  0.89619  1.0000
  H   H274      1.0  0.11568  0.09641  0.88808  1.0000
  H   H275      1.0  0.12749  0.04954  0.85497  1.0000
  H   H276      1.0  0.10801  0.06718  0.83148  1.0000
  H   H277      1.0  0.11623  0.00447  0.82114  1.0000
  H   H278      1.0  0.09743  0.02221  0.87036  1.0000
  H   H279      1.0  0.09054  0.03237  0.90161  1.0000
  H   H280      1.0  0.05697  0.13462  0.82966  1.0000
  H   H281      1.0  0.08449  0.10840  0.81768  1.0000
  H   H282      1.0  0.05143  0.10163  0.83419  1.0000
  H   H283      1.0  0.06692  0.10756  0.91212  1.0000
  H   H284      1.0  0.09144  0.08723  0.93079  1.0000
  H   H285      1.0  0.06801  0.07225  0.92102  1.0000
  H   H286      1.0  0.12897  0.10663  0.82822  1.0000
  H   H287      1.0  0.15457  0.07622  0.82428  1.0000
  H   H288      1.0  0.14788  0.08964  0.85345  1.0000
  H   H289      1.0  0.13699  0.99761  0.72711  1.0000
  H   H290      1.0  0.40860  0.40486  0.66961  1.0000
  S   S56       1.0  0.43898  0.44078  0.67918  1.0000
  C   C168      1.0  0.28573  0.27676  0.67446  1.0000
  H   H291      1.0  0.05293  0.05560  0.72475  1.0000
  H   H292      1.0  0.47721  0.48169  0.78481  1.0000
  N   N12       1.0  0.08823  0.02970  0.70432  1.0000
  C   C169      1.0  0.30548  0.29198  0.67252  1.0000
  H   H293      1.0  0.09350  0.08448  0.69148  1.0000
  C   C170      1.0  0.07986  0.07822  0.68130  1.0000
  C   C171      1.0  0.99448  0.14999  0.83397  1.0000
  C   C172      1.0  0.42299  0.44074  0.65355  1.0000
  C   C173      1.0  0.13453  0.03442  0.79602  1.0000
  H   H294      1.0  0.12605  0.04257  0.70418  1.0000
  S   S57       1.0  0.01945  0.04165  0.66416  1.0000
  H   H295      1.0  0.08208  0.08911  0.66192  1.0000
  H   H296      1.0  0.14659  0.06799  0.77113  1.0000
  H   H297      1.0  0.01518  0.99018  0.84548  1.0000
  H   H298      1.0  0.05770  0.08480  0.69001  1.0000
  H   H299      1.0  0.04342  0.03461  0.70821  1.0000
  N   N13       1.0  0.18634  0.21371  0.71161  1.0000
  C   C174      1.0  0.16086  0.23662  0.71146  1.0000
  C   C175      1.0  0.17676  0.18933  0.72614  1.0000
  C   C176      1.0  0.19859  0.20896  0.68467  1.0000
  C   C177      1.0  0.20676  0.22185  0.72359  1.0000
  C   C178      1.0  0.16471  0.26246  0.69377  1.0000
  C   C179      1.0  0.16270  0.19169  0.75378  1.0000
  C   C180      1.0  0.21643  0.18081  0.67996  1.0000
  C   C181      1.0  0.23370  0.20079  0.72761  1.0000
  H   H300      1.0  0.14361  0.23028  0.70614  1.0000
  H   H301      1.0  0.15271  0.24281  0.73059  1.0000
  H   H302      1.0  0.19402  0.17122  0.72648  1.0000
  H   H303      1.0  0.16170  0.18418  0.71655  1.0000
  H   H304      1.0  0.18178  0.21242  0.67344  1.0000
  H   H305      1.0  0.21143  0.22359  0.67547  1.0000
  H   H306      1.0  0.21396  0.23929  0.71179  1.0000
  H   H307      1.0  0.19676  0.22968  0.74180  1.0000
  H   H308      1.0  0.17015  0.25912  0.67373  1.0000
  H   H309      1.0  0.14460  0.27762  0.69563  1.0000
  H   H310      1.0  0.18039  0.27146  0.69846  1.0000
  H   H311      1.0  0.17634  0.19669  0.76482  1.0000
  H   H312      1.0  0.14231  0.20637  0.75521  1.0000
  H   H313      1.0  0.15822  0.17202  0.76270  1.0000
  H   H314      1.0  0.23361  0.17391  0.69085  1.0000
  H   H315      1.0  0.22605  0.18139  0.65970  1.0000
  H   H316      1.0  0.20335  0.16585  0.68380  1.0000
  H   H317      1.0  0.24995  0.20137  0.71043  1.0000
  H   H318      1.0  0.23070  0.18018  0.73334  1.0000
  H   H319      1.0  0.24168  0.20534  0.74344  1.0000
  H   H320      1.0  0.10683  0.00576  0.75145  1.0000
  C   C182      1.0  0.05921  0.03487  0.71950  1.0000
  H   H321      1.0  0.10852  0.04344  0.66709  1.0000
  S   S58       1.0  0.00669  0.04930  0.87057  1.0000
  C   C183      1.0  0.00791  0.16186  0.87706  1.0000
  Fe  Fe28      1.0  0.99829  0.00922  0.68503  1.0000
  H   H322      1.0  0.07866  0.00230  0.66508  1.0000
  H   H323      1.0  0.11940  0.99843  0.68631  1.0000
  H   H324      1.0  0.06055  0.18242  0.67562  1.0000
  H   H325      1.0  0.99941  0.21266  0.68612  1.0000
  C   C184      1.0  0.00126  0.23116  0.67307  1.0000
  C   C185      1.0  0.01792  0.01170  0.80823  1.0000
  Fe  Fe29      1.0  0.47596  0.45965  0.66863  1.0000
  S   S59       1.0  0.00062  0.19781  0.80615  1.0000
  C   C186      1.0  0.11241  0.02299  0.80861  1.0000
  H   H326      1.0  0.07273  0.04444  0.66910  1.0000
  H   H327      1.0  0.06456  0.99528  0.74348  1.0000
  H   H328      1.0  0.03967  0.00293  0.80030  1.0000
  C   C187      1.0  0.03122  0.23088  0.65915  1.0000
  H   H329      1.0  0.03157  0.01688  0.74942  1.0000
  C   C188      1.0  0.12217  0.01403  0.73678  1.0000
  S   S60       1.0  0.99751  0.14220  0.76718  1.0000
  H   H330      1.0  0.47868  0.39597  0.65889  1.0000
  C   C189      1.0  0.05414  0.01659  0.74448  1.0000
  Fe  Fe30      1.0  0.01069  0.15543  0.72646  1.0000
  H   H331      1.0  0.01340  0.16635  0.89367  1.0000
  H   H332      1.0  0.06078  0.13887  0.66150  1.0000
  C   C190      1.0  0.00617  0.18115  0.85566  1.0000
  C   C191      1.0  0.04866  0.18206  0.66067  1.0000
  H   H333      1.0  0.05415  0.99292  0.86907  1.0000
  H   H334      1.0  0.46395  0.45199  0.92335  1.0000
  H   H335      1.0  0.00548  0.01892  0.79293  1.0000
  H   H336      1.0  0.00570  0.13868  0.64943  1.0000
  H   H337      1.0  0.48132  0.45999  0.89216  1.0000
  S   S61       1.0  0.00250  0.98666  0.72344  1.0000
  C   C192      1.0  0.00736  0.07365  0.67384  1.0000
  C   C193      1.0  0.99600  0.07724  0.69899  1.0000
  H   H338      1.0  0.10082  0.98665  0.71513  1.0000
  H   H339      1.0  0.05806  0.99326  0.69524  1.0000
  C   C194      1.0  0.40964  0.42020  0.65355  1.0000
  C   C195      1.0  0.01102  0.09586  0.65610  1.0000
  C   C196      1.0  0.30994  0.31073  0.65135  1.0000
  C   C197      1.0  0.00471  0.99243  0.82899  1.0000
  C   C198      1.0  0.07943  0.99167  0.68439  1.0000
  H   H340      1.0  0.48743  0.41054  0.90341  1.0000
  H   H341      1.0  0.48734  0.36008  0.66735  1.0000
  C   C199      1.0  0.49058  0.37669  0.65213  1.0000
  S   S62       1.0  0.33483  0.32948  0.64973  1.0000
  C   C200      1.0  0.34380  0.67662  0.06637  1.0000
  H   H342      1.0  0.44117  0.87700  0.14248  1.0000
  H   H343      1.0  0.00445  0.61419  0.15124  1.0000
  H   H344      1.0  0.40996  0.94852  0.10264  1.0000
  H   H345      1.0  0.39238  0.67074  0.10394  1.0000
  H   H346      1.0  0.10320  0.49345  0.30178  1.0000
  H   H347      1.0  0.04799  0.68393  0.24830  1.0000
  H   H348      1.0  0.43628  0.94325  0.14628  1.0000
  S   S63       1.0  0.18786  0.84179  0.99066  1.0000
  H   H349      1.0  0.23081  0.51772  0.14711  1.0000
  H   H350      1.0  0.07804  0.50449  0.08847  1.0000
  H   H351      1.0  0.38461  0.77770  0.09179  1.0000
  Fe  Fe31      1.0  0.38059  0.85418  0.12408  1.0000
  S   S64       1.0  0.37561  0.83499  0.09241  1.0000
  S   S65       1.0  0.35231  0.85301  0.16172  1.0000
  Fe  Fe32      1.0  0.38479  0.87206  0.06813  1.0000
  S   S66       1.0  0.36042  0.89267  0.03738  1.0000
  S   S67       1.0  0.38646  0.89281  0.10027  1.0000
  Fe  Fe33      1.0  0.27765  0.75177  0.10040  1.0000
  S   S68       1.0  0.28510  0.72876  0.13775  1.0000
  S   S69       1.0  0.31252  0.75602  0.06877  1.0000
  Fe  Fe34      1.0  0.21602  0.77023  0.11697  1.0000
  S   S70       1.0  0.21749  0.74903  0.15610  1.0000
  S   S71       1.0  0.17584  0.79444  0.10571  1.0000
  Fe  Fe35      1.0  0.25567  0.76473  0.15321  1.0000
  S   S72       1.0  0.26295  0.78184  0.18546  1.0000
  Fe  Fe36      1.0  0.24663  0.71515  0.13701  1.0000
  S   S73       1.0  0.24294  0.67268  0.15010  1.0000
  S   S74       1.0  0.25152  0.78902  0.11572  1.0000
  S   S75       1.0  0.24183  0.73503  0.09793  1.0000
  C   C201      1.0  0.09643  0.54348  0.25541  1.0000
  Fe  Fe37      1.0  0.09589  0.59975  0.16941  1.0000
  S   S76       1.0  0.08365  0.63037  0.13706  1.0000
  S   S77       1.0  0.07892  0.60550  0.21010  1.0000
  Fe  Fe38      1.0  0.08151  0.59497  0.12003  1.0000
  S   S78       1.0  0.04429  0.59883  0.10226  1.0000
  Fe  Fe39      1.0  0.12892  0.62065  0.12025  1.0000
  S   S79       1.0  0.15247  0.65078  0.09780  1.0000
  S   S80       1.0  0.09077  0.56464  0.15348  1.0000
  S   S81       1.0  0.14163  0.59318  0.15422  1.0000
  H   H352      1.0  0.42380  0.76033  0.14121  1.0000
  H   H353      1.0  0.24263  0.56542  0.17254  1.0000
  C   C202      1.0  0.00677  0.65887  0.19956  1.0000
  H   H354      1.0  0.16093  0.63997  0.14953  1.0000
  C   C203      1.0  0.99759  0.63111  0.23920  1.0000
  H   H355      1.0  0.27304  0.61679  0.12695  1.0000
  H   H356      1.0  0.09339  0.75146  0.16480  1.0000
  H   H357      1.0  0.13851  0.73035  0.17415  1.0000
  H   H358      1.0  0.02994  0.59372  0.29894  1.0000
  H   H359      1.0  0.42522  0.81008  0.03873  1.0000
  S   S82       1.0  0.43073  0.85515  0.06000  1.0000
  S   S83       1.0  0.17044  0.52467  0.12941  1.0000
  C   C204      1.0  0.04424  0.62398  0.21445  1.0000
  C   C205      1.0  0.02569  0.61744  0.23615  1.0000
  C   C206      1.0  0.16839  0.49650  0.15182  1.0000
  C   C207      1.0  0.39451  0.95721  0.11843  1.0000
  H   H360      1.0  0.19467  0.58304  0.07617  1.0000
  C   C208      1.0  0.03480  0.64497  0.19632  1.0000
  H   H361      1.0  0.03282  0.60117  0.25014  1.0000
  S   S84       1.0  0.32927  0.80641  0.98792  1.0000
  H   H362      1.0  0.20115  0.59326  0.14282  1.0000
  H   H363      1.0  0.04911  0.65067  0.17991  1.0000
  H   H364      1.0  0.37514  0.70857  0.16458  1.0000
  C   C209      1.0  0.06382  0.54596  0.09471  1.0000
  C   C210      1.0  0.04075  0.56760  0.09734  1.0000
  C   C211      1.0  0.01432  0.56418  0.09673  1.0000
  H   H365      1.0  0.44186  0.98603  0.08781  1.0000
  H   H366      1.0  0.27435  0.67466  0.01658  1.0000
  H   H367      1.0  0.08441  0.54868  0.09457  1.0000
  N   N14       1.0  0.08297  0.53530  0.30399  1.0000
  C   C212      1.0  0.21910  0.66490  0.13521  1.0000
  C   C213      1.0  0.22016  0.67167  0.10920  1.0000
  C   C214      1.0  0.19995  0.66672  0.09767  1.0000
  C   C215      1.0  0.17865  0.65508  0.11218  1.0000
  C   C216      1.0  0.17783  0.64805  0.13810  1.0000
  H   H368      1.0  0.23658  0.68067  0.09801  1.0000
  H   H369      1.0  0.20059  0.67222  0.07760  1.0000
  C   C217      1.0  0.32716  0.83359  0.16744  1.0000
  C   C218      1.0  0.32111  0.82278  0.14810  1.0000
  C   C219      1.0  0.30091  0.80741  0.15327  1.0000
  C   C220      1.0  0.28702  0.80241  0.17797  1.0000
  C   C221      1.0  0.29299  0.81328  0.19728  1.0000
  C   C222      1.0  0.31286  0.82894  0.19200  1.0000
  H   H370      1.0  0.33190  0.82628  0.12918  1.0000
  H   H371      1.0  0.29643  0.79907  0.13827  1.0000
  H   H372      1.0  0.28230  0.80951  0.21640  1.0000
  H   H373      1.0  0.31732  0.83726  0.20707  1.0000
  C   C223      1.0  0.33994  0.74184  0.17107  1.0000
  H   H374      1.0  0.19736  0.64752  0.16971  1.0000
  Fe  Fe40      1.0  0.42182  0.81980  0.08737  1.0000
  C   C224      1.0  0.33912  0.83087  0.99987  1.0000
  C   C225      1.0  0.35801  0.82275  0.01662  1.0000
  C   C226      1.0  0.36514  0.84184  0.02757  1.0000
  C   C227      1.0  0.35348  0.86907  0.02181  1.0000
  C   C228      1.0  0.33532  0.87730  0.00433  1.0000
  C   C229      1.0  0.32808  0.85817  0.99336  1.0000
  H   H375      1.0  0.36666  0.80161  0.02161  1.0000
  H   H376      1.0  0.37947  0.83541  0.04065  1.0000
  H   H377      1.0  0.32644  0.89842  0.99968  1.0000
  H   H378      1.0  0.01272  0.56467  0.19117  1.0000
  C   C230      1.0  0.18497  0.82767  0.02238  1.0000
  C   C231      1.0  0.15956  0.83457  0.03857  1.0000
  C   C232      1.0  0.15687  0.82412  0.06411  1.0000
  C   C233      1.0  0.17954  0.80660  0.07353  1.0000
  C   C234      1.0  0.20483  0.79914  0.05727  1.0000
  C   C235      1.0  0.20763  0.80986  0.03171  1.0000
  H   H379      1.0  0.14199  0.84827  0.03143  1.0000
  H   H380      1.0  0.13727  0.82985  0.07663  1.0000
  H   H381      1.0  0.22231  0.78544  0.06446  1.0000
  H   H382      1.0  0.22731  0.80443  0.01933  1.0000
  C   C236      1.0  0.36043  0.72458  0.04718  1.0000
  C   C237      1.0  0.33449  0.72514  0.06260  1.0000
  C   C238      1.0  0.32635  0.70114  0.07270  1.0000
  H   H383      1.0  0.36679  0.74309  0.03925  1.0000
  H   H384      1.0  0.30635  0.70152  0.08480  1.0000
  H   H385      1.0  0.45315  0.96469  0.15574  1.0000
  C   C239      1.0  0.47740  0.98178  0.10547  1.0000
  H   H386      1.0  0.34676  0.74377  0.99415  1.0000
  H   H387      1.0  0.33776  0.65995  0.99806  1.0000
  C   C240      1.0  0.37811  0.70013  0.04153  1.0000
  H   H388      1.0  0.27689  0.54186  0.11065  1.0000
  H   H389      1.0  0.05551  0.50127  0.17489  1.0000
  H   H390      1.0  0.00622  0.58075  0.14753  1.0000
  C   C241      1.0  0.36503  0.77183  0.09195  1.0000
  C   C242      1.0  0.10379  0.54301  0.28153  1.0000
  H   H391      1.0  0.10760  0.56296  0.28233  1.0000
  C   C243      1.0  0.02568  0.68407  0.25561  1.0000
  C   C244      1.0  0.47332  0.89615  0.12078  1.0000
  H   H392      1.0  0.33710  0.65812  0.07321  1.0000
  C   C245      1.0  0.44640  0.73636  0.02506  1.0000
  H   H393      1.0  0.42414  0.79961  0.99699  1.0000
  H   H394      1.0  0.28399  0.72810  0.03741  1.0000
  H   H395      1.0  0.21609  0.54779  0.10404  1.0000
  C   C246      1.0  0.43313  0.96390  0.15077  1.0000
  N   N15       1.0  0.26731  0.86462  0.06344  1.0000
  C   C247      1.0  0.28552  0.87894  0.07219  1.0000
  C   C248      1.0  0.25838  0.88107  0.03975  1.0000
  C   C249      1.0  0.28500  0.83752  0.05755  1.0000
  C   C250      1.0  0.24305  0.86179  0.08440  1.0000
  C   C251      1.0  0.30006  0.86384  0.09437  1.0000
  C   C252      1.0  0.24256  0.91031  0.04238  1.0000
  C   C253      1.0  0.27297  0.82099  0.04375  1.0000
  C   C254      1.0  0.21718  0.85619  0.07718  1.0000
  H   H396      1.0  0.30216  0.88383  0.05643  1.0000
  H   H397      1.0  0.27334  0.89849  0.07835  1.0000
  H   H398      1.0  0.24485  0.87215  0.03188  1.0000
  H   H399      1.0  0.27687  0.88162  0.02458  1.0000
  H   H400      1.0  0.30535  0.83976  0.04591  1.0000
  H   H401      1.0  0.29009  0.82430  0.07504  1.0000
  H   H402      1.0  0.24988  0.84574  0.09957  1.0000
  H   H403      1.0  0.23542  0.88041  0.09366  1.0000
  H   H404      1.0  0.31123  0.87706  0.10008  1.0000
  H   H405      1.0  0.28509  0.85817  0.11114  1.0000
  H   H406      1.0  0.31606  0.84585  0.08882  1.0000
  H   H407      1.0  0.22503  0.91171  0.05851  1.0000
  H   H408      1.0  0.25677  0.92278  0.04412  1.0000
  H   H409      1.0  0.23369  0.91916  0.02502  1.0000
  H   H410      1.0  0.26660  0.83167  0.02586  1.0000
  H   H411      1.0  0.25596  0.81303  0.05640  1.0000
  H   H412      1.0  0.28954  0.80327  0.03837  1.0000
  H   H413      1.0  0.20939  0.84078  0.09166  1.0000
  H   H414      1.0  0.22053  0.84872  0.05888  1.0000
  H   H415      1.0  0.19986  0.87436  0.07762  1.0000
  N   N16       1.0  0.12996  0.73110  0.12283  1.0000
  C   C255      1.0  0.13839  0.72757  0.09522  1.0000
  C   C256      1.0  0.11341  0.71048  0.13530  1.0000
  C   C257      1.0  0.15619  0.72626  0.13390  1.0000
  C   C258      1.0  0.11312  0.75937  0.12466  1.0000
  C   C259      1.0  0.15862  0.74434  0.07924  1.0000
  H   H416      1.0  0.14837  0.70627  0.09295  1.0000
  H   H417      1.0  0.11990  0.73267  0.08575  1.0000
  H   H418      1.0  0.12674  0.68994  0.13382  1.0000
  H   H419      1.0  0.17295  0.71078  0.12464  1.0000
  H   H420      1.0  0.16461  0.74459  0.13017  1.0000
  H   H421      1.0  0.12607  0.77392  0.11552  1.0000
  H   H422      1.0  0.09595  0.76460  0.11352  1.0000
  H   H423      1.0  0.16466  0.73836  0.05996  1.0000
  H   H424      1.0  0.14857  0.76600  0.07712  1.0000
  H   H425      1.0  0.17819  0.74100  0.08673  1.0000
  C   C260      1.0  0.20353  0.58909  0.09066  1.0000
  S   S85       1.0  0.04945  0.50947  0.23582  1.0000
  C   C261      1.0  0.37606  0.71236  0.11017  1.0000
  H   H426      1.0  0.44776  0.88599  0.18352  1.0000
  H   H427      1.0  0.11243  0.55088  0.24058  1.0000
  H   H428      1.0  0.31353  0.75411  0.01267  1.0000
  H   H429      1.0  0.13152  0.51571  0.17572  1.0000
  C   C262      1.0  0.25018  0.51684  0.13295  1.0000
  H   H430      1.0  0.40898  0.98555  0.18276  1.0000
  C   C263      1.0  0.43835  0.75694  0.00606  1.0000
  H   H431      1.0  0.23251  0.73532  0.04484  1.0000
  C   C264      1.0  0.99569  0.49126  0.21572  1.0000
  H   H432      1.0  0.09669  0.52315  0.25168  1.0000
  H   H433      1.0  0.18591  0.59507  0.10596  1.0000
  C   C265      1.0  0.06021  0.52092  0.09162  1.0000
  H   H434      1.0  0.39531  0.94246  0.13568  1.0000
  H   H435      1.0  0.12444  0.52881  0.28157  1.0000
  H   H436      1.0  0.37358  0.96011  0.11350  1.0000
  C   C266      1.0  0.01671  0.51002  0.28269  1.0000
  C   C267      1.0  0.99768  0.59572  0.16109  1.0000
  H   H437      1.0  0.45417  0.72649  0.06327  1.0000
  C   C268      1.0  0.39297  0.68387  0.11774  1.0000
  H   H438      1.0  0.24310  0.56099  0.08364  1.0000
  H   H439      1.0  0.34926  0.75825  0.17302  1.0000
  H   H440      1.0  0.26556  0.59054  0.09787  1.0000
  H   H441      1.0  0.34938  0.79037  0.08704  1.0000
  H   H442      1.0  0.01462  0.69143  0.23930  1.0000
  H   H443      1.0  0.04563  0.54870  0.28743  1.0000
  C   C269      1.0  0.45709  0.88723  0.14309  1.0000
  H   H444      1.0  0.21222  0.60663  0.08152  1.0000
  C   C270      1.0  0.35387  0.75819  0.11806  1.0000
  H   H445      1.0  0.41522  0.68357  0.11688  1.0000
  H   H446      1.0  0.19894  0.55954  0.14425  1.0000
  N   N17       1.0  0.23722  0.56838  0.12253  1.0000
  C   C271      1.0  0.32453  0.74312  0.99645  1.0000
  Fe  Fe41      1.0  0.41421  0.66040  0.00144  1.0000
  C   C272      1.0  0.24623  0.71865  0.03474  1.0000
  H   H447      1.0  0.02768  0.48969  0.28716  1.0000
  H   H448      1.0  0.99502  0.51236  0.21740  1.0000
  H   H449      1.0  0.03505  0.58696  0.17772  1.0000
  H   H450      1.0  0.30034  0.67595  0.03310  1.0000
  S   S86       1.0  0.46751  0.89200  0.09141  1.0000
  H   H451      1.0  0.39048  0.77899  0.13530  1.0000
  H   H452      1.0  0.32001  0.75065  0.16413  1.0000
  C   C273      1.0  0.40179  0.75905  0.14310  1.0000
  H   H453      1.0  0.07615  0.55716  0.25270  1.0000
  N   N18       1.0  0.37255  0.73259  0.12800  1.0000
  H   H454      1.0  0.38681  0.71886  0.09106  1.0000
  C   C274      1.0  0.01049  0.53876  0.09554  1.0000
  H   H455      1.0  0.23365  0.61103  0.11132  1.0000
  H   H456      1.0  0.01599  0.56239  0.23593  1.0000
  H   H457      1.0  0.45265  0.71585  0.02130  1.0000
  H   H458      1.0  0.23436  0.71471  0.02158  1.0000
  H   H459      1.0  0.41391  0.71782  0.13745  1.0000
  C   C275      1.0  0.44870  0.97619  0.10590  1.0000
  C   C276      1.0  0.27361  0.72686  0.02166  1.0000
  H   H460      1.0  0.99674  0.58111  0.09750  1.0000
  H   H461      1.0  0.01392  0.73735  0.30764  1.0000
  C   C277      1.0  0.01461  0.70268  0.27642  1.0000
  C   C278      1.0  0.29480  0.67989  0.01387  1.0000
  C   C279      1.0  0.26373  0.59936  0.13525  1.0000
  H   H462      1.0  0.38423  0.67481  0.13659  1.0000
  H   H463      1.0  0.47553  0.80969  0.04326  1.0000
  H   H464      1.0  0.21625  0.54605  0.18052  1.0000
  H   H465      1.0  0.02453  0.66308  0.26240  1.0000
  H   H466      1.0  0.47129  0.81889  0.00196  1.0000
  H   H467      1.0  0.33456  0.73127  0.19025  1.0000
  C   C280      1.0  0.21356  0.57224  0.14456  1.0000
  H   H468      1.0  0.41872  0.95012  0.18985  1.0000
  S   S87       1.0  0.44305  0.77699  0.08262  1.0000
  S   S88       1.0  0.42636  0.83576  0.12122  1.0000
  H   H469      1.0  0.28093  0.58287  0.14096  1.0000
  H   H470      1.0  0.39082  0.96424  0.17282  1.0000
  Fe  Fe42      1.0  0.13550  0.56104  0.13510  1.0000
  C   C281      1.0  0.02368  0.52431  0.25904  1.0000
  C   C282      1.0  0.31592  0.65923  0.99812  1.0000
  C   C283      1.0  0.43107  0.78952  0.03506  1.0000
  S   S89       1.0  0.38887  0.64685  0.03804  1.0000
  C   C284      1.0  0.22594  0.56523  0.09997  1.0000
  H   H471      1.0  0.45239  0.95438  0.10469  1.0000
  H   H472      1.0  0.39387  0.75495  0.16347  1.0000
  H   H473      1.0  0.26668  0.50073  0.14053  1.0000
  H   H474      1.0  0.06454  0.59044  0.28178  1.0000
  H   H475      1.0  0.26991  0.54442  0.14300  1.0000
  H   H476      1.0  0.09198  0.70573  0.10565  1.0000
  C   C285      1.0  0.24979  0.59260  0.11547  1.0000
  H   H477      1.0  0.47794  0.81705  0.08269  1.0000
  H   H478      1.0  0.35529  0.71038  0.10783  1.0000
  H   H479      1.0  0.02986  0.69701  0.28961  1.0000
  C   C286      1.0  0.41134  0.96654  0.17518  1.0000
  S   S90       1.0  0.12567  0.58810  0.10001  1.0000
  C   C287      1.0  0.19829  0.65257  0.14956  1.0000
  H   H480      1.0  0.26790  0.74777  0.01224  1.0000
  C   C288      1.0  0.43064  0.78352  0.01124  1.0000
  C   C289      1.0  0.36939  0.67625  0.05021  1.0000
  H   H481      1.0  0.31383  0.63875  0.00682  1.0000
  C   C290      1.0  0.10119  0.76734  0.15128  1.0000
  H   H482      1.0  0.41244  0.74010  0.10924  1.0000
  H   H483      1.0  0.25023  0.70088  0.04914  1.0000
  H   H484      1.0  0.34556  0.70824  0.15211  1.0000
  Fe  Fe43      1.0  0.43190  0.87246  0.09434  1.0000
  H   H485      1.0  0.07561  0.69709  0.13696  1.0000
  H   H486      1.0  0.36823  0.75940  0.07675  1.0000
  C   C291      1.0  0.15433  0.71654  0.16238  1.0000
  H   H487      1.0  0.08270  0.78432  0.15031  1.0000
  H   H488      1.0  0.17475  0.71514  0.16776  1.0000
  C   C292      1.0  0.43983  0.76908  0.05373  1.0000
  C   C293      1.0  0.35911  0.72153  0.15379  1.0000
  C   C294      1.0  0.03343  0.51703  0.09307  1.0000
  H   H489      1.0  0.39828  0.69990  0.02986  1.0000
  H   H490      1.0  0.33328  0.75462  0.11713  1.0000
  C   C295      1.0  0.01002  0.55102  0.25384  1.0000
  H   H491      1.0  0.15046  0.69605  0.16710  1.0000
  H   H492      1.0  0.11691  0.77384  0.15883  1.0000
  C   C296      1.0  0.32216  0.71364  0.00101  1.0000
  C   C297      1.0  0.39858  0.98450  0.12251  1.0000
  H   H493      1.0  0.00430  0.59842  0.19918  1.0000
  C   C298      1.0  0.46084  0.89234  0.16634  1.0000
  H   H494      1.0  0.34934  0.77362  0.13086  1.0000
  C   C299      1.0  0.25970  0.54356  0.12725  1.0000
  H   H495      1.0  0.10677  0.71134  0.15580  1.0000
  H   H496      1.0  0.25274  0.69237  0.98575  1.0000
  C   C300      1.0  0.22105  0.56552  0.17134  1.0000
  C   C301      1.0  0.07604  0.49152  0.16455  1.0000
  H   H497      1.0  0.49048  0.83811  0.03541  1.0000
  C   C302      1.0  0.40098  0.73640  0.12871  1.0000
  C   C303      1.0  0.08690  0.71177  0.12487  1.0000
  H   H498      1.0  0.07241  0.73176  0.12514  1.0000
  H   H499      1.0  0.20732  0.58072  0.18321  1.0000
  N   N19       1.0  0.29336  0.70892  0.00345  1.0000
  H   H500      1.0  0.33120  0.70432  0.01814  1.0000
  C   C304      1.0  0.44734  0.74242  0.04884  1.0000
  H   H501      1.0  0.24823  0.60591  0.15190  1.0000
  H   H502      1.0  0.05775  0.58965  0.31581  1.0000
  H   H503      1.0  0.08479  0.50782  0.15241  1.0000
  H   H504      1.0  0.01628  0.72305  0.26674  1.0000
  C   C305      1.0  0.05201  0.58335  0.29968  1.0000
  H   H505      1.0  0.24701  0.51059  0.11559  1.0000
  H   H506      1.0  0.33656  0.70387  0.98519  1.0000
  S   S91       1.0  0.45488  0.67164  0.99835  1.0000
  C   C306      1.0  0.08191  0.50665  0.30383  1.0000
  C   C307      1.0  0.05429  0.55287  0.30291  1.0000
  H   H507      1.0  0.99949  0.67487  0.18536  1.0000
  C   C308      1.0  0.01294  0.58586  0.18379  1.0000
  H   H508      1.0  0.07360  0.50475  0.28711  1.0000
  N   N20       1.0  0.42660  0.98410  0.12830  1.0000
  C   C309      1.0  0.48025  0.90702  0.16721  1.0000
  S   S92       1.0  0.48169  0.91665  0.19595  1.0000
  H   H509      1.0  0.48547  0.97334  0.12318  1.0000
  C   C310      1.0  0.14684  0.49723  0.17266  1.0000
  H   H510      1.0  0.01557  0.64349  0.30345  1.0000
  H   H511      1.0  0.10791  0.49041  0.11650  1.0000
  H   H512      1.0  0.49266  0.97229  0.08996  1.0000
  C   C311      1.0  0.49305  0.81780  0.00394  1.0000
  C   C312      1.0  0.99525  0.52217  0.30073  1.0000
  H   H513      1.0  0.29938  0.50402  0.51319  1.0000
  C   C313      1.0  0.34826  0.49640  0.52678  1.0000
  H   H514      1.0  0.00037  0.68111  0.32433  1.0000
  C   C314      1.0  0.09187  0.53872  0.32765  1.0000
  H   H515      1.0  0.12400  0.52464  0.35107  1.0000
  H   H516      1.0  0.04164  0.50476  0.32891  1.0000
  H   H517      1.0  0.34435  0.53505  0.50240  1.0000
  H   H518      1.0  0.33070  0.50874  0.53873  1.0000
  H   H519      1.0  0.03940  0.54840  0.32031  1.0000
  C   C315      1.0  0.11881  0.51910  0.33422  1.0000
  H   H520      1.0  0.09537  0.55919  0.32639  1.0000
  H   H521      1.0  0.00264  0.86110  0.52893  1.0000
  H   H522      1.0  0.07509  0.53697  0.34429  1.0000
  C   C316      1.0  0.36063  0.51664  0.50626  1.0000
  H   H523      1.0  0.37760  0.52222  0.51276  1.0000
  H   H524      1.0  0.32417  0.50186  0.48518  1.0000
  H   H525      1.0  0.11618  0.49826  0.33929  1.0000
  H   H526      1.0  0.00619  0.90371  0.59351  1.0000
  C   C317      1.0  0.06387  0.49417  0.32694  1.0000
  H   H527      1.0  0.07142  0.49314  0.34475  1.0000
  H   H528      1.0  0.37012  0.50852  0.48824  1.0000
  H   H529      1.0  0.13697  0.51975  0.31892  1.0000
  H   H530      1.0  0.00123  0.85799  0.57858  1.0000
  H   H531      1.0  0.00085  0.88844  0.55795  1.0000
  C   C318      1.0  0.31581  0.48947  0.50237  1.0000
  H   H532      1.0  0.99490  0.72113  0.33543  1.0000
  H   H533      1.0  0.36339  0.48716  0.53985  1.0000
  Fe  Fe44      1.0  0.41151  0.67635  0.94602  1.0000
  S   S93       1.0  0.38561  0.67696  0.91685  1.0000
  H   H534      1.0  0.24329  0.91156  0.74555  1.0000
  C   C319      1.0  0.05972  0.97154  0.87458  1.0000
  H   H535      1.0  0.20418  0.88247  0.71327  1.0000
  Fe  Fe45      1.0  0.26753  0.86085  0.92769  1.0000
  H   H536      1.0  0.42152  0.70275  0.85680  1.0000
  Fe  Fe46      1.0  0.20475  0.91811  0.79519  1.0000
  S   S94       1.0  0.17902  0.94085  0.82662  1.0000
  S   S95       1.0  0.24554  0.88883  0.79816  1.0000
  Fe  Fe47      1.0  0.16077  0.93808  0.76200  1.0000
  S   S96       1.0  0.13067  0.96209  0.79044  1.0000
  S   S97       1.0  0.15538  0.93600  0.72289  1.0000
  S   S98       1.0  0.39477  0.69848  0.97932  1.0000
  H   H537      1.0  0.45003  0.64644  0.90608  1.0000
  Fe  Fe48      1.0  0.14389  0.92668  0.81859  1.0000
  S   S99       1.0  0.11807  0.90663  0.85091  1.0000
  S   S100      1.0  0.19765  0.95295  0.76517  1.0000
  S   S101      1.0  0.17036  0.90121  0.78950  1.0000
  C   C320      1.0  0.12363  0.92923  0.72098  1.0000
  C   C321      1.0  0.10003  0.93563  0.73948  1.0000
  C   C322      1.0  0.09656  0.91296  0.69780  1.0000
  C   C323      1.0  0.12181  0.91808  0.70009  1.0000
  H   H538      1.0  0.10135  0.94438  0.75556  1.0000
  H   H539      1.0  0.09530  0.90397  0.68180  1.0000
  H   H540      1.0  0.13997  0.91320  0.68572  1.0000
  H   H541      1.0  0.07373  0.93077  0.80541  1.0000
  C   C324      1.0  0.44645  0.66208  0.85364  1.0000
  H   H542      1.0  0.20610  0.88994  0.95030  1.0000
  H   H543      1.0  0.41308  0.83147  0.88593  1.0000
  C   C325      1.0  0.44919  0.63212  0.89349  1.0000
  C   C326      1.0  0.05834  0.95025  0.80694  1.0000
  H   H544      1.0  0.05609  0.93656  0.75073  1.0000
  C   C327      1.0  0.15442  0.83451  0.83975  1.0000
  C   C328      1.0  0.18592  0.92326  0.92454  1.0000
  H   H545      1.0  0.46132  0.83416  0.88798  1.0000
  C   C329      1.0  0.25537  0.89281  0.82585  1.0000
  C   C330      1.0  0.26887  0.87050  0.84055  1.0000
  H   H546      1.0  0.21851  0.93642  0.71073  1.0000
  C   C331      1.0  0.24945  0.86138  0.67984  1.0000
  C   C332      1.0  0.24729  0.91786  0.83455  1.0000
  H   H547      1.0  0.29424  0.91087  0.73723  1.0000
  H   H548      1.0  0.23776  0.93532  0.82287  1.0000
  C   C333      1.0  0.13645  0.92852  0.94378  1.0000
  H   H549      1.0  0.08814  0.97018  0.68225  1.0000
  C   C334      1.0  0.04352  0.95959  0.89530  1.0000
  C   C335      1.0  0.25152  0.92042  0.85840  1.0000
  C   C336      1.0  0.35523  0.70258  0.91479  1.0000
  C   C337      1.0  0.33708  0.70057  0.89941  1.0000
  C   C338      1.0  0.31282  0.72063  0.89707  1.0000
  C   C339      1.0  0.30668  0.74310  0.90979  1.0000
  H   H550      1.0  0.29754  0.90326  0.70597  1.0000
  H   H551      1.0  0.27636  0.88760  0.68036  1.0000
  H   H552      1.0  0.34174  0.68337  0.88933  1.0000
  H   H553      1.0  0.29886  0.71876  0.88527  1.0000
  H   H554      1.0  0.36104  0.86974  0.94329  1.0000
  H   H555      1.0  0.16904  0.91737  0.88265  1.0000
  C   C340      1.0  0.08970  0.92769  0.86758  1.0000
  H   H556      1.0  0.23087  0.91379  0.65996  1.0000
  H   H557      1.0  0.44331  0.59118  0.90704  1.0000
  H   H558      1.0  0.15722  0.83442  0.87852  1.0000
  H   H559      1.0  0.26636  0.87988  0.74215  1.0000
  C   C341      1.0  0.22440  0.85775  0.74285  1.0000
  H   H560      1.0  0.24067  0.84242  0.73307  1.0000
  C   C342      1.0  0.25782  0.89938  0.73134  1.0000
  H   H561      1.0  0.39016  0.81511  0.96645  1.0000
  H   H562      1.0  0.26154  0.86065  0.66040  1.0000
  C   C343      1.0  0.41827  0.83333  0.90428  1.0000
  H   H563      1.0  0.13938  0.96458  0.87286  1.0000
  H   H564      1.0  0.45520  0.58685  0.83935  1.0000
  H   H565      1.0  0.27650  0.86086  0.70541  1.0000
  C   C344      1.0  0.26348  0.89784  0.87371  1.0000
  H   H566      1.0  0.21034  0.86988  0.87044  1.0000
  H   H567      1.0  0.38405  0.77660  0.95998  1.0000
  C   C345      1.0  0.10584  0.93400  0.93981  1.0000
  C   C346      1.0  0.07281  0.91985  0.71594  1.0000
  H   H568      1.0  0.23076  0.86038  0.76032  1.0000
  H   H569      1.0  0.28190  0.85544  0.87643  1.0000
  H   H570      1.0  0.40834  0.86502  0.94135  1.0000
  H   H571      1.0  0.45632  0.80106  0.89816  1.0000
  H   H572      1.0  0.20869  0.94460  0.66866  1.0000
  H   H573      1.0  0.42583  0.65774  0.85405  1.0000
  H   H574      1.0  0.07834  0.89446  0.89336  1.0000
  C   C347      1.0  0.27237  0.87289  0.86474  1.0000
  H   H575      1.0  0.36379  0.78097  0.93521  1.0000
  S   S102      1.0  0.04156  0.91281  0.71301  1.0000
  C   C348      1.0  0.08323  0.95559  0.86100  1.0000
  C   C349      1.0  0.44718  0.60591  0.84778  1.0000
  S   S103      1.0  0.26586  0.90072  0.90447  1.0000
  H   H576      1.0  0.09808  0.95543  0.93279  1.0000
  H   H577      1.0  0.22753  0.87025  0.67785  1.0000
  H   H578      1.0  0.13812  0.91558  0.96216  1.0000
  Fe  Fe49      1.0  0.16855  0.97419  0.79601  1.0000
  H   H579      1.0  0.13267  0.88107  0.90565  1.0000
  H   H580      1.0  0.13659  0.96971  0.90484  1.0000
  C   C350      1.0  0.45843  0.60337  0.90703  1.0000
  C   C351      1.0  0.07338  0.91595  0.88813  1.0000
  H   H581      1.0  0.24494  0.93978  0.86521  1.0000
  H   H582      1.0  0.20250  0.91616  0.90857  1.0000
  Fe  Fe50      1.0  0.43660  0.70803  0.97355  1.0000
  H   H583      1.0  0.42587  0.80631  0.95417  1.0000
  H   H584      1.0  0.15656  0.85547  0.83376  1.0000
  H   H585      1.0  0.47966  0.59223  0.90000  1.0000
  C   C352      1.0  0.32492  0.74535  0.92501  1.0000
  S   S104      1.0  0.45198  0.68930  0.93773  1.0000
  H   H586      1.0  0.42612  0.78042  0.92459  1.0000
  C   C353      1.0  0.23241  0.92254  0.69751  1.0000
  S   S105      1.0  0.23560  0.83816  0.92724  1.0000
  H   H587      1.0  0.40299  0.78974  0.90244  1.0000
  H   H588      1.0  0.48641  0.66550  0.87739  1.0000
  H   H589      1.0  0.13317  0.92316  0.89422  1.0000
  C   C354      1.0  0.05063  0.93185  0.90209  1.0000
  H   H590      1.0  0.48290  0.54673  0.76786  1.0000
  H   H591      1.0  0.49034  0.55091  0.69091  1.0000
  H   H592      1.0  0.45668  0.82242  0.92092  1.0000
  H   H593      1.0  0.19834  0.91443  0.68213  1.0000
  H   H594      1.0  0.09600  0.96478  0.84525  1.0000
  H   H595      1.0  0.30224  0.70550  0.96320  1.0000
  C   C355      1.0  0.34898  0.72492  0.92777  1.0000
  C   C356      1.0  0.26243  0.87661  0.69446  1.0000
  H   H596      1.0  0.18241  0.91697  0.96616  1.0000
  C   C357      1.0  0.28265  0.91283  0.72156  1.0000
  H   H597      1.0  0.47713  0.57162  0.71564  1.0000
  S   S106      1.0  0.30316  0.82494  0.92484  1.0000
  H   H598      1.0  0.37118  0.87571  0.90912  1.0000
  C   C358      1.0  0.15251  0.92750  0.89710  1.0000
  C   C359      1.0  0.07446  0.93139  0.73670  1.0000
  S   S107      1.0  0.27589  0.76780  0.90670  1.0000
  C   C360      1.0  0.19682  0.86790  0.85756  1.0000
  H   H599      1.0  0.27556  0.93465  0.71582  1.0000
  H   H600      1.0  0.21579  0.92068  0.94886  1.0000
  S   S108      1.0  0.42811  0.63708  0.96840  1.0000
  H   H601      1.0  0.19588  0.88514  0.84250  1.0000
  H   H602      1.0  0.42667  0.63482  0.89298  1.0000
  H   H603      1.0  0.31215  0.66170  0.97852  1.0000
  H   H604      1.0  0.25003  0.93200  0.68843  1.0000
  H   H605      1.0  0.43518  0.62038  0.83439  1.0000
  N   N21       1.0  0.46479  0.63876  0.86732  1.0000
  N   N22       1.0  0.19906  0.81745  0.85952  1.0000
  C   C361      1.0  0.21196  0.79424  0.84451  1.0000
  C   C362      1.0  0.16777  0.82181  0.86323  1.0000
  C   C363      1.0  0.20787  0.81190  0.88492  1.0000
  C   C364      1.0  0.20871  0.84182  0.84532  1.0000
  C   C365      1.0  0.24399  0.78456  0.84128  1.0000
  H   H606      1.0  0.13169  0.83541  0.84447  1.0000
  C   C366      1.0  0.20220  0.78598  0.90134  1.0000
  H   H607      1.0  0.20521  0.84990  0.74888  1.0000
  H   H608      1.0  0.20300  0.77657  0.85290  1.0000
  H   H609      1.0  0.20693  0.79940  0.82516  1.0000
  C   C367      1.0  0.19782  0.91193  0.94903  1.0000
  H   H610      1.0  0.16130  0.80249  0.86979  1.0000
  H   H611      1.0  0.23045  0.81130  0.88303  1.0000
  H   H612      1.0  0.19700  0.82858  0.89625  1.0000
  H   H613      1.0  0.23164  0.83845  0.84331  1.0000
  H   H614      1.0  0.27564  0.85120  0.83367  1.0000
  H   H615      1.0  0.25139  0.77756  0.85951  1.0000
  H   H616      1.0  0.25068  0.76711  0.83047  1.0000
  H   H617      1.0  0.25484  0.80006  0.83038  1.0000
  N   N23       1.0  0.24256  0.89541  0.71176  1.0000
  H   H618      1.0  0.17524  0.86974  0.86789  1.0000
  H   H619      1.0  0.45783  0.60459  0.92717  1.0000
  H   H620      1.0  0.03052  0.92459  0.82576  1.0000
  H   H621      1.0  0.17972  0.78601  0.90561  1.0000
  H   H622      1.0  0.33769  0.87035  0.92310  1.0000
  H   H623      1.0  0.16307  0.82267  0.82375  1.0000
  H   H624      1.0  0.20527  0.84570  0.82542  1.0000
  H   H625      1.0  0.03674  0.94534  0.84460  1.0000
  N   N24       1.0  0.39978  0.82064  0.92577  1.0000
  H   H626      1.0  0.32039  0.76276  0.93472  1.0000
  H   H627      1.0  0.03821  0.92257  0.91811  1.0000
  C   C368      1.0  0.36965  0.83354  0.92442  1.0000
  C   C369      1.0  0.40641  0.82148  0.95118  1.0000
  H   H628      1.0  0.25149  0.84014  0.68840  1.0000
  Fe  Fe51      1.0  0.27057  0.80165  0.92894  1.0000
  C   C370      1.0  0.36005  0.86406  0.92499  1.0000
  C   C371      1.0  0.41001  0.84840  0.95687  1.0000
  C   C372      1.0  0.13956  0.87455  0.92413  1.0000
  H   H629      1.0  0.21427  0.76779  0.89272  1.0000
  H   H630      1.0  0.41479  0.85516  0.90432  1.0000
  H   H631      1.0  0.36274  0.72652  0.93979  1.0000
  H   H632      1.0  0.36422  0.82932  0.90702  1.0000
  H   H633      1.0  0.35592  0.82477  0.94050  1.0000
  H   H634      1.0  0.20388  0.89942  0.73823  1.0000
  C   C373      1.0  0.21675  0.92332  0.67597  1.0000
  C   C374      1.0  0.21773  0.88472  0.72588  1.0000
  S   S109      1.0  0.01462  0.97800  0.91389  1.0000
  H   H635      1.0  0.20911  0.78450  0.91965  1.0000
  H   H636      1.0  0.06798  0.96408  0.81351  1.0000
  H   H637      1.0  0.39347  0.75373  0.93739  1.0000
  H   H638      1.0  0.12180  0.87876  0.93981  1.0000
  H   H639      1.0  0.17032  0.96301  0.88455  1.0000
  C   C375      1.0  0.38510  0.77520  0.93982  1.0000
  H   H640      1.0  0.25906  0.70784  0.95460  1.0000
  H   H641      1.0  0.10178  0.92131  0.92748  1.0000
  H   H642      1.0  0.14682  0.85238  0.92577  1.0000
  S   S110      1.0  0.00914  0.97242  0.66564  1.0000
  H   H643      1.0  0.39407  0.85525  0.97321  1.0000
  H   H644      1.0  0.01362  0.97708  0.78168  1.0000
  H   H645      1.0  0.45580  0.66544  0.83332  1.0000
  C   C376      1.0  0.44005  0.68928  0.86386  1.0000
  H   H646      1.0  0.43530  0.68734  0.88468  1.0000
  N   N25       1.0  0.15885  0.91657  0.92317  1.0000
  H   H647      1.0  0.48336  0.62185  0.83258  1.0000
  C   C377      1.0  0.14957  0.95798  0.88977  1.0000
  Fe  Fe52      1.0  0.23141  0.83319  0.96917  1.0000
  C   C378      1.0  0.44986  0.82183  0.90309  1.0000
  H   H648      1.0  0.18365  0.94532  0.92259  1.0000
  Fe  Fe53      1.0  0.46729  0.65188  0.96312  1.0000
  H   H649      1.0  0.45762  0.69937  0.85703  1.0000
  H   H650      1.0  0.47160  0.53878  0.72038  1.0000
  H   H651      1.0  0.43299  0.60182  0.86565  1.0000
  C   C379      1.0  0.40467  0.79155  0.92204  1.0000
  C   C380      1.0  0.03201  0.94560  0.82563  1.0000
  H   H652      1.0  0.47968  0.57516  0.78338  1.0000
  C   C381      1.0  0.47206  0.61594  0.85170  1.0000
  H   H653      1.0  0.05478  0.95788  0.78753  1.0000
  S   S111      1.0  0.43921  0.75020  0.97546  1.0000
  C   C382      1.0  0.16370  0.88642  0.92668  1.0000
  H   H654      1.0  0.43063  0.84548  0.96245  1.0000
  H   H655      1.0  0.13960  0.94820  0.94647  1.0000
  H   H656      1.0  0.09236  0.93047  0.95835  1.0000
  H   H657      1.0  0.16849  0.87785  0.94578  1.0000
  H   H658      1.0  0.18225  0.87772  0.91312  1.0000
  H   H659      1.0  0.48688  0.59838  0.85944  1.0000
  H   H660      1.0  0.48096  0.58773  0.96819  1.0000
  Fe  Fe54      1.0  0.29371  0.82064  0.96695  1.0000
  N   N26       1.0  0.00492  0.96533  0.82237  1.0000
  H   H661      1.0  0.49222  0.54113  0.95735  1.0000
  S   S112      1.0  0.26083  0.85872  0.96964  1.0000
  H   H662      1.0  0.28453  0.73720  0.97068  1.0000
  H   H663      1.0  0.01730  0.92628  0.78798  1.0000
  C   C383      1.0  0.49112  0.64700  0.86824  1.0000
  C   C384      1.0  0.48710  0.55097  0.71164  1.0000
  S   S113      1.0  0.26351  0.79454  0.97099  1.0000
  S   S114      1.0  0.48380  0.49172  0.68727  1.0000
  Fe  Fe55      1.0  0.00929  0.95011  0.70448  1.0000
  H   H664      1.0  0.49287  0.58930  0.73968  1.0000
  H   H665      1.0  0.31384  0.86453  0.98009  1.0000
  H   H666      1.0  0.24042  0.72841  0.97884  1.0000
  H   H667      1.0  0.00096  0.93794  0.87428  1.0000
  H   H668      1.0  0.31708  0.75403  0.97911  1.0000
  C   C385      1.0  0.25772  0.71083  0.97449  1.0000
  C   C386      1.0  0.99863  0.96800  0.79616  1.0000
  C   C387      1.0  0.28562  0.71567  0.97754  1.0000
  C   C388      1.0  0.99771  0.94179  0.78711  1.0000
  H   H669      1.0  0.99497  0.94602  0.76709  1.0000
  Fe  Fe56      1.0  0.71764  0.04175  0.19783  1.0000
  S   S115      1.0  0.67128  0.05720  0.20491  1.0000
  S   S116      1.0  0.74079  0.02911  0.16044  1.0000
  Fe  Fe57      1.0  0.72383  0.04911  0.24977  1.0000
  S   S117      1.0  0.67823  0.06514  0.26137  1.0000
  H   H670      1.0  0.53133  0.11147  0.16900  1.0000
  Fe  Fe58      1.0  0.67296  0.03245  0.24251  1.0000
  Fe  Fe59      1.0  0.68028  0.08862  0.22291  1.0000
  S   S118      1.0  0.65663  0.13123  0.21530  1.0000
  S   S119      1.0  0.71867  0.01386  0.23412  1.0000
  S   S120      1.0  0.72667  0.07546  0.21271  1.0000
  C   C389      1.0  0.99266  0.42706  0.19328  1.0000
  C   C390      1.0  0.59728  0.22809  0.01936  1.0000
  Fe  Fe60      1.0  0.66008  0.13553  0.07847  1.0000
  S   S121      1.0  0.70532  0.11504  0.06963  1.0000
  S   S122      1.0  0.62942  0.11951  0.06497  1.0000
  H   H671      1.0  0.83479  0.37200  0.10509  1.0000
  H   H672      1.0  0.52009  0.27041  0.05130  1.0000
  H   H673      1.0  0.52240  0.07941  0.17208  1.0000
  H   H674      1.0  0.69199  0.21523  0.00361  1.0000
  S   S123      1.0  0.60713  0.39230  0.03276  1.0000
  C   C391      1.0  0.86111  0.39713  0.07992  1.0000
  H   H675      1.0  0.91142  0.32399  0.05401  1.0000
  C   C392      1.0  0.89220  0.33375  0.04619  1.0000
  S   S124      1.0  0.61672  0.31966  0.01792  1.0000
  Fe  Fe61      1.0  0.79167  0.20640  0.03965  1.0000
  S   S125      1.0  0.83128  0.19829  0.05516  1.0000
  S   S126      1.0  0.74770  0.21388  0.06100  1.0000
  C   C393      1.0  0.87225  0.35455  0.06252  1.0000
  C   C394      1.0  0.51698  0.25943  0.11592  1.0000
  C   C395      1.0  0.74059  0.22993  0.01263  1.0000
  S   S127      1.0  0.87593  0.12817  0.03293  1.0000
  Fe  Fe62      1.0  0.84337  0.22859  0.02285  1.0000
  C   C396      1.0  0.87691  0.46562  0.07105  1.0000
  H   H676      1.0  0.66578  0.19772  0.01547  1.0000
  H   H677      1.0  0.76526  0.10148  0.10448  1.0000
  S   S128      1.0  0.75818  0.35301  0.06698  1.0000
  H   H678      1.0  0.92637  0.40039  0.07621  1.0000
  C   C397      1.0  0.65645  0.31518  0.08363  1.0000
  H   H679      1.0  0.81938  0.08191  0.03778  1.0000
  H   H680      1.0  0.86874  0.41467  0.08192  1.0000
  S   S129      1.0  0.80712  0.17428  0.01431  1.0000
  H   H681      1.0  0.52551  0.30531  0.08401  1.0000
  C   C398      1.0  0.63404  0.02068  0.09781  1.0000
  C   C399      1.0  0.70308  0.26523  0.99932  1.0000
  C   C400      1.0  0.54263  0.09141  0.11297  1.0000
  H   H682      1.0  0.57993  0.17925  0.30847  1.0000
  H   H683      1.0  0.52733  0.24256  0.12861  1.0000
  C   C401      1.0  0.52202  0.09203  0.20846  1.0000
  H   H684      1.0  0.61163  0.31897  0.09221  1.0000
  H   H685      1.0  0.90243  0.39744  0.10568  1.0000
  H   H686      1.0  0.54507  0.21058  0.00030  1.0000
  C   C402      1.0  0.63135  0.14802  0.29863  1.0000
  C   C403      1.0  0.67489  0.34871  0.05103  1.0000
  C   C404      1.0  0.96808  0.41766  0.20014  1.0000
  C   C405      1.0  0.77485  0.32326  0.98837  1.0000
  S   S130      1.0  0.53968  0.14449  0.28621  1.0000
  H   H687      1.0  0.65018  0.37968  0.08794  1.0000
  C   C406      1.0  0.83205  0.28899  0.03595  1.0000
  C   C407      1.0  0.83143  0.31610  0.02770  1.0000
  C   C408      1.0  0.80855  0.33587  0.03684  1.0000
  C   C409      1.0  0.78671  0.32858  0.05487  1.0000
  C   C410      1.0  0.78745  0.30147  0.06320  1.0000
  C   C411      1.0  0.80987  0.28168  0.05346  1.0000
  H   H688      1.0  0.79795  0.14263  0.07385  1.0000
  H   H689      1.0  0.80785  0.35665  0.02975  1.0000
  H   H690      1.0  0.77082  0.29573  0.07729  1.0000
  H   H691      1.0  0.81027  0.26075  0.05990  1.0000
  Fe  Fe63      1.0  0.84795  0.16907  0.02658  1.0000
  C   C412      1.0  0.68927  0.26543  0.02437  1.0000
  C   C413      1.0  0.70196  0.24837  0.04373  1.0000
  C   C414      1.0  0.72828  0.23139  0.03778  1.0000
  N   N27       1.0  0.52294  0.25195  0.08958  1.0000
  H   H692      1.0  0.56852  0.27337  0.09654  1.0000
  H   H693      1.0  0.66925  0.27897  0.02880  1.0000
  H   H694      1.0  0.69188  0.24887  0.06317  1.0000
  H   H695      1.0  0.65962  0.15449  0.00945  1.0000
  C   C415      1.0  0.90696  0.36552  0.08195  1.0000
  C   C416      1.0  0.63149  0.41236  0.02434  1.0000
  H   H696      1.0  0.70666  0.18165  0.03689  1.0000
  C   C417      1.0  0.51661  0.21510  0.06623  1.0000
  H   H697      1.0  0.61637  0.21930  0.02659  1.0000
  H   H698      1.0  0.60030  0.26866  0.01923  1.0000
  H   H699      1.0  0.97014  0.47889  0.29180  1.0000
  C   C418      1.0  0.58817  0.25607  0.01517  1.0000
  C   C419      1.0  0.56301  0.45311  0.99817  1.0000
  H   H700      1.0  0.77799  0.13060  0.03612  1.0000
  H   H701      1.0  0.69928  0.06444  0.30314  1.0000
  H   H702      1.0  0.65040  0.06509  0.10352  1.0000
  H   H703      1.0  0.88866  0.40997  0.00441  1.0000
  H   H704      1.0  0.77933  0.12414  0.11523  1.0000
  H   H705      1.0  0.77333  0.34007  0.99909  1.0000
  H   H706      1.0  0.57228  0.18508  0.14897  1.0000
  C   C420      1.0  0.66342  0.43368  0.99282  1.0000
  C   C421      1.0  0.89628  0.39100  0.04177  1.0000
  H   H707      1.0  0.88160  0.31760  0.04573  1.0000
  C   C422      1.0  0.66040  0.13750  0.28336  1.0000
  H   H708      1.0  0.64176  0.00471  0.14749  1.0000
  H   H709      1.0  0.54159  0.09598  0.26647  1.0000
  C   C423      1.0  0.57108  0.14100  0.26497  1.0000
  C   C424      1.0  0.59007  0.11623  0.26577  1.0000
  C   C425      1.0  0.61564  0.11303  0.24943  1.0000
  C   C426      1.0  0.62300  0.13485  0.23312  1.0000
  C   C427      1.0  0.60381  0.15963  0.23195  1.0000
  H   H710      1.0  0.69915  0.15543  0.02451  1.0000
  H   H711      1.0  0.58482  0.09932  0.27872  1.0000
  H   H712      1.0  0.62941  0.09353  0.24933  1.0000
  H   H713      1.0  0.60921  0.17652  0.21906  1.0000
  H   H714      1.0  0.61530  0.47151  0.00893  1.0000
  C   C428      1.0  0.73171  0.05352  0.13538  1.0000
  C   C429      1.0  0.71292  0.07779  0.13996  1.0000
  C   C430      1.0  0.70481  0.09669  0.11976  1.0000
  C   C431      1.0  0.71570  0.09160  0.09495  1.0000
  C   C432      1.0  0.73511  0.06763  0.09035  1.0000
  C   C433      1.0  0.74300  0.04853  0.11055  1.0000
  H   H715      1.0  0.70437  0.08192  0.15908  1.0000
  H   H716      1.0  0.69036  0.11531  0.12343  1.0000
  H   H717      1.0  0.74361  0.06360  0.07117  1.0000
  H   H718      1.0  0.75764  0.02979  0.10698  1.0000
  C   C434      1.0  0.63865  0.42313  0.04310  1.0000
  Fe  Fe64      1.0  0.76147  0.39436  0.04872  1.0000
  H   H719      1.0  0.81908  0.12287  0.05127  1.0000
  H   H720      1.0  0.79495  0.30948  0.99181  1.0000
  H   H721      1.0  0.73722  0.99223  0.28990  1.0000
  S   S131      1.0  0.91273  0.46431  0.06629  1.0000
  H   H722      1.0  0.49628  0.10853  0.17958  1.0000
  H   H723      1.0  0.54890  0.14043  0.18665  1.0000
  H   H724      1.0  0.73303  0.27117  0.08019  1.0000
  H   H725      1.0  0.58300  0.10012  0.22203  1.0000
  H   H726      1.0  0.86547  0.34298  0.08086  1.0000
  H   H727      1.0  0.93589  0.37528  0.10145  1.0000
  N   N28       1.0  0.55142  0.08287  0.21402  1.0000
  C   C435      1.0  0.55010  0.06658  0.23979  1.0000
  C   C436      1.0  0.56975  0.06447  0.19563  1.0000
  H   H728      1.0  0.68952  0.00843  0.30953  1.0000
  C   C437      1.0  0.56318  0.10654  0.21454  1.0000
  H   H729      1.0  0.66436  0.44676  0.05138  1.0000
  C   C438      1.0  0.60121  0.05755  0.19646  1.0000
  C   C439      1.0  0.75255  0.30781  0.00183  1.0000
  H   H730      1.0  0.81916  0.46872  0.11675  1.0000
  H   H731      1.0  0.57105  0.05908  0.24513  1.0000
  H   H732      1.0  0.56811  0.07293  0.17598  1.0000
  H   H733      1.0  0.56287  0.04534  0.19825  1.0000
  H   H734      1.0  0.84835  0.32178  0.01385  1.0000
  H   H735      1.0  0.62906  0.03937  0.14060  1.0000
  C   C440      1.0  0.51947  0.08059  0.11370  1.0000
  C   C441      1.0  0.57484  0.24928  0.15137  1.0000
  C   C442      1.0  0.78462  0.10354  0.10983  1.0000
  H   H736      1.0  0.61067  0.07474  0.18765  1.0000
  H   H737      1.0  0.60616  0.05117  0.21563  1.0000
  H   H738      1.0  0.61157  0.04066  0.18542  1.0000
  C   C443      1.0  0.64815  0.02316  0.13751  1.0000
  C   C444      1.0  0.87689  0.40116  0.02197  1.0000
  S   S132      1.0  0.86009  0.26420  0.02389  1.0000
  C   C445      1.0  0.55053  0.25664  0.16883  1.0000
  C   C446      1.0  0.51829  0.09821  0.18061  1.0000
  S   S133      1.0  0.76943  0.46431  0.01323  1.0000
  H   H739      1.0  0.84428  0.40551  0.06869  1.0000
  C   C447      1.0  0.69677  0.36554  0.04014  1.0000
  S   S134      1.0  0.61167  0.21609  0.12043  1.0000
  H   H740      1.0  0.54428  0.27673  0.17404  1.0000
  H   H741      1.0  0.90018  0.35154  0.09856  1.0000
  N   N29       1.0  0.69320  0.18121  0.14950  1.0000
  C   C448      1.0  0.70617  0.15152  0.15346  1.0000
  C   C449      1.0  0.68003  0.18653  0.12626  1.0000
  C   C450      1.0  0.67057  0.18725  0.17200  1.0000
  C   C451      1.0  0.71535  0.19669  0.14724  1.0000
  C   C452      1.0  0.72326  0.14187  0.17502  1.0000
  C   C453      1.0  0.69984  0.17859  0.10181  1.0000
  C   C454      1.0  0.65450  0.21662  0.17272  1.0000
  C   C455      1.0  0.71020  0.22538  0.13285  1.0000
  H   H742      1.0  0.68984  0.13970  0.15697  1.0000
  H   H743      1.0  0.72088  0.14485  0.13637  1.0000
  H   H744      1.0  0.66965  0.20787  0.12222  1.0000
  H   H745      1.0  0.66297  0.17577  0.12931  1.0000
  H   H746      1.0  0.65474  0.17520  0.17356  1.0000
  H   H747      1.0  0.67902  0.18133  0.18984  1.0000
  H   H748      1.0  0.71918  0.19797  0.16628  1.0000
  H   H749      1.0  0.73545  0.18572  0.13698  1.0000
  H   H750      1.0  0.74059  0.15201  0.17282  1.0000
  H   H751      1.0  0.71019  0.14382  0.19386  1.0000
  H   H752      1.0  0.73292  0.12023  0.17460  1.0000
  H   H753      1.0  0.72082  0.18203  0.10061  1.0000
  H   H754      1.0  0.70193  0.15721  0.10018  1.0000
  H   H755      1.0  0.69113  0.19053  0.08522  1.0000
  H   H756      1.0  0.66799  0.22934  0.17537  1.0000
  H   H757      1.0  0.63735  0.21757  0.18926  1.0000
  H   H758      1.0  0.64448  0.22497  0.15600  1.0000
  H   H759      1.0  0.72048  0.23772  0.14079  1.0000
  H   H760      1.0  0.68814  0.23609  0.13384  1.0000
  H   H761      1.0  0.72056  0.22512  0.11285  1.0000
  C   C456      1.0  0.70634  0.30901  0.06768  1.0000
  C   C457      1.0  0.84682  0.38673  0.10621  1.0000
  H   H762      1.0  0.92532  0.35314  0.07083  1.0000
  H   H763      1.0  0.51403  0.31432  0.05459  1.0000
  H   H764      1.0  0.54918  0.11986  0.22807  1.0000
  C   C458      1.0  0.83519  0.10158  0.09510  1.0000
  S   S135      1.0  0.69401  0.46524  0.00356  1.0000
  C   C459      1.0  0.85754  0.10914  0.99720  1.0000
  C   C460      1.0  0.91823  0.38611  0.09167  1.0000
  C   C461      1.0  0.56808  0.12488  0.18952  1.0000
  H   H765      1.0  0.58495  0.13493  0.18982  1.0000
  S   S136      1.0  0.59300  0.17672  0.01867  1.0000
  S   S137      1.0  0.64201  0.17822  0.06477  1.0000
  C   C462      1.0  0.68238  0.99806  0.10448  1.0000
  H   H766      1.0  0.67339  0.33757  0.03589  1.0000
  N   N30       1.0  0.80833  0.10035  0.08785  1.0000
  H   H767      1.0  0.76914  0.10450  0.05905  1.0000
  Fe  Fe65      1.0  0.60874  0.16252  0.05513  1.0000
  S   S138      1.0  0.52016  0.01971  0.19159  1.0000
  H   H768      1.0  0.85304  0.36255  0.05406  1.0000
  H   H769      1.0  0.51064  0.09135  0.25817  1.0000
  H   H770      1.0  0.59327  0.25563  0.07354  1.0000
  H   H771      1.0  0.83156  0.40391  0.11446  1.0000
  H   H772      1.0  0.65377  0.24303  0.98718  1.0000
  H   H773      1.0  0.68579  0.32904  0.11279  1.0000
  C   C463      1.0  0.86490  0.46431  0.05053  1.0000
  H   H774      1.0  0.75665  0.13845  0.06593  1.0000
  H   H775      1.0  0.56509  0.43447  0.98994  1.0000
  H   H776      1.0  0.75988  0.21572  0.00771  1.0000
  C   C464      1.0  0.58181  0.21167  0.01386  1.0000
  H   H777      1.0  0.51068  0.11035  0.21742  1.0000
  C   C465      1.0  0.77475  0.12405  0.05672  1.0000
  H   H778      1.0  0.95748  0.42822  0.27837  1.0000
  S   S139      1.0  0.63617  0.13792  0.11757  1.0000
  C   C466      1.0  0.66918  0.02857  0.15163  1.0000
  H   H779      1.0  0.85219  0.10054  0.07845  1.0000
  H   H780      1.0  0.72457  0.31828  0.06245  1.0000
  C   C467      1.0  0.57758  0.16261  0.24765  1.0000
  C   C468      1.0  0.64385  0.41768  0.99918  1.0000
  H   H781      1.0  0.65721  0.05597  0.05991  1.0000
  H   H782      1.0  0.54207  0.11221  0.10575  1.0000
  C   C469      1.0  0.78905  0.08335  0.13365  1.0000
  H   H783      1.0  0.87760  0.46314  0.03200  1.0000
  H   H784      1.0  0.76993  0.08709  0.14816  1.0000
  H   H785      1.0  0.64541  0.36190  0.11935  1.0000
  H   H786      1.0  0.92465  0.09535  0.00629  1.0000
  H   H787      1.0  0.94649  0.39065  0.22616  1.0000
  N   N31       1.0  0.88411  0.37702  0.06652  1.0000
  C   C470      1.0  0.51988  0.05391  0.12418  1.0000
  H   H788      1.0  0.54227  0.04833  0.23988  1.0000
  H   H789      1.0  0.93637  0.47369  0.29315  1.0000
  H   H790      1.0  0.69086  0.01775  0.14527  1.0000
  N   N32       1.0  0.65812  0.02159  0.10975  1.0000
  H   H791      1.0  0.70260  0.00355  0.10350  1.0000
  S   S140      1.0  0.93963  0.43064  0.18425  1.0000
  C   C471      1.0  0.50985  0.27398  0.07091  1.0000
  C   C472      1.0  0.62004  0.99692  0.10760  1.0000
  Fe  Fe66      1.0  0.58570  0.32287  0.99296  1.0000
  H   H792      1.0  0.89779  0.34255  0.02640  1.0000
  H   H793      1.0  0.98475  0.37224  0.25053  1.0000
  C   C473      1.0  0.53175  0.08119  0.26183  1.0000
  Fe  Fe67      1.0  0.50526  0.17096  0.26766  1.0000
  H   H794      1.0  0.69091  0.03324  0.06230  1.0000
  S   S141      1.0  0.75593  0.40655  0.00875  1.0000
  H   H795      1.0  0.56565  0.98874  0.22940  1.0000
  H   H796      1.0  0.61752  0.03946  0.09972  1.0000
  H   H797      1.0  0.68535  0.04878  0.10590  1.0000
  S   S142      1.0  0.86331  0.19882  0.99565  1.0000
  H   H798      1.0  0.70406  0.34948  0.09067  1.0000
  H   H799      1.0  0.69035  0.37921  0.02337  1.0000
  C   C474      1.0  0.98801  0.47521  0.24154  1.0000
  H   H800      1.0  0.62878  0.41945  0.06250  1.0000
  H   H801      1.0  0.69761  0.27393  0.09477  1.0000
  H   H802      1.0  0.82256  0.05702  0.09273  1.0000
  C   C475      1.0  0.71400  0.28542  0.08827  1.0000
  Fe  Fe68      1.0  0.73219  0.44612  0.02083  1.0000
  C   C476      1.0  0.66713  0.04725  0.09830  1.0000
  C   C477      1.0  0.67095  0.44398  0.01168  1.0000
  H   H803      1.0  0.99177  0.43308  0.27841  1.0000
  C   C478      1.0  0.62613  0.99896  0.24007  1.0000
  H   H804      1.0  0.66493  0.15296  0.26732  1.0000
  C   C479      1.0  0.53415  0.23817  0.17949  1.0000
  H   H805      1.0  0.65469  0.36329  0.05391  1.0000
  Fe  Fe69      1.0  0.94489  0.46018  0.14953  1.0000
  H   H806      1.0  0.74985  0.30846  0.02233  1.0000
  H   H807      1.0  0.86169  0.37808  0.11939  1.0000
  H   H808      1.0  0.79244  0.06236  0.12995  1.0000
  C   C480      1.0  0.55402  0.24360  0.08131  1.0000
  Fe  Fe70      1.0  0.60407  0.12468  0.10322  1.0000
  H   H809      1.0  0.64117  0.19901  0.98417  1.0000
  H   H810      1.0  0.63046  0.16878  0.30192  1.0000
  H   H811      1.0  0.62248  0.33857  0.06368  1.0000
  H   H812      1.0  0.85546  0.12469  0.11163  1.0000
  N   N33       1.0  0.67983  0.32968  0.07465  1.0000
  C   C481      1.0  0.66665  0.14879  0.99014  1.0000
  C   C482      1.0  0.93918  0.47162  0.24410  1.0000
  H   H813      1.0  0.91956  0.47038  0.25765  1.0000
  S   S143      1.0  0.75451  0.04491  0.27544  1.0000
  Fe  Fe71      1.0  0.61200  0.36376  0.00494  1.0000
  C   C483      1.0  0.67565  0.05097  0.06936  1.0000
  H   H814      1.0  0.68566  0.06826  0.06362  1.0000
  S   S144      1.0  0.90647  0.48486  0.13493  1.0000
  H   H815      1.0  0.55906  0.23651  0.06258  1.0000
  H   H816      1.0  0.51946  0.21143  0.10552  1.0000
  S   S145      1.0  0.59316  0.08834  0.12711  1.0000
  H   H817      1.0  0.75909  0.28652  0.99851  1.0000
  C   C484      1.0  0.66099  0.36794  0.10324  1.0000
  H   H818      1.0  0.86926  0.38505  0.01674  1.0000
  H   H819      1.0  0.91565  0.37783  0.03276  1.0000
  H   H820      1.0  0.56275  0.18177  0.24684  1.0000
  C   C485      1.0  0.56560  0.07556  0.12330  1.0000
  C   C486      1.0  0.72847  0.24717  0.99352  1.0000
  C   C487      1.0  0.56607  0.04884  0.13291  1.0000
  H   H821      1.0  0.58330  0.03662  0.14151  1.0000
  S   S146      1.0  0.80260  0.23908  0.00967  1.0000
  H   H822      1.0  0.80645  0.08552  0.14200  1.0000
  H   H823      1.0  0.67075  0.38219  0.10918  1.0000
  S   S147      1.0  0.58016  0.16651  0.09246  1.0000
  H   H824      1.0  0.62102  0.34933  0.09364  1.0000
  C   C488      1.0  0.54379  0.03788  0.13252  1.0000
  H   H825      1.0  0.57554  0.11379  0.17301  1.0000
  S   S148      1.0  0.80105  0.40791  0.04335  1.0000
  S   S149      1.0  0.73382  0.43235  0.06181  1.0000
  C   C489      1.0  0.62642  0.33184  0.08321  1.0000
  H   H826      1.0  0.70557  0.30025  0.05074  1.0000
  Fe  Fe72      1.0  0.61516  0.17927  0.10289  1.0000
  H   H827      1.0  0.54472  0.01713  0.13986  1.0000
  C   C490      1.0  0.95794  0.46986  0.28222  1.0000
  H   H828      1.0  0.58729  0.26374  0.14311  1.0000
  C   C491      1.0  0.58257  0.22360  0.14403  1.0000
  H   H829      1.0  0.51033  0.23004  0.05020  1.0000
  H   H830      1.0  0.90279  0.40892  0.04480  1.0000
  H   H831      1.0  0.83410  0.04834  0.04979  1.0000
  C   C492      1.0  0.74037  0.04188  0.30772  1.0000
  C   C493      1.0  0.54731  0.25116  0.00148  1.0000
  H   H832      1.0  0.69834  0.37837  0.05374  1.0000
  C   C494      1.0  0.68383  0.34337  0.09530  1.0000
  H   H833      1.0  0.83117  0.14518  0.09304  1.0000
  C   C495      1.0  0.56639  0.20494  0.15467  1.0000
  H   H834      1.0  0.52926  0.19812  0.18007  1.0000
  H   H835      1.0  0.86954  0.46764  0.11094  1.0000
  Fe  Fe73      1.0  0.77344  0.44711  0.05330  1.0000
  H   H836      1.0  0.65904  0.29886  0.07192  1.0000
  S   S150      1.0  0.50268  0.24897  0.19968  1.0000
  H   H837      1.0  0.71757  0.35306  0.03362  1.0000
  H   H838      1.0  0.65698  0.30518  0.10329  1.0000
  C   C496      1.0  0.86037  0.46716  0.09494  1.0000
  H   H839      1.0  0.71908  0.29217  0.10451  1.0000
  C   C497      1.0  0.59800  0.99808  0.24419  1.0000
  Fe  Fe74      1.0  0.82098  0.20632  0.98550  1.0000
  C   C498      1.0  0.83029  0.06959  0.05297  1.0000
  H   H840      1.0  0.66832  0.05037  0.14934  1.0000
  H   H841      1.0  0.64060  0.01987  0.07721  1.0000
  H   H842      1.0  0.94862  0.45038  0.24104  1.0000
  H   H843      1.0  0.50987  0.07658  0.21688  1.0000
  C   C499      1.0  0.50981  0.30311  0.07368  1.0000
  H   H844      1.0  0.85093  0.07426  0.05105  1.0000
  C   C500      1.0  0.65875  0.43853  0.03683  1.0000
  H   H845      1.0  0.65374  0.09503  0.31418  1.0000
  C   C501      1.0  0.96540  0.39797  0.22081  1.0000
  C   C502      1.0  0.58753  0.98885  0.22640  1.0000
  C   C503      1.0  0.56293  0.26759  0.00663  1.0000
  C   C504      1.0  0.83651  0.46444  0.05388  1.0000
  C   C505      1.0  0.57079  0.26511  0.07870  1.0000
  H   H846      1.0  0.66360  0.02203  0.17203  1.0000
  H   H847      1.0  0.63772  0.41020  0.98455  1.0000
  S   S151      1.0  0.50616  0.17284  0.22637  1.0000
  C   C506      1.0  0.54221  0.21221  0.17254  1.0000
  H   H848      1.0  0.56311  0.22632  0.09448  1.0000
  H   H849      1.0  0.52935  0.06635  0.27891  1.0000
  C   C507      1.0  0.90694  0.09523  0.99809  1.0000
  C   C508      1.0  0.81245  0.07331  0.07927  1.0000
  C   C509      1.0  0.80130  0.12285  0.06719  1.0000
  H   H850      1.0  0.83693  0.11994  0.00461  1.0000
  H   H851      1.0  0.52601  0.27629  0.11721  1.0000
  H   H852      1.0  0.53866  0.20437  0.06123  1.0000
  C   C510      1.0  0.70654  0.17426  0.01906  1.0000
  H   H853      1.0  0.81924  0.12915  0.12427  1.0000
  H   H854      1.0  0.73171  0.31682  0.99684  1.0000
  S   S152      1.0  0.63862  0.01205  0.26163  1.0000
  H   H855      1.0  0.85894  0.41735  0.02814  1.0000
  C   C511      1.0  0.88038  0.10967  0.00771  1.0000
  H   H856      1.0  0.84257  0.08379  0.10855  1.0000
  H   H857      1.0  0.79224  0.06842  0.07937  1.0000
  S   S153      1.0  0.96720  0.44690  0.11232  1.0000
  C   C512      1.0  0.98704  0.38758  0.23462  1.0000
  H   H858      1.0  0.61660  0.15025  0.28543  1.0000
  C   C513      1.0  0.55705  0.22324  0.00457  1.0000
  H   H859      1.0  0.61335  0.99428  0.12829  1.0000
  C   C514      1.0  0.83468  0.12674  0.10667  1.0000
  H   H860      1.0  0.56571  0.28127  0.06315  1.0000
  N   N34       1.0  0.95835  0.48262  0.25517  1.0000
  H   H861      1.0  0.62221  0.09831  0.30410  1.0000
  C   C515      1.0  0.51123  0.22764  0.09093  1.0000
  Fe  Fe75      1.0  0.79332  0.42346  0.00412  1.0000
  H   H862      1.0  0.90940  0.48453  0.21829  1.0000
  C   C516      1.0  0.96927  0.43914  0.28625  1.0000
  H   H863      1.0  0.72834  0.16956  0.00930  1.0000
  Fe  Fe76      1.0  0.49747  0.01021  0.16440  1.0000
  S   S154      1.0  0.55020  0.30241  0.00322  1.0000
  H   H864      1.0  0.54062  0.46337  0.00062  1.0000
  C   C517      1.0  0.68686  0.19576  0.00378  1.0000
  H   H865      1.0  0.66086  0.11953  0.27486  1.0000
  H   H866      1.0  0.68348  0.99230  0.08556  1.0000
  H   H867      1.0  0.50090  0.09315  0.10730  1.0000
  H   H868      1.0  0.73433  0.36958  0.98875  1.0000
  H   H869      1.0  0.67740  0.13305  0.29436  1.0000
  H   H870      1.0  0.64416  0.02220  0.31255  1.0000
  C   C518      1.0  0.83191  0.46756  0.09824  1.0000
  H   H871      1.0  0.94486  0.47634  0.20279  1.0000
  H   H872      1.0  0.60076  0.00076  0.09943  1.0000
  S   S155      1.0  0.78434  0.46692  0.08210  1.0000
  Fe  Fe77      1.0  0.93033  0.47430  0.09722  1.0000
  H   H873      1.0  0.82732  0.46357  0.03794  1.0000
  C   C519      1.0  0.81998  0.46608  0.07774  1.0000
  H   H874      1.0  0.56968  0.44670  0.01676  1.0000
  H   H875      1.0  0.50410  0.19978  0.06892  1.0000
  H   H876      1.0  0.52784  0.26002  0.99480  1.0000
  H   H877      1.0  0.58418  0.00509  0.26087  1.0000
  H   H878      1.0  0.67407  0.12664  0.99183  1.0000
  H   H879      1.0  0.96708  0.43222  0.30680  1.0000
  Fe  Fe78      1.0  0.98388  0.48384  0.10743  1.0000
  H   H880      1.0  0.58301  0.47950  0.02831  1.0000
  C   C520      1.0  0.64397  0.98990  0.21852  1.0000
  C   C521      1.0  0.93089  0.48598  0.21875  1.0000
  H   H881      1.0  0.66575  0.99041  0.21539  1.0000
  C   C522      1.0  0.69585  0.98672  0.30743  1.0000
  H   H882      1.0  0.75892  0.01166  0.36397  1.0000
  H   H883      1.0  0.59352  0.37182  0.59970  1.0000
  H   H884      1.0  0.58336  0.12955  0.34865  1.0000
  H   H885      1.0  0.77934  0.01999  0.31882  1.0000
  C   C523      1.0  0.65521  0.43113  0.62821  1.0000
  S   S156      1.0  0.56104  0.42486  0.60773  1.0000
  H   H886      1.0  0.49918  0.41888  0.61787  1.0000
  H   H887      1.0  0.49625  0.38223  0.56396  1.0000
  H   H888      1.0  0.67585  0.14458  0.33358  1.0000
  C   C524      1.0  0.62218  0.08273  0.34322  1.0000
  C   C525      1.0  0.58548  0.40222  0.62415  1.0000
  H   H889      1.0  0.53590  0.37845  0.57999  1.0000
  H   H890      1.0  0.67031  0.48330  0.59027  1.0000
  H   H891      1.0  0.67900  0.99920  0.35311  1.0000
  C   C526      1.0  0.61656  0.35845  0.63041  1.0000
  N   N35       1.0  0.63886  0.48274  0.62415  1.0000
  H   H892      1.0  0.62807  0.15944  0.34528  1.0000
  H   H893      1.0  0.52979  0.33492  0.62556  1.0000
  C   C527      1.0  0.63097  0.10198  0.31989  1.0000
  C   C528      1.0  0.57706  0.16887  0.32802  1.0000
  H   H894      1.0  0.62601  0.33881  0.62464  1.0000
  H   H895      1.0  0.61283  0.01099  0.32363  1.0000
  H   H896      1.0  0.65195  0.41362  0.62111  1.0000
  H   H897      1.0  0.61357  0.45448  0.62489  1.0000
  C   C529      1.0  0.59820  0.37708  0.61634  1.0000
  S   S157      1.0  0.70151  0.02211  0.38957  1.0000
  C   C530      1.0  0.53547  0.34208  0.60528  1.0000
  H   H898      1.0  0.67858  0.05493  0.34805  1.0000
  H   H899      1.0  0.67742  0.43168  0.62168  1.0000
  C   C531      1.0  0.63353  0.13748  0.34441  1.0000
  Fe  Fe79      1.0  0.53243  0.45135  0.63496  1.0000
  C   C532      1.0  0.59159  0.40889  0.64569  1.0000
  H   H900      1.0  0.55856  0.33622  0.60050  1.0000
  C   C533      1.0  0.74571  0.02271  0.35064  1.0000
  C   C534      1.0  0.52606  0.37281  0.59973  1.0000
  H   H901      1.0  0.63102  0.06183  0.33901  1.0000
  H   H902      1.0  0.63333  0.01268  0.34604  1.0000
  C   C535      1.0  0.75734  0.02775  0.32514  1.0000
  H   H903      1.0  0.52705  0.33159  0.59376  1.0000
  H   H904      1.0  0.63038  0.08484  0.35987  1.0000
  N   N36       1.0  0.49500  0.38415  0.60356  1.0000
  H   H905      1.0  0.59925  0.08519  0.34784  1.0000
  C   C536      1.0  0.66527  0.12861  0.34393  1.0000
  H   H906      1.0  0.67535  0.10961  0.33610  1.0000
  H   H907      1.0  0.52320  0.42370  0.57276  1.0000
  H   H908      1.0  0.53625  0.38161  0.61128  1.0000
  H   H909      1.0  0.66934  0.12459  0.36359  1.0000
  H   H910      1.0  0.68396  0.47320  0.61854  1.0000
  C   C537      1.0  0.71713  0.03187  0.35875  1.0000
  H   H911      1.0  0.62303  0.12936  0.36308  1.0000
  H   H912      1.0  0.55420  0.17122  0.33422  1.0000
  C   C538      1.0  0.63454  0.00785  0.32683  1.0000
  H   H913      1.0  0.49509  0.45139  0.58035  1.0000
  H   H914      1.0  0.98622  0.21144  0.62149  1.0000
  H   H915      1.0  0.58435  0.17904  0.34063  1.0000
  H   H916      1.0  0.65096  0.42727  0.64903  1.0000
  N   N37       1.0  0.62244  0.13135  0.32306  1.0000
  C   C539      1.0  0.70051  0.04746  0.34166  1.0000
  H   H917      1.0  0.86055  0.98890  0.42976  1.0000
  C   C540      1.0  0.59097  0.13864  0.32932  1.0000
  C   C541      1.0  0.50024  0.42976  0.57811  1.0000
  C   C542      1.0  0.63533  0.45676  0.61811  1.0000
  H   H918      1.0  0.63873  0.45661  0.59738  1.0000
  H   H919      1.0  0.51299  0.37644  0.64917  1.0000
  H   H920      1.0  0.58175  0.13030  0.31656  1.0000
  C   C543      1.0  0.71212  0.05244  0.31618  1.0000
  C   C544      1.0  0.83566  0.42749  0.72953  1.0000
  Fe  Fe80      1.0  0.93506  0.05696  0.91586  1.0000
  Fe  Fe81      1.0  0.72597  0.34733  0.70667  1.0000
  S   S158      1.0  0.76703  0.31848  0.70914  1.0000
  S   S159      1.0  0.68467  0.33821  0.72410  1.0000
  Fe  Fe82      1.0  0.61381  0.35787  0.95060  1.0000
  S   S160      1.0  0.61444  0.37674  0.91050  1.0000
  S   S161      1.0  0.81103  0.21007  0.94681  1.0000
  Fe  Fe83      1.0  0.81005  0.36338  0.81056  1.0000
  S   S162      1.0  0.76561  0.38292  0.82458  1.0000
  S   S163      1.0  0.83246  0.36491  0.77068  1.0000
  Fe  Fe84      1.0  0.81954  0.33359  0.86120  1.0000
  S   S164      1.0  0.77575  0.34919  0.88026  1.0000
  S   S165      1.0  0.85355  0.30756  0.88071  1.0000
  Fe  Fe85      1.0  0.76324  0.34231  0.84544  1.0000
  S   S166      1.0  0.72736  0.32521  0.84321  1.0000
  Fe  Fe86      1.0  0.78158  0.38844  0.85816  1.0000
  C   C545      1.0  0.80894  0.41839  0.94407  1.0000
  S   S167      1.0  0.80653  0.32225  0.82878  1.0000
  S   S168      1.0  0.82648  0.37336  0.84175  1.0000
  H   H921      1.0  0.82545  0.31666  0.70390  1.0000
  H   H922      1.0  0.61744  0.31383  0.76717  1.0000
  H   H923      1.0  0.57962  0.46192  0.75670  1.0000
  Fe  Fe87      1.0  0.96389  0.05791  0.86085  1.0000
  S   S169      1.0  0.95952  0.07031  0.82033  1.0000
  H   H924      1.0  0.74796  0.29146  0.95995  1.0000
  S   S170      1.0  0.98481  0.15755  0.69737  1.0000
  H   H925      1.0  0.52399  0.34061  0.76900  1.0000
  S   S171      1.0  0.94555  0.08971  0.88599  1.0000
  H   H926      1.0  0.86594  0.00233  0.75147  1.0000
  C   C546      1.0  0.55679  0.41881  0.85208  1.0000
  H   H927      1.0  0.53696  0.38455  0.76303  1.0000
  H   H928      1.0  0.68673  0.44755  0.71053  1.0000
  S   S172      1.0  0.94957  0.02558  0.88939  1.0000
  C   C547      1.0  0.66522  0.42959  0.77573  1.0000
  Fe  Fe88      1.0  0.52652  0.46514  0.68758  1.0000
  H   H929      1.0  0.53053  0.37639  0.88839  1.0000
  H   H930      1.0  0.63309  0.46577  0.90922  1.0000
  C   C548      1.0  0.94833  0.04946  0.80476  1.0000
  C   C549      1.0  0.93260  0.03126  0.81799  1.0000
  H   H931      1.0  0.77844  0.40980  0.75207  1.0000
  C   C550      1.0  0.94878  0.03334  0.76559  1.0000
  C   C551      1.0  0.95593  0.05082  0.77853  1.0000
  C   C552      1.0  0.53868  0.37515  0.74584  1.0000
  C   C553      1.0  0.54582  0.42580  0.93702  1.0000
  H   H932      1.0  0.75280  0.42835  0.70101  1.0000
  S   S173      1.0  0.97539  0.04842  0.93004  1.0000
  S   S174      1.0  0.61766  0.31371  0.95870  1.0000
  C   C554      1.0  0.61198  0.47549  0.66973  1.0000
  H   H933      1.0  0.70530  0.20217  0.93891  1.0000
  S   S175      1.0  0.64963  0.38287  0.77450  1.0000
  H   H934      1.0  0.82004  0.39583  0.72092  1.0000
  C   C555      1.0  0.82399  0.23617  0.92770  1.0000
  C   C556      1.0  0.81519  0.24640  0.90461  1.0000
  C   C557      1.0  0.82410  0.26858  0.89010  1.0000
  C   C558      1.0  0.84286  0.27955  0.89814  1.0000
  C   C559      1.0  0.85257  0.26858  0.92065  1.0000
  C   C560      1.0  0.84257  0.24734  0.93576  1.0000
  H   H935      1.0  0.80060  0.23790  0.89851  1.0000
  H   H936      1.0  0.81637  0.27723  0.87280  1.0000
  H   H937      1.0  0.86702  0.27716  0.92692  1.0000
  H   H938      1.0  0.84916  0.23974  0.95371  1.0000
  C   C561      1.0  0.64544  0.36131  0.89192  1.0000
  C   C562      1.0  0.66803  0.34615  0.90317  1.0000
  C   C563      1.0  0.69342  0.33553  0.88823  1.0000
  C   C564      1.0  0.69599  0.33920  0.86199  1.0000
  C   C565      1.0  0.67310  0.35351  0.85074  1.0000
  C   C566      1.0  0.64805  0.36501  0.86565  1.0000
  H   H939      1.0  0.66617  0.34275  0.92338  1.0000
  H   H940      1.0  0.71086  0.32405  0.89704  1.0000
  H   H941      1.0  0.67493  0.35634  0.83042  1.0000
  H   H942      1.0  0.63074  0.37671  0.85677  1.0000
  C   C567      1.0  0.78547  0.33090  0.72637  1.0000
  C   C568      1.0  0.77128  0.34450  0.74688  1.0000
  C   C569      1.0  0.78594  0.35408  0.76096  1.0000
  C   C570      1.0  0.81472  0.35105  0.75401  1.0000
  C   C571      1.0  0.82902  0.33771  0.73334  1.0000
  C   C572      1.0  0.81443  0.32716  0.71979  1.0000
  H   H943      1.0  0.74900  0.34738  0.75223  1.0000
  H   H944      1.0  0.77474  0.36436  0.77686  1.0000
  H   H945      1.0  0.85131  0.33541  0.72788  1.0000
  N   N38       1.0  0.74259  0.27224  0.78562  1.0000
  C   C573      1.0  0.77265  0.27101  0.77339  1.0000
  C   C574      1.0  0.73167  0.25472  0.77275  1.0000
  C   C575      1.0  0.74213  0.26139  0.81314  1.0000
  C   C576      1.0  0.72690  0.30114  0.78231  1.0000
  C   C577      1.0  0.78984  0.28291  0.78697  1.0000
  C   C578      1.0  0.73213  0.26278  0.74419  1.0000
  C   C579      1.0  0.71634  0.25109  0.82756  1.0000
  C   C580      1.0  0.69526  0.30749  0.79199  1.0000
  H   H946      1.0  0.78415  0.24990  0.77143  1.0000
  H   H947      1.0  0.77407  0.28171  0.75392  1.0000
  H   H948      1.0  0.70990  0.25386  0.78119  1.0000
  H   H949      1.0  0.74384  0.23359  0.77549  1.0000
  H   H950      1.0  0.76012  0.24401  0.81538  1.0000
  H   H951      1.0  0.74481  0.27666  0.82373  1.0000
  H   H952      1.0  0.73519  0.31359  0.79205  1.0000
  H   H953      1.0  0.73043  0.31019  0.76230  1.0000
  H   H954      1.0  0.77976  0.30372  0.79069  1.0000
  H   H955      1.0  0.79411  0.27044  0.80495  1.0000
  H   H956      1.0  0.81031  0.28354  0.77474  1.0000
  H   H957      1.0  0.71965  0.28334  0.73982  1.0000
  H   H958      1.0  0.75361  0.26093  0.73337  1.0000
  H   H959      1.0  0.72272  0.24905  0.73710  1.0000
  H   H960      1.0  0.71540  0.23233  0.82110  1.0000
  H   H961      1.0  0.69653  0.26604  0.82655  1.0000
  H   H962      1.0  0.71808  0.24618  0.84784  1.0000
  H   H963      1.0  0.69060  0.31045  0.81219  1.0000
  H   H964      1.0  0.68472  0.29247  0.78893  1.0000
  H   H965      1.0  0.68549  0.32644  0.78121  1.0000
  C   C581      1.0  0.58491  0.38378  0.72872  1.0000
  H   H966      1.0  0.84416  0.39481  0.92184  1.0000
  H   H967      1.0  0.67851  0.40485  0.94211  1.0000
  H   H968      1.0  0.60727  0.45675  0.66674  1.0000
  H   H969      1.0  0.98917  0.14512  0.81757  1.0000
  H   H970      1.0  0.57480  0.34996  0.77507  1.0000
  H   H971      1.0  0.60070  0.41256  0.74272  1.0000
  C   C582      1.0  0.82282  0.40611  0.92267  1.0000
  H   H972      1.0  0.65636  0.46658  0.65801  1.0000
  C   C583      1.0  0.62306  0.36533  0.65172  1.0000
  C   C584      1.0  0.79671  0.34967  0.95213  1.0000
  H   H973      1.0  0.51313  0.42000  0.86350  1.0000
  C   C585      1.0  0.78507  0.30867  0.94585  1.0000
  H   H974      1.0  0.56393  0.38107  0.88980  1.0000
  C   C586      1.0  0.82742  0.33520  0.95296  1.0000
  H   H975      1.0  0.84048  0.35020  0.94727  1.0000
  H   H976      1.0  0.57574  0.39961  0.71446  1.0000
  C   C587      1.0  0.69202  0.41338  0.83846  1.0000
  H   H977      1.0  0.79581  0.35944  0.93241  1.0000
  H   H978      1.0  0.86136  0.04677  0.72615  1.0000
  H   H979      1.0  0.60652  0.37556  0.71931  1.0000
  H   H980      1.0  0.74977  0.35599  0.93402  1.0000
  H   H981      1.0  0.79566  0.31445  0.92639  1.0000
  H   H982      1.0  0.89325  0.02239  0.67771  1.0000
  H   H983      1.0  0.81975  0.39812  0.88624  1.0000
  H   H984      1.0  0.55559  0.37333  0.93578  1.0000
  C   C588      1.0  0.76227  0.29542  0.94230  1.0000
  H   H985      1.0  0.73088  0.43547  0.73875  1.0000
  H   H986      1.0  0.53034  0.39189  0.73176  1.0000
  H   H987      1.0  0.53157  0.41361  0.94837  1.0000
  H   H988      1.0  0.61942  0.43577  0.91647  1.0000
  N   N39       1.0  0.77567  0.33243  0.96057  1.0000
  H   H989      1.0  0.86942  0.22025  0.83526  1.0000
  C   C589      1.0  0.54766  0.42869  0.90810  1.0000
  C   C590      1.0  0.93319  0.01506  0.77877  1.0000
  H   H990      1.0  0.53233  0.36734  0.69814  1.0000
  C   C591      1.0  0.70829  0.20257  0.95844  1.0000
  S   S176      1.0  0.89230  0.06476  0.93993  1.0000
  H   H991      1.0  0.77065  0.44305  0.96124  1.0000
  C   C592      1.0  0.65134  0.23670  0.96960  1.0000
  S   S177      1.0  0.71667  0.38692  0.72120  1.0000
  H   H992      1.0  0.60945  0.40877  0.81243  1.0000
  H   H993      1.0  0.62381  0.34507  0.75132  1.0000
  C   C593      1.0  0.74804  0.34931  0.95466  1.0000
  C   C594      1.0  0.62626  0.45102  0.90122  1.0000
  Fe  Fe89      1.0  0.99110  0.01952  0.90129  1.0000
  H   H994      1.0  0.71002  0.45743  0.86519  1.0000
  H   H995      1.0  0.75002  0.30793  0.92804  1.0000
  H   H996      1.0  0.68994  0.39278  0.87570  1.0000
  H   H997      1.0  0.55990  0.38474  0.68683  1.0000
  H   H998      1.0  0.56395  0.32929  0.71912  1.0000
  H   H999      1.0  0.91269  0.00006  0.81513  1.0000
  H   H1000     1.0  0.77339  0.39771  0.71300  1.0000
  S   S178      1.0  0.76381  0.42472  0.87834  1.0000
  H   H1001     1.0  0.95536  0.03406  0.74541  1.0000
  H   H1002     1.0  0.87858  0.98681  0.66436  1.0000
  C   C595      1.0  0.88806  0.08096  0.96665  1.0000
  H   H1003     1.0  0.56629  0.41069  0.75792  1.0000
  N   N40       1.0  0.56860  0.36225  0.73626  1.0000
  H   H1004     1.0  0.82958  0.42216  0.75012  1.0000
  C   C596      1.0  0.67931  0.40365  0.92193  1.0000
  C   C597      1.0  0.61178  0.32988  0.75165  1.0000
  H   H1005     1.0  0.57360  0.47506  0.96184  1.0000
  N   N41       1.0  0.91395  0.16978  0.91579  1.0000
  C   C598      1.0  0.89040  0.17611  0.93740  1.0000
  C   C599      1.0  0.93282  0.18868  0.91351  1.0000
  C   C600      1.0  0.93061  0.14150  0.92032  1.0000
  C   C601      1.0  0.90187  0.17270  0.89224  1.0000
  C   C602      1.0  0.87058  0.15683  0.94466  1.0000
  C   C603      1.0  0.92108  0.21804  0.90335  1.0000
  C   C604      1.0  0.94304  0.13411  0.94476  1.0000
  C   C605      1.0  0.92309  0.16880  0.86754  1.0000
  H   H1006     1.0  0.89859  0.17678  0.95453  1.0000
  H   H1007     1.0  0.87713  0.19638  0.93326  1.0000
  H   H1008     1.0  0.95331  0.18160  0.90157  1.0000
  H   H1009     1.0  0.93810  0.18910  0.93218  1.0000
  H   H1010     1.0  0.91805  0.12680  0.92031  1.0000
  H   H1011     1.0  0.94835  0.13747  0.90457  1.0000
  H   H1012     1.0  0.88933  0.15751  0.89398  1.0000
  H   H1013     1.0  0.88643  0.19212  0.88958  1.0000
  H   H1014     1.0  0.88171  0.13606  0.94988  1.0000
  H   H1015     1.0  0.85509  0.16273  0.96154  1.0000
  H   H1016     1.0  0.85860  0.15764  0.92961  1.0000
  H   H1017     1.0  0.90169  0.22702  0.91561  1.0000
  H   H1018     1.0  0.93653  0.22999  0.90305  1.0000
  H   H1019     1.0  0.91737  0.22007  0.88381  1.0000
  H   H1020     1.0  0.92685  0.13641  0.96187  1.0000
  H   H1021     1.0  0.95866  0.14575  0.94466  1.0000
  H   H1022     1.0  0.95416  0.11265  0.94611  1.0000
  H   H1023     1.0  0.92975  0.14734  0.86461  1.0000
  H   H1024     1.0  0.94192  0.17626  0.86672  1.0000
  H   H1025     1.0  0.91337  0.18038  0.85138  1.0000
  C   C606      1.0  0.55519  0.36479  0.69259  1.0000
  C   C607      1.0  0.66259  0.45327  0.78598  1.0000
  H   H1026     1.0  0.81596  0.01203  0.68076  1.0000
  N   N42       1.0  0.68640  0.19123  0.97737  1.0000
  C   C608      1.0  0.62413  0.42129  0.80487  1.0000
  H   H1027     1.0  0.49793  0.41181  0.93165  1.0000
  C   C609      1.0  0.64046  0.46107  0.80544  1.0000
  H   H1028     1.0  0.75233  0.19773  0.94321  1.0000
  H   H1029     1.0  0.56105  0.39770  0.84839  1.0000
  H   H1030     1.0  0.78445  0.44152  0.75370  1.0000
  H   H1031     1.0  0.68228  0.42353  0.76074  1.0000
  H   H1032     1.0  0.67762  0.46550  0.77882  1.0000
  H   H1033     1.0  0.58149  0.42808  0.65208  1.0000
  C   C610      1.0  0.78143  0.42271  0.90335  1.0000
  C   C611      1.0  0.51098  0.47016  0.75442  1.0000
  H   H1034     1.0  0.59320  0.34241  0.70450  1.0000
  H   H1035     1.0  0.64371  0.41701  0.88131  1.0000
  H   H1036     1.0  0.70132  0.42909  0.82590  1.0000
  H   H1037     1.0  0.79204  0.36628  0.96388  1.0000
  C   C612      1.0  0.55724  0.46631  0.76274  1.0000
  Fe  Fe90      1.0  0.64822  0.31468  0.98251  1.0000
  H   H1038     1.0  0.56996  0.42182  0.89979  1.0000
  H   H1039     1.0  0.61544  0.47267  0.68952  1.0000
  H   H1040     1.0  0.90672  0.21161  0.80275  1.0000
  H   H1041     1.0  0.85794  0.41719  0.72472  1.0000
  N   N43       1.0  0.90501  0.26304  0.81685  1.0000
  C   C613      1.0  0.91525  0.28394  0.82603  1.0000
  C   C614      1.0  0.90094  0.27311  0.79000  1.0000
  C   C615      1.0  0.92721  0.23723  0.81781  1.0000
  C   C616      1.0  0.87825  0.25967  0.83413  1.0000
  C   C617      1.0  0.92553  0.27582  0.85159  1.0000
  C   C618      1.0  0.87814  0.29894  0.78627  1.0000
  C   C619      1.0  0.92716  0.21643  0.80086  1.0000
  C   C620      1.0  0.86211  0.24137  0.82710  1.0000
  H   H1042     1.0  0.93280  0.28999  0.81202  1.0000
  H   H1043     1.0  0.89860  0.30259  0.82820  1.0000
  H   H1044     1.0  0.89563  0.25803  0.78100  1.0000
  H   H1045     1.0  0.92085  0.27672  0.77820  1.0000
  H   H1046     1.0  0.94839  0.24153  0.81218  1.0000
  H   H1047     1.0  0.92642  0.22679  0.83740  1.0000
  H   H1048     1.0  0.88217  0.25132  0.85350  1.0000
  H   H1049     1.0  0.86356  0.27939  0.83684  1.0000
  H   H1050     1.0  0.93165  0.29314  0.85636  1.0000
  H   H1051     1.0  0.90897  0.27095  0.86721  1.0000
  H   H1052     1.0  0.94421  0.25897  0.85096  1.0000
  H   H1053     1.0  0.85724  0.29607  0.79576  1.0000
  H   H1054     1.0  0.87722  0.30434  0.76586  1.0000
  C   C621      1.0  0.83563  0.00752  0.66713  1.0000
  H   H1055     1.0  0.53923  0.44592  0.94355  1.0000
  H   H1056     1.0  0.94197  0.19736  0.80612  1.0000
  H   H1057     1.0  0.93481  0.22306  0.78078  1.0000
  Fe  Fe91      1.0  0.67070  0.35942  0.68818  1.0000
  H   H1058     1.0  0.86300  0.24247  0.80662  1.0000
  C   C622      1.0  0.65841  0.20589  0.97049  1.0000
  H   H1059     1.0  0.92646  0.03040  0.83822  1.0000
  C   C623      1.0  0.57103  0.34838  0.71359  1.0000
  C   C624      1.0  0.80895  0.40792  0.90252  1.0000
  H   H1060     1.0  0.73894  0.24642  0.97416  1.0000
  H   H1061     1.0  0.71783  0.40915  0.86642  1.0000
  C   C625      1.0  0.58003  0.34168  0.75677  1.0000
  H   H1062     1.0  0.57015  0.32428  0.76023  1.0000
  Fe  Fe92      1.0  0.67411  0.37935  0.73566  1.0000
  C   C626      1.0  0.92468  0.01429  0.80492  1.0000
  Fe  Fe93      1.0  0.70085  0.40327  0.68507  1.0000
  H   H1063     1.0  0.61869  0.32077  0.73385  1.0000
  S   S179      1.0  0.65687  0.40015  0.70100  1.0000
  H   H1064     1.0  0.49748  0.46890  0.74191  1.0000
  C   C627      1.0  0.62109  0.44522  0.81457  1.0000
  C   C628      1.0  0.64614  0.41343  0.78546  1.0000
  C   C629      1.0  0.67241  0.48644  0.87693  1.0000
  C   C630      1.0  0.58680  0.39849  0.75026  1.0000
  H   H1065     1.0  0.49609  0.46200  0.91910  1.0000
  C   C631      1.0  0.84473  0.00205  0.74937  1.0000
  C   C632      1.0  0.77467  0.41774  0.70219  1.0000
  H   H1066     1.0  0.76141  0.46820  0.67463  1.0000
  H   H1067     1.0  0.67003  0.41610  0.83652  1.0000
  C   C633      1.0  0.87451  0.02499  0.69291  1.0000
  H   H1068     1.0  0.74653  0.44714  0.92523  1.0000
  H   H1069     1.0  0.73871  0.46535  0.74590  1.0000
  H   H1070     1.0  0.57490  0.42208  0.85857  1.0000
  C   C634      1.0  0.54168  0.38532  0.89910  1.0000
  N   N44       1.0  0.52977  0.41514  0.89810  1.0000
  H   H1071     1.0  0.73154  0.33782  0.95922  1.0000
  H   H1072     1.0  0.80569  0.46236  0.68858  1.0000
  H   H1073     1.0  0.96808  0.06494  0.76830  1.0000
  S   S180      1.0  0.64683  0.35838  0.97201  1.0000
  C   C635      1.0  0.64764  0.43732  0.87990  1.0000
  C   C636      1.0  0.73617  0.37451  0.96808  1.0000
  H   H1074     1.0  0.83534  0.32024  0.93948  1.0000
  C   C637      1.0  0.52925  0.42637  0.87071  1.0000
  S   S181      1.0  0.64519  0.34151  0.66968  1.0000
  H   H1075     1.0  0.99204  0.11150  0.85487  1.0000
  H   H1076     1.0  0.60424  0.45089  0.82966  1.0000
  C   C638      1.0  0.68999  0.46631  0.69976  1.0000
  H   H1077     1.0  0.56172  0.35411  0.67564  1.0000
  H   H1078     1.0  0.60241  0.45706  0.97639  1.0000
  H   H1079     1.0  0.89683  0.02677  0.72341  1.0000
  H   H1080     1.0  0.61533  0.39610  0.67566  1.0000
  H   H1081     1.0  0.63255  0.47835  0.95211  1.0000
  H   H1082     1.0  0.56683  0.41662  0.94187  1.0000
  C   C639      1.0  0.54585  0.47366  0.78682  1.0000
  C   C640      1.0  0.76776  0.43559  0.92447  1.0000
  H   H1083     1.0  0.59562  0.38481  0.76586  1.0000
  H   H1084     1.0  0.88243  0.31638  0.79254  1.0000
  H   H1085     1.0  0.65916  0.40004  0.92018  1.0000
  H   H1086     1.0  0.64840  0.15410  0.98036  1.0000
  H   H1087     1.0  0.55495  0.43154  0.83369  1.0000
  H   H1088     1.0  0.69627  0.38613  0.91664  1.0000
  H   H1089     1.0  0.73583  0.43758  0.76940  1.0000
  H   H1090     1.0  0.67419  0.44624  0.91742  1.0000
  H   H1091     1.0  0.66391  0.24636  0.95316  1.0000
  H   H1092     1.0  0.74866  0.38981  0.96096  1.0000
  H   H1093     1.0  0.74543  0.19346  0.97638  1.0000
  H   H1094     1.0  0.64193  0.44789  0.86161  1.0000
  C   C641      1.0  0.53982  0.46507  0.74636  1.0000
  H   H1095     1.0  0.65652  0.20141  0.95182  1.0000
  C   C642      1.0  0.69526  0.41187  0.86615  1.0000
  C   C643      1.0  0.86130  0.09437  0.97707  1.0000
  H   H1096     1.0  0.82987  0.41864  0.69466  1.0000
  H   H1097     1.0  0.83962  0.24813  0.83484  1.0000
  C   C644      1.0  0.78140  0.43319  0.94492  1.0000
  H   H1098     1.0  0.79580  0.43065  0.66395  1.0000
  H   H1099     1.0  0.98296  0.00379  0.83493  1.0000
  N   N45       1.0  0.78835  0.43240  0.71563  1.0000
  C   C645      1.0  0.77485  0.43102  0.74307  1.0000
  H   H1100     1.0  0.83160  0.99684  0.65285  1.0000
  S   S182      1.0  0.82565  0.41404  0.97010  1.0000
  H   H1101     1.0  0.80093  0.29267  0.95457  1.0000
  H   H1102     1.0  0.74416  0.16714  0.95890  1.0000
  H   H1103     1.0  0.83058  0.02015  0.75693  1.0000
  C   C646      1.0  0.81847  0.41754  0.71442  1.0000
  N   N46       1.0  0.86623  0.99859  0.70192  1.0000
  S   S183      1.0  0.95227  0.01342  0.69026  1.0000
  H   H1104     1.0  0.52315  0.44866  0.86836  1.0000
  C   C647      1.0  0.88056  0.03925  0.71288  1.0000
  H   H1105     1.0  0.70993  0.14979  0.98082  1.0000
  H   H1106     1.0  0.70341  0.39411  0.83138  1.0000
  H   H1107     1.0  0.70766  0.42902  0.90515  1.0000
  H   H1108     1.0  0.84092  0.02631  0.65669  1.0000
  H   H1109     1.0  0.54963  0.34712  0.92268  1.0000
  H   H1110     1.0  0.69231  0.15925  0.95484  1.0000
  S   S184      1.0  0.92662  0.99148  0.76298  1.0000
  H   H1111     1.0  0.51753  0.34622  0.73709  1.0000
  C   C648      1.0  0.74330  0.44315  0.74903  1.0000
  C   C649      1.0  0.68518  0.42979  0.90610  1.0000
  C   C650      1.0  0.78928  0.41273  0.67515  1.0000
  H   H1112     1.0  0.49714  0.36802  0.75932  1.0000
  N   N47       1.0  0.67810  0.43508  0.87995  1.0000
  C   C651      1.0  0.91086  0.08130  0.97730  1.0000
  H   H1113     1.0  0.80765  0.39555  0.67540  1.0000
  C   C652      1.0  0.73902  0.18899  0.95976  1.0000
  S   S185      1.0  0.71335  0.36425  0.66930  1.0000
  S   S186      1.0  0.56390  0.48311  0.86042  1.0000
  H   H1114     1.0  0.54262  0.45059  0.90183  1.0000
  H   H1115     1.0  0.88851  0.05710  0.70321  1.0000
  C   C653      1.0  0.51849  0.35614  0.75310  1.0000
  C   C654      1.0  0.78747  0.46108  0.70393  1.0000
  H   H1116     1.0  0.67462  0.48595  0.89672  1.0000
  C   C655      1.0  0.98908  0.10305  0.70640  1.0000
  C   C656      1.0  0.84062  0.00151  0.72215  1.0000
  H   H1117     1.0  0.83421  0.44936  0.72505  1.0000
  H   H1118     1.0  0.83084  0.32564  0.97209  1.0000
  S   S187      1.0  0.55485  0.45735  0.71591  1.0000
  H   H1119     1.0  0.78927  0.47333  0.71803  1.0000
  H   H1120     1.0  0.70622  0.22402  0.96015  1.0000
  C   C657      1.0  0.54134  0.36861  0.92527  1.0000
  Fe  Fe94      1.0  0.95720  0.98713  0.72684  1.0000
  S   S188      1.0  0.68959  0.28666  0.97441  1.0000
  C   C658      1.0  0.51698  0.47948  0.79469  1.0000
  C   C659      1.0  0.49996  0.42055  0.91164  1.0000
  H   H1121     1.0  0.55947  0.47480  0.79925  1.0000
  H   H1122     1.0  0.60715  0.46204  0.89363  1.0000
  C   C660      1.0  0.68718  0.45997  0.86621  1.0000
  H   H1123     1.0  0.77204  0.27585  0.93531  1.0000
  S   S189      1.0  0.57845  0.36742  0.98261  1.0000
  C   C661      1.0  0.61080  0.39070  0.65912  1.0000
  H   H1124     1.0  0.99323  0.06015  0.71284  1.0000
  H   H1125     1.0  0.82507  0.02017  0.71712  1.0000
  C   C662      1.0  0.49955  0.47731  0.77867  1.0000
  H   H1126     1.0  0.77468  0.40725  0.66536  1.0000
  H   H1127     1.0  0.98100  0.10577  0.72597  1.0000
  C   C663      1.0  0.85991  0.98932  0.67951  1.0000
  H   H1128     1.0  0.67271  0.43817  0.97335  1.0000
  H   H1129     1.0  0.71486  0.38382  0.96423  1.0000
  H   H1130     1.0  0.62920  0.24473  0.96740  1.0000
  H   H1131     1.0  0.52020  0.37012  0.93662  1.0000
  S   S190      1.0  0.51707  0.43159  0.67298  1.0000
  H   H1132     1.0  0.85785  0.03991  0.68438  1.0000
  S   S191      1.0  0.71367  0.43819  0.65974  1.0000
  H   H1133     1.0  0.68375  0.46359  0.84641  1.0000
  C   C664      1.0  0.70283  0.46717  0.67446  1.0000
  Fe  Fe95      1.0  0.98707  0.07894  0.89809  1.0000
  C   C665      1.0  0.69026  0.16203  0.97495  1.0000
  H   H1134     1.0  0.93148  0.07068  0.96968  1.0000
  H   H1135     1.0  0.84359  0.09412  0.96895  1.0000
  H   H1136     1.0  0.74195  0.47575  0.70507  1.0000
  C   C666      1.0  0.99231  0.12530  0.68845  1.0000
  H   H1137     1.0  0.98645  0.23528  0.65974  1.0000
  C   C667      1.0  0.76175  0.47616  0.69205  1.0000
  C   C668      1.0  0.63828  0.48171  0.65197  1.0000
  C   C669      1.0  0.58137  0.47047  0.98012  1.0000
  S   S192      1.0  0.54517  0.48280  0.64968  1.0000
  C   C670      1.0  0.57172  0.89886  0.16563  1.0000
  H   H1138     1.0  0.92427  0.70162  0.27046  1.0000
  H   H1139     1.0  0.64854  0.97443  0.30504  1.0000
  H   H1140     1.0  0.53873  0.90896  0.19619  1.0000
  N   N48       1.0  0.52008  0.80042  0.04166  1.0000
  S   S193      1.0  0.96468  0.49487  0.14609  1.0000
  C   C671      1.0  0.96182  0.63054  0.12446  1.0000
  H   H1141     1.0  0.51235  0.92610  0.14549  1.0000
  C   C672      1.0  0.89087  0.54816  0.06076  1.0000
  S   S194      1.0  0.51851  0.96007  0.22201  1.0000
  C   C673      1.0  0.55212  0.83042  0.01533  1.0000
  H   H1142     1.0  0.57155  0.87607  0.25326  1.0000
  H   H1143     1.0  0.92521  0.72612  0.28911  1.0000
  H   H1144     1.0  0.94589  0.63753  0.11204  1.0000
  H   H1145     1.0  0.88427  0.53701  0.10047  1.0000
  H   H1146     1.0  0.93384  0.58121  0.18730  1.0000
  Fe  Fe96      1.0  0.49565  0.95505  0.19273  1.0000
  H   H1147     1.0  0.56859  0.83034  0.99828  1.0000
  C   C674      1.0  0.87218  0.53896  0.08521  1.0000
  H   H1148     1.0  0.80561  0.55363  0.11804  1.0000
  C   C675      1.0  0.84710  0.58375  0.09500  1.0000
  H   H1149     1.0  0.80704  0.59705  0.12024  1.0000
  C   C676      1.0  0.96642  0.70290  0.27286  1.0000
  S   S195      1.0  0.92724  0.63888  0.29190  1.0000
  H   H1150     1.0  0.87925  0.55971  0.04586  1.0000
  S   S196      1.0  0.95175  0.56296  0.31565  1.0000
  H   H1151     1.0  0.98297  0.49027  0.20198  1.0000
  H   H1152     1.0  0.80729  0.61059  0.08737  1.0000
  H   H1153     1.0  0.96407  0.58866  0.13220  1.0000
  S   S197      1.0  0.90773  0.56164  0.13226  1.0000
  S   S198      1.0  0.87937  0.60387  0.30154  1.0000
  H   H1154     1.0  0.56285  0.83561  0.24855  1.0000
  C   C677      1.0  0.60579  0.51021  0.02162  1.0000
  Fe  Fe97      1.0  0.54587  0.97801  0.18938  1.0000
  H   H1155     1.0  0.83443  0.57450  0.05413  1.0000
  H   H1156     1.0  0.90375  0.51552  0.26280  1.0000
  H   H1157     1.0  0.97294  0.68443  0.26367  1.0000
  H   H1158     1.0  0.93258  0.60706  0.14612  1.0000
  H   H1159     1.0  0.52255  0.83268  0.06098  1.0000
  Fe  Fe98      1.0  0.88236  0.60950  0.25947  1.0000
  S   S199      1.0  0.87942  0.65389  0.25521  1.0000
  S   S200      1.0  0.85844  0.58708  0.24368  1.0000
  Fe  Fe99      1.0  0.92583  0.59623  0.29292  1.0000
  C   C678      1.0  0.99275  0.65189  0.30569  1.0000
  Fe  Fe100     1.0  0.88081  0.64712  0.29661  1.0000
  N   N49       1.0  0.96637  0.60099  0.16724  1.0000
  H   H1160     1.0  0.62618  0.50155  0.02797  1.0000
  S   S201      1.0  0.92893  0.59882  0.25103  1.0000
  H   H1161     1.0  0.55899  0.81634  0.22605  1.0000
  C   C679      1.0  0.49882  0.80888  0.08786  1.0000
  C   C680      1.0  0.61730  0.89720  0.20581  1.0000
  H   H1162     1.0  0.57417  0.91807  0.15386  1.0000
  H   H1163     1.0  0.56481  0.78891  0.03030  1.0000
  C   C681      1.0  0.95529  0.60602  0.14294  1.0000
  H   H1164     1.0  0.87121  0.51796  0.08484  1.0000
  H   H1165     1.0  0.95099  0.52382  0.23635  1.0000
  H   H1166     1.0  0.54249  0.50276  0.01374  1.0000
  C   C682      1.0  0.82710  0.56064  0.07054  1.0000
  S   S202      1.0  0.95271  0.66766  0.22394  1.0000
  C   C683      1.0  0.89308  0.56817  0.16319  1.0000
  C   C684      1.0  0.89369  0.54742  0.18321  1.0000
  C   C685      1.0  0.88290  0.55331  0.20797  1.0000
  C   C686      1.0  0.87204  0.57993  0.21273  1.0000
  C   C687      1.0  0.87079  0.60055  0.19261  1.0000
  C   C688      1.0  0.88118  0.59467  0.16786  1.0000
  H   H1167     1.0  0.90235  0.52689  0.17958  1.0000
  H   H1168     1.0  0.88288  0.53730  0.22347  1.0000
  H   H1169     1.0  0.86164  0.62105  0.19617  1.0000
  H   H1170     1.0  0.88028  0.61073  0.15237  1.0000
  C   C689      1.0  0.83869  0.54314  0.13976  1.0000
  C   C690      1.0  0.56147  0.85706  0.20989  1.0000
  Fe  Fe101     1.0  0.92605  0.64265  0.25090  1.0000
  H   H1171     1.0  0.96080  0.64797  0.13391  1.0000
  C   C691      1.0  0.92393  0.63678  0.18480  1.0000
  C   C692      1.0  0.93538  0.70559  0.28444  1.0000
  H   H1172     1.0  0.73704  0.95816  0.30130  1.0000
  H   H1173     1.0  0.52400  0.87148  0.25322  1.0000
  C   C693      1.0  0.95693  0.57736  0.18345  1.0000
  C   C694      1.0  0.98091  0.54861  0.29501  1.0000
  C   C695      1.0  0.91944  0.52298  0.26929  1.0000
  N   N50       1.0  0.57170  0.88090  0.21288  1.0000
  C   C696      1.0  0.68311  0.97232  0.12357  1.0000
  H   H1174     1.0  0.91868  0.65477  0.19471  1.0000
  H   H1175     1.0  0.56689  0.92257  0.19593  1.0000
  H   H1176     1.0  0.91647  0.64354  0.16659  1.0000
  H   H1177     1.0  0.59226  0.88484  0.16213  1.0000
  H   H1178     1.0  0.52261  0.90118  0.26597  1.0000
  H   H1179     1.0  0.81314  0.54000  0.04601  1.0000
  C   C697      1.0  0.54899  0.54179  0.99816  1.0000
  C   C698      1.0  0.56178  0.90373  0.19349  1.0000
  H   H1180     1.0  0.82514  0.62272  0.10627  1.0000
  C   C699      1.0  0.52239  0.81098  0.06502  1.0000
  H   H1181     1.0  0.56407  0.90974  0.23925  1.0000
  C   C700      1.0  0.72785  0.97894  0.30564  1.0000
  H   H1182     1.0  0.60836  0.91068  0.22056  1.0000
  H   H1183     1.0  0.61245  0.86175  0.19345  1.0000
  H   H1184     1.0  0.60924  0.52737  0.00738  1.0000
  C   C701      1.0  0.82820  0.54381  0.11504  1.0000
  C   C702      1.0  0.81984  0.60443  0.10267  1.0000
  C   C703      1.0  0.55317  0.51189  0.99565  1.0000
  H   H1185     1.0  0.79813  0.87351  0.31588  1.0000
  H   H1186     1.0  0.49638  0.76430  0.02119  1.0000
  C   C704      1.0  0.95561  0.62486  0.18165  1.0000
  H   H1187     1.0  0.96365  0.51945  0.26442  1.0000
  N   N51       1.0  0.84364  0.55683  0.09142  1.0000
  C   C705      1.0  0.96740  0.55050  0.17247  1.0000
  H   H1188     1.0  0.93032  0.50754  0.21533  1.0000
  H   H1189     1.0  0.63979  0.88939  0.20672  1.0000
  H   H1190     1.0  0.98319  0.62584  0.25572  1.0000
  N   N52       1.0  0.98539  0.70328  0.29071  1.0000
  H   H1191     1.0  0.50038  0.76930  0.06368  1.0000
  H   H1192     1.0  0.54659  0.79440  0.00516  1.0000
  H   H1193     1.0  0.80494  0.57061  0.07682  1.0000
  S   S203      1.0  0.52540  0.96960  0.16007  1.0000
  C   C706      1.0  0.52896  0.89150  0.24842  1.0000
  C   C707      1.0  0.98885  0.56317  0.27192  1.0000
  H   H1194     1.0  0.61010  0.85985  0.22617  1.0000
  H   H1195     1.0  0.96041  0.61949  0.20103  1.0000
  H   H1196     1.0  0.97131  0.74663  0.28662  1.0000
  H   H1197     1.0  0.81719  0.52107  0.07590  1.0000
  C   C708      1.0  0.60309  0.87351  0.20953  1.0000
  H   H1198     1.0  0.55628  0.89110  0.15894  1.0000
  H   H1199     1.0  0.95388  0.73001  0.31412  1.0000
  H   H1200     1.0  0.69148  0.98521  0.28863  1.0000
  H   H1201     1.0  0.93236  0.69086  0.30134  1.0000
  H   H1202     1.0  0.59225  0.82301  0.22508  1.0000
  H   H1203     1.0  0.85833  0.59315  0.07737  1.0000
  H   H1204     1.0  0.86082  0.53262  0.13900  1.0000
  H   H1205     1.0  0.59045  0.51780  0.03800  1.0000
  H   H1206     1.0  0.61603  0.90904  0.18698  1.0000
  H   H1207     1.0  0.51581  0.90379  0.23490  1.0000
  H   H1208     1.0  0.54242  0.80062  0.07155  1.0000
  H   H1209     1.0  0.90416  0.56041  0.06481  1.0000
  H   H1210     1.0  0.53422  0.75585  0.01201  1.0000
  H   H1211     1.0  0.84744  0.52437  0.05188  1.0000
  C   C709      1.0  0.49701  0.91524  0.14495  1.0000
  C   C710      1.0  0.82648  0.53484  0.06074  1.0000
  C   C711      1.0  0.60541  0.97964  0.20490  1.0000
  C   C712      1.0  0.56949  0.83177  0.22865  1.0000
  H   H1212     1.0  0.82909  0.52261  0.11319  1.0000
  H   H1213     1.0  0.98982  0.53613  0.09622  1.0000
  H   H1214     1.0  0.50637  0.91643  0.10455  1.0000
  H   H1215     1.0  0.83570  0.56343  0.14506  1.0000
  C   C713      1.0  0.56038  0.88965  0.23871  1.0000
  H   H1216     1.0  0.96309  0.57418  0.20233  1.0000
  H   H1217     1.0  0.91223  0.62249  0.19671  1.0000
  C   C714      1.0  0.51654  0.75626  0.02792  1.0000
  H   H1218     1.0  0.69778  0.93828  0.30532  1.0000
  C   C715      1.0  0.54630  0.80213  0.02283  1.0000
  H   H1219     1.0  0.63354  0.97809  0.10110  1.0000
  S   S204      1.0  0.59266  0.96809  0.18248  1.0000
  H   H1220     1.0  0.56979  0.85094  0.19074  1.0000
  H   H1221     1.0  0.53348  0.84583  0.01088  1.0000
  C   C716      1.0  0.49369  0.90965  0.12178  1.0000
  H   H1222     1.0  0.86060  0.58166  0.10920  1.0000
  H   H1223     1.0  0.56012  0.83640  0.03040  1.0000
  H   H1224     1.0  0.99042  0.54395  0.16879  1.0000
  Fe  Fe102     1.0  0.92848  0.51848  0.12787  1.0000
  H   H1225     1.0  0.96637  0.64132  0.17325  1.0000
  H   H1226     1.0  0.53839  0.86224  0.21108  1.0000
  H   H1227     1.0  0.97861  0.58383  0.26805  1.0000
  H   H1228     1.0  0.91381  0.54519  0.26543  1.0000
  C   C717      1.0  0.63370  0.97977  0.20118  1.0000
  H   H1229     1.0  0.90455  0.53021  0.05250  1.0000
  H   H1230     1.0  0.95929  0.53488  0.18627  1.0000
  H   H1231     1.0  0.95923  0.55111  0.15508  1.0000
  C   C718      1.0  0.98808  0.65160  0.22081  1.0000
  C   C719      1.0  0.98535  0.68079  0.31221  1.0000
  H   H1232     1.0  0.98278  0.62535  0.11268  1.0000
  N   N53       1.0  0.58270  0.49593  0.98913  1.0000
  H   H1233     1.0  0.66358  0.96529  0.12745  1.0000
  H   H1234     1.0  0.82656  0.53194  0.15537  1.0000
  H   H1235     1.0  0.50047  0.82092  0.10216  1.0000
  H   H1236     1.0  0.64765  0.97226  0.18480  1.0000
  H   H1237     1.0  0.51673  0.73506  0.03585  1.0000
  H   H1238     1.0  0.50037  0.78798  0.09721  1.0000
  H   H1239     1.0  0.52646  0.55024  0.00448  1.0000
  H   H1240     1.0  0.50609  0.80036  0.99485  1.0000
  H   H1241     1.0  0.53727  0.75986  0.05741  1.0000
  C   C720      1.0  0.97460  0.72943  0.30182  1.0000
  H   H1242     1.0  0.49803  0.83657  0.99305  1.0000
  C   C721      1.0  0.94932  0.51255  0.25549  1.0000
  C   C722      1.0  0.51877  0.77138  0.04894  1.0000
  H   H1243     1.0  0.91786  0.51805  0.29003  1.0000
  H   H1244     1.0  0.96766  0.71939  0.25696  1.0000
  H   H1245     1.0  0.56005  0.54514  0.01229  1.0000
  H   H1246     1.0  0.70006  0.95595  0.11585  1.0000
  S   S205      1.0  0.94926  0.51006  0.08880  1.0000
  H   H1247     1.0  0.98512  0.64979  0.28888  1.0000
  C   C723      1.0  0.49401  0.81682  0.03220  1.0000
  H   H1248     1.0  0.68800  0.97496  0.14169  1.0000
  C   C724      1.0  0.59668  0.48816  0.01200  1.0000
  H   H1249     1.0  0.60145  0.72677  0.61889  1.0000
  H   H1250     1.0  0.88307  0.88635  0.46711  1.0000
  C   C725      1.0  0.53477  0.57545  0.60272  1.0000
  H   H1251     1.0  0.78589  0.90160  0.36379  1.0000
  C   C726      1.0  0.98683  0.90766  0.60762  1.0000
  C   C727      1.0  0.87961  0.71368  0.33593  1.0000
  H   H1252     1.0  0.96521  0.68368  0.32536  1.0000
  C   C728      1.0  0.74399  0.73095  0.59096  1.0000
  S   S206      1.0  0.61140  0.58317  0.60675  1.0000
  H   H1253     1.0  0.77820  0.82480  0.33709  1.0000
  H   H1254     1.0  0.78154  0.71918  0.56295  1.0000
  C   C729      1.0  0.66475  0.96601  0.37696  1.0000
  C   C730      1.0  0.56062  0.58252  0.59701  1.0000
  C   C731      1.0  0.77095  0.82874  0.50278  1.0000
  Fe  Fe103     1.0  0.64952  0.77889  0.54646  1.0000
  S   S207      1.0  0.67272  0.76544  0.50960  1.0000
  S   S208      1.0  0.61888  0.75753  0.57202  1.0000
  Fe  Fe104     1.0  0.68000  0.82272  0.54298  1.0000
  S   S209      1.0  0.70613  0.81328  0.50588  1.0000
  S   S210      1.0  0.68563  0.85551  0.56183  1.0000
  Fe  Fe105     1.0  0.66670  0.80945  0.49585  1.0000
  S   S211      1.0  0.65464  0.82433  0.45778  1.0000
  Fe  Fe106     1.0  0.71009  0.77040  0.52254  1.0000
  S   S212      1.0  0.75124  0.74099  0.51714  1.0000
  S   S213      1.0  0.63973  0.82268  0.53171  1.0000
  S   S214      1.0  0.68756  0.78009  0.56074  1.0000
  Fe  Fe107     1.0  0.92024  0.74407  0.39544  1.0000
  S   S215      1.0  0.89202  0.78014  0.37838  1.0000
  H   H1255     1.0  0.90543  0.94123  0.47043  1.0000
  Fe  Fe108     1.0  0.90463  0.76287  0.44717  1.0000
  S   S216      1.0  0.87480  0.80022  0.43436  1.0000
  S   S217      1.0  0.90755  0.75598  0.48817  1.0000
  Fe  Fe109     1.0  0.86156  0.77364  0.41359  1.0000
  S   S218      1.0  0.81667  0.77858  0.41132  1.0000
  Fe  Fe110     1.0  0.90824  0.80305  0.40068  1.0000
  S   S219      1.0  0.92116  0.84126  0.38352  1.0000
  S   S220      1.0  0.88849  0.73572  0.42922  1.0000
  H   H1256     1.0  0.85537  0.81678  0.50449  1.0000
  S   S221      1.0  0.87099  0.84596  0.59339  1.0000
  S   S222      1.0  0.83270  0.88102  0.55218  1.0000
  Fe  Fe111     1.0  0.82579  0.85704  0.58998  1.0000
  S   S223      1.0  0.80418  0.82338  0.59384  1.0000
  Fe  Fe112     1.0  0.87704  0.87272  0.55702  1.0000
  S   S224      1.0  0.91045  0.86449  0.52317  1.0000
  H   H1257     1.0  0.87709  0.82713  0.33217  1.0000
  C   C732      1.0  0.89541  0.87089  0.38712  1.0000
  S   S225      1.0  0.75646  0.95683  0.37699  1.0000
  C   C733      1.0  0.65858  0.90106  0.50767  1.0000
  C   C734      1.0  0.85469  0.91893  0.39068  1.0000
  C   C735      1.0  0.84781  0.89450  0.40113  1.0000
  C   C736      1.0  0.86818  0.87046  0.39939  1.0000
  C   C737      1.0  0.98820  0.87341  0.56647  1.0000
  H   H1258     1.0  0.82697  0.89414  0.41077  1.0000
  H   H1259     1.0  0.86272  0.85167  0.40727  1.0000
  C   C738      1.0  0.91089  0.78525  0.49791  1.0000
  H   H1260     1.0  0.71511  0.88569  0.58198  1.0000
  C   C739      1.0  0.90592  0.81210  0.53149  1.0000
  C   C740      1.0  0.91203  0.83350  0.51369  1.0000
  C   C741      1.0  0.91843  0.83047  0.48804  1.0000
  C   C742      1.0  0.91752  0.80650  0.48014  1.0000
  H   H1261     1.0  0.91825  0.88941  0.42874  1.0000
  H   H1262     1.0  0.92354  0.84679  0.47420  1.0000
  H   H1263     1.0  0.92201  0.80446  0.46027  1.0000
  C   C743      1.0  0.71849  0.84706  0.57087  1.0000
  C   C744      1.0  0.73543  0.82149  0.56847  1.0000
  C   C745      1.0  0.76162  0.81452  0.57564  1.0000
  C   C746      1.0  0.77127  0.83314  0.58495  1.0000
  H   H1264     1.0  0.78735  0.70809  0.61946  1.0000
  C   C747      1.0  0.72809  0.86583  0.58013  1.0000
  H   H1265     1.0  0.72862  0.80715  0.56070  1.0000
  H   H1266     1.0  0.77482  0.79496  0.57313  1.0000
  S   S226      1.0  0.76933  0.91165  0.42555  1.0000
  N   N54       1.0  0.64175  0.92631  0.51834  1.0000
  C   C748      1.0  0.67581  0.84300  0.43612  1.0000
  C   C749      1.0  0.67235  0.84809  0.41089  1.0000
  C   C750      1.0  0.68774  0.86414  0.39338  1.0000
  C   C751      1.0  0.69509  0.85380  0.44368  1.0000
  H   H1267     1.0  0.65758  0.83968  0.40493  1.0000
  H   H1268     1.0  0.68490  0.86792  0.37395  1.0000
  H   H1269     1.0  0.69798  0.85003  0.46302  1.0000
  C   C752      1.0  0.76880  0.74877  0.48663  1.0000
  C   C753      1.0  0.75458  0.76626  0.46867  1.0000
  C   C754      1.0  0.76927  0.77480  0.44522  1.0000
  C   C755      1.0  0.79823  0.76602  0.43979  1.0000
  C   C756      1.0  0.81227  0.74763  0.45735  1.0000
  C   C757      1.0  0.79753  0.73873  0.48062  1.0000
  H   H1270     1.0  0.73222  0.77337  0.47284  1.0000
  H   H1271     1.0  0.75820  0.78877  0.43162  1.0000
  H   H1272     1.0  0.83453  0.74070  0.45341  1.0000
  H   H1273     1.0  0.80857  0.72505  0.49439  1.0000
  N   N55       1.0  0.80197  0.82641  0.49690  1.0000
  H   H1274     1.0  0.84841  0.85178  0.50669  1.0000
  C   C758      1.0  0.61330  0.50969  0.58821  1.0000
  H   H1275     1.0  0.97739  0.86900  0.61703  1.0000
  S   S227      1.0  0.75772  0.97651  0.43072  1.0000
  S   S228      1.0  0.94232  0.71023  0.37284  1.0000
  C   C759      1.0  0.70981  0.87065  0.42633  1.0000
  H   H1276     1.0  0.60946  0.66543  0.50776  1.0000
  S   S229      1.0  0.81485  0.89264  0.61133  1.0000
  C   C760      1.0  0.66629  0.68618  0.61865  1.0000
  C   C761      1.0  0.68013  0.69795  0.59636  1.0000
  C   C762      1.0  0.66561  0.72004  0.58214  1.0000
  C   C763      1.0  0.63721  0.73044  0.59022  1.0000
  C   C764      1.0  0.62338  0.71871  0.61257  1.0000
  C   C765      1.0  0.63799  0.69671  0.62691  1.0000
  H   H1277     1.0  0.70186  0.68947  0.58967  1.0000
  H   H1278     1.0  0.67618  0.72839  0.56445  1.0000
  C   C766      1.0  0.76109  0.95933  0.50092  1.0000
  H   H1279     1.0  0.91991  0.88123  0.59852  1.0000
  C   C767      1.0  0.67862  0.92653  0.54497  1.0000
  H   H1280     1.0  0.92648  0.90086  0.45444  1.0000
  C   C768      1.0  0.87550  0.95762  0.50095  1.0000
  C   C769      1.0  0.57853  0.57535  0.61466  1.0000
  H   H1281     1.0  0.68117  0.90100  0.50348  1.0000
  H   H1282     1.0  0.93316  0.86776  0.57003  1.0000
  H   H1283     1.0  0.76756  0.67532  0.63551  1.0000
  C   C770      1.0  0.65154  0.89516  0.48340  1.0000
  S   S230      1.0  0.70636  0.95049  0.42544  1.0000
  C   C771      1.0  0.85319  0.95292  0.45421  1.0000
  H   H1284     1.0  0.69408  0.90933  0.53717  1.0000
  C   C772      1.0  0.76991  0.92788  0.54671  1.0000
  H   H1285     1.0  0.96595  0.86618  0.53739  1.0000
  H   H1286     1.0  0.78274  0.83071  0.40554  1.0000
  H   H1287     1.0  0.80307  0.79378  0.33471  1.0000
  H   H1288     1.0  0.63451  0.94222  0.55396  1.0000
  C   C773      1.0  0.90499  0.95104  0.62770  1.0000
  H   H1289     1.0  0.75639  0.86649  0.51974  1.0000
  C   C774      1.0  0.79372  0.87240  0.33681  1.0000
  H   H1290     1.0  0.69030  0.75743  0.61166  1.0000
  H   H1291     1.0  0.77355  0.86645  0.34236  1.0000
  H   H1292     1.0  0.60319  0.90119  0.55700  1.0000
  H   H1293     1.0  0.93192  0.93809  0.53862  1.0000
  C   C775      1.0  0.63678  0.96127  0.47809  1.0000
  H   H1294     1.0  0.60327  0.93214  0.50366  1.0000
  H   H1295     1.0  0.85487  0.90256  0.50348  1.0000
  H   H1296     1.0  0.65335  0.87327  0.48459  1.0000
  C   C776      1.0  0.81597  0.79753  0.49393  1.0000
  C   C777      1.0  0.81000  0.84385  0.47291  1.0000
  C   C778      1.0  0.81609  0.77777  0.51847  1.0000
  C   C779      1.0  0.80058  0.83896  0.44949  1.0000
  H   H1297     1.0  0.76406  0.81994  0.48872  1.0000
  H   H1298     1.0  0.83787  0.79524  0.48395  1.0000
  H   H1299     1.0  0.80565  0.78991  0.48164  1.0000
  H   H1300     1.0  0.80163  0.86538  0.47517  1.0000
  H   H1301     1.0  0.83304  0.84121  0.46820  1.0000
  H   H1302     1.0  0.79472  0.77728  0.52861  1.0000
  H   H1303     1.0  0.80910  0.81808  0.44531  1.0000
  H   H1304     1.0  0.80875  0.85213  0.43297  1.0000
  H   H1305     1.0  0.77757  0.84398  0.45125  1.0000
  Fe  Fe113     1.0  0.50189  0.50676  0.64788  1.0000
  H   H1306     1.0  0.93216  0.83037  0.60070  1.0000
  H   H1307     1.0  0.68383  0.94560  0.53522  1.0000
  H   H1308     1.0  0.69354  0.51581  0.60108  1.0000
  C   C780      1.0  0.61540  0.50507  0.61642  1.0000
  H   H1309     1.0  0.56668  0.59354  0.57891  1.0000
  C   C781      1.0  0.94973  0.91434  0.57041  1.0000
  H   H1310     1.0  0.83818  0.96775  0.46582  1.0000
  H   H1311     1.0  0.87764  0.95848  0.41625  1.0000
  C   C782      1.0  0.64855  0.92539  0.54416  1.0000
  H   H1312     1.0  0.82632  0.75726  0.51366  1.0000
  N   N56       1.0  0.74474  0.73135  0.61834  1.0000
  C   C783      1.0  0.89860  0.72098  0.34727  1.0000
  H   H1313     1.0  0.76209  0.87349  0.59401  1.0000
  H   H1314     1.0  0.66637  0.90134  0.46667  1.0000
  C   C784      1.0  0.98551  0.85880  0.54503  1.0000
  H   H1315     1.0  0.89716  0.91703  0.49560  1.0000
  H   H1316     1.0  0.82843  0.78214  0.53117  1.0000
  H   H1317     1.0  0.82865  0.82790  0.31761  1.0000
  C   C785      1.0  0.94215  0.91687  0.54415  1.0000
  C   C786      1.0  0.91830  0.70124  0.35887  1.0000
  S   S231      1.0  0.72350  0.89760  0.37947  1.0000
  H   H1318     1.0  0.60866  0.49227  0.58221  1.0000
  C   C787      1.0  0.78831  0.90120  0.34326  1.0000
  H   H1319     1.0  0.79188  0.80521  0.36464  1.0000
  H   H1320     1.0  0.65752  0.88311  0.52190  1.0000
  H   H1321     1.0  0.74604  0.75065  0.57981  1.0000
  H   H1322     1.0  0.83959  0.94697  0.44367  1.0000
  H   H1323     1.0  0.94791  0.89601  0.62064  1.0000
  H   H1324     1.0  0.52087  0.58116  0.58910  1.0000
  H   H1325     1.0  0.97581  0.92907  0.60470  1.0000
  H   H1326     1.0  0.63013  0.90437  0.48014  1.0000
  H   H1327     1.0  0.73520  0.77497  0.61200  1.0000
  C   C788      1.0  0.81169  0.84910  0.37642  1.0000
  H   H1328     1.0  0.59578  0.52713  0.58490  1.0000
  H   H1329     1.0  0.91359  0.92454  0.42868  1.0000
  H   H1330     1.0  0.86450  0.72896  0.32686  1.0000
  C   C789      1.0  0.78183  0.84762  0.39012  1.0000
  C   C790      1.0  0.67145  0.51582  0.60932  1.0000
  S   S232      1.0  0.72977  0.92774  0.49041  1.0000
  H   H1331     1.0  0.66091  0.97958  0.39155  1.0000
  C   C791      1.0  0.93944  0.87033  0.58748  1.0000
  H   H1332     1.0  0.78062  0.76893  0.61485  1.0000
  H   H1333     1.0  0.90045  0.77155  0.53741  1.0000
  H   H1334     1.0  0.82628  0.83092  0.38394  1.0000
  H   H1335     1.0  0.81648  0.86608  0.38316  1.0000
  C   C792      1.0  0.78981  0.74884  0.60866  1.0000
  H   H1336     1.0  0.76765  0.84468  0.37858  1.0000
  C   C793      1.0  0.69170  0.94134  0.32559  1.0000
  Fe  Fe114     1.0  0.73957  0.94142  0.44918  1.0000
  H   H1337     1.0  0.75534  0.87056  0.48628  1.0000
  S   S233      1.0  0.66885  0.58774  0.64398  1.0000
  H   H1338     1.0  0.66746  0.52229  0.62823  1.0000
  H   H1339     1.0  0.90115  0.81421  0.55133  1.0000
  Fe  Fe115     1.0  0.62430  0.59351  0.64001  1.0000
  H   H1340     1.0  0.96102  0.91176  0.52969  1.0000
  H   H1341     1.0  0.93072  0.92407  0.58295  1.0000
  H   H1342     1.0  0.77183  0.86583  0.39942  1.0000
  N   N57       1.0  0.82739  0.68618  0.41211  1.0000
  C   C794      1.0  0.83718  0.70996  0.39650  1.0000
  C   C795      1.0  0.84580  0.67553  0.43182  1.0000
  C   C796      1.0  0.79743  0.69589  0.42438  1.0000
  C   C797      1.0  0.82971  0.66597  0.39465  1.0000
  C   C798      1.0  0.81891  0.72658  0.37724  1.0000
  C   C799      1.0  0.87710  0.66528  0.42177  1.0000
  C   C800      1.0  0.78671  0.67964  0.44920  1.0000
  C   C801      1.0  0.82315  0.63879  0.40678  1.0000
  H   H1343     1.0  0.83917  0.72395  0.40886  1.0000
  H   H1344     1.0  0.85836  0.70360  0.38563  1.0000
  H   H1345     1.0  0.83919  0.65880  0.44512  1.0000
  H   H1346     1.0  0.84396  0.69135  0.44386  1.0000
  H   H1347     1.0  0.79377  0.71661  0.42912  1.0000
  H   H1348     1.0  0.78301  0.69729  0.41106  1.0000
  H   H1349     1.0  0.81529  0.67418  0.38089  1.0000
  H   H1350     1.0  0.85045  0.66208  0.38226  1.0000
  H   H1351     1.0  0.89285  0.96238  0.50755  1.0000
  H   H1352     1.0  0.81827  0.71483  0.36240  1.0000
  H   H1353     1.0  0.79747  0.73551  0.38631  1.0000
  H   H1354     1.0  0.88092  0.64932  0.40958  1.0000
  H   H1355     1.0  0.88704  0.68172  0.41160  1.0000
  H   H1356     1.0  0.88802  0.65647  0.43797  1.0000
  H   H1357     1.0  0.76388  0.68750  0.45446  1.0000
  H   H1358     1.0  0.79619  0.68233  0.46490  1.0000
  H   H1359     1.0  0.79024  0.65809  0.44772  1.0000
  H   H1360     1.0  0.80044  0.63992  0.40972  1.0000
  H   H1361     1.0  0.83101  0.63096  0.42463  1.0000
  H   H1362     1.0  0.83413  0.62350  0.39398  1.0000
  C   C802      1.0  0.88758  0.93531  0.48374  1.0000
  H   H1363     1.0  0.77329  0.91562  0.56438  1.0000
  H   H1364     1.0  0.68734  0.78590  0.62709  1.0000
  H   H1365     1.0  0.86932  0.90542  0.44054  1.0000
  H   H1366     1.0  0.76516  0.81671  0.52103  1.0000
  H   H1367     1.0  0.80906  0.90194  0.49726  1.0000
  H   H1368     1.0  0.64512  0.90671  0.55643  1.0000
  H   H1369     1.0  0.82822  0.74362  0.36755  1.0000
  S   S234      1.0  0.68429  0.65748  0.63520  1.0000
  Fe  Fe116     1.0  0.73774  0.92395  0.39989  1.0000
  H   H1370     1.0  0.67573  0.94577  0.38451  1.0000
  C   C803      1.0  0.57070  0.56072  0.63791  1.0000
  H   H1371     1.0  0.83234  0.89378  0.46873  1.0000
  S   S235      1.0  0.93950  0.76744  0.41491  1.0000
  H   H1372     1.0  0.92715  0.90485  0.54373  1.0000
  C   C804      1.0  0.75312  0.92182  0.53217  1.0000
  H   H1373     1.0  0.74356  0.90500  0.53880  1.0000
  C   C805      1.0  0.90225  0.89538  0.37692  1.0000
  C   C806      1.0  0.96755  0.88889  0.60767  1.0000
  C   C807      1.0  0.78213  0.94980  0.53850  1.0000
  H   H1374     1.0  0.75643  0.70000  0.56590  1.0000
  N   N58       1.0  0.61852  0.66423  0.55911  1.0000
  C   C808      1.0  0.63488  0.65133  0.57998  1.0000
  C   C809      1.0  0.58934  0.67666  0.57134  1.0000
  C   C810      1.0  0.63246  0.68562  0.54321  1.0000
  C   C811      1.0  0.61895  0.64262  0.54383  1.0000
  C   C812      1.0  0.66647  0.64033  0.57185  1.0000
  C   C813      1.0  0.57241  0.65712  0.58791  1.0000
  C   C814      1.0  0.61384  0.71037  0.53021  1.0000
  C   C815      1.0  0.60120  0.65097  0.52287  1.0000
  H   H1375     1.0  0.63246  0.66575  0.59350  1.0000
  H   H1376     1.0  0.62690  0.63406  0.59105  1.0000
  H   H1377     1.0  0.57639  0.68788  0.55715  1.0000
  H   H1378     1.0  0.58995  0.69183  0.58323  1.0000
  H   H1379     1.0  0.64266  0.69433  0.55489  1.0000
  H   H1380     1.0  0.64958  0.67687  0.52844  1.0000
  H   H1381     1.0  0.64051  0.63428  0.53446  1.0000
  H   H1382     1.0  0.61211  0.62533  0.55634  1.0000
  H   H1383     1.0  0.67087  0.62332  0.56079  1.0000
  H   H1384     1.0  0.67731  0.65601  0.56135  1.0000
  H   H1385     1.0  0.67589  0.63246  0.58908  1.0000
  H   H1386     1.0  0.58187  0.64634  0.60438  1.0000
  H   H1387     1.0  0.55145  0.66877  0.59556  1.0000
  H   H1388     1.0  0.56911  0.64248  0.57702  1.0000
  H   H1389     1.0  0.60221  0.63297  0.51407  1.0000
  H   H1390     1.0  0.60025  0.72326  0.54427  1.0000
  H   H1391     1.0  0.60076  0.70533  0.51874  1.0000
  H   H1392     1.0  0.57893  0.65915  0.53016  1.0000
  S   S236      1.0  0.87125  0.90942  0.57530  1.0000
  C   C816      1.0  0.91929  0.67415  0.35868  1.0000
  Fe  Fe117     1.0  0.86090  0.88355  0.61168  1.0000
  N   N59       1.0  0.96145  0.88645  0.58239  1.0000
  C   C817      1.0  0.70604  0.87588  0.40118  1.0000
  H   H1393     1.0  0.72397  0.87962  0.43249  1.0000
  C   C818      1.0  0.91165  0.90567  0.44100  1.0000
  H   H1394     1.0  0.92327  0.89580  0.36742  1.0000
  Fe  Fe118     1.0  0.82620  0.91568  0.57341  1.0000
  C   C819      1.0  0.54541  0.55260  0.64315  1.0000
  H   H1395     1.0  0.86445  0.97641  0.49096  1.0000
  C   C820      1.0  0.68262  0.97720  0.35303  1.0000
  H   H1396     1.0  0.70971  0.71244  0.63181  1.0000
  Fe  Fe119     1.0  0.78517  0.94741  0.40508  1.0000
  C   C821      1.0  0.84241  0.83275  0.51555  1.0000
  H   H1397     1.0  0.73039  0.85660  0.50895  1.0000
  H   H1398     1.0  0.59923  0.94671  0.53117  1.0000
  H   H1399     1.0  0.62731  0.72285  0.51754  1.0000
  H   H1400     1.0  0.88739  0.85507  0.33886  1.0000
  H   H1401     1.0  0.80302  0.82521  0.53658  1.0000
  H   H1402     1.0  0.57745  0.90791  0.53747  1.0000
  H   H1403     1.0  0.84812  0.82727  0.53462  1.0000
  C   C822      1.0  0.81081  0.83550  0.51794  1.0000
  C   C823      1.0  0.88165  0.90606  0.45494  1.0000
  H   H1404     1.0  0.61011  0.88566  0.52841  1.0000
  H   H1405     1.0  0.77825  0.69315  0.58894  1.0000
  H   H1406     1.0  0.99297  0.90446  0.62647  1.0000
  C   C824      1.0  0.89057  0.93107  0.62883  1.0000
  C   C825      1.0  0.88036  0.68661  0.33608  1.0000
  C   C826      1.0  0.82293  0.90995  0.48075  1.0000
  C   C827      1.0  0.76650  0.70952  0.57700  1.0000
  S   S237      1.0  0.80516  0.95568  0.55561  1.0000
  H   H1407     1.0  0.67245  0.94737  0.49612  1.0000
  C   C828      1.0  0.75268  0.85734  0.50437  1.0000
  H   H1408     1.0  0.80109  0.85701  0.51952  1.0000
  H   H1409     1.0  0.61690  0.52419  0.62176  1.0000
  H   H1410     1.0  0.83324  0.93547  0.50202  1.0000
  C   C829      1.0  0.69636  0.76400  0.62743  1.0000
  C   C830      1.0  0.84508  0.91941  0.49032  1.0000
  H   H1411     1.0  0.72332  0.72861  0.58880  1.0000
  C   C831      1.0  0.90560  0.78792  0.52362  1.0000
  H   H1412     1.0  0.80937  0.92673  0.47047  1.0000
  C   C832      1.0  0.87057  0.84386  0.34382  1.0000
  C   C833      1.0  0.88198  0.91934  0.37880  1.0000
  C   C834      1.0  0.77384  0.72779  0.62343  1.0000
  C   C835      1.0  0.90036  0.66684  0.34728  1.0000
  H   H1413     1.0  0.86153  0.95107  0.51815  1.0000
  H   H1414     1.0  0.87663  0.93319  0.61575  1.0000
  H   H1415     1.0  0.84166  0.88144  0.34674  1.0000
  H   H1416     1.0  0.93464  0.65882  0.36744  1.0000
  C   C836      1.0  0.60020  0.90431  0.53711  1.0000
  C   C837      1.0  0.75467  0.85898  0.58689  1.0000
  C   C838      1.0  0.61077  0.92869  0.52181  1.0000
  C   C839      1.0  0.84301  0.86296  0.33841  1.0000
  C   C840      1.0  0.74920  0.93713  0.50900  1.0000
  N   N60       1.0  0.86729  0.92886  0.47032  1.0000
  H   H1417     1.0  0.88741  0.93823  0.37078  1.0000
  C   C841      1.0  0.52732  0.56016  0.62565  1.0000
  S   S238      1.0  0.82997  0.94935  0.39268  1.0000
  H   H1418     1.0  0.84567  0.86890  0.31761  1.0000
  H   H1419     1.0  0.66460  0.92293  0.35758  1.0000
  H   H1420     1.0  0.68096  0.92518  0.56491  1.0000
  C   C842      1.0  0.73125  0.71029  0.63516  1.0000
  S   S239      1.0  0.49565  0.55014  0.63204  1.0000
  H   H1421     1.0  0.89835  0.74186  0.34651  1.0000
  H   H1422     1.0  0.71121  0.93412  0.33368  1.0000
  H   H1423     1.0  0.65855  0.53110  0.59718  1.0000
  H   H1424     1.0  0.90103  0.64587  0.34736  1.0000
  H   H1425     1.0  0.62733  0.68795  0.64438  1.0000
  H   H1426     1.0  0.76864  0.91324  0.33718  1.0000
  H   H1427     1.0  0.74389  0.67527  0.61439  1.0000
  H   H1428     1.0  0.79109  0.74999  0.58806  1.0000
  C   C843      1.0  0.66669  0.48746  0.61012  1.0000
  H   H1429     1.0  0.64382  0.96530  0.37446  1.0000
  H   H1430     1.0  0.63236  0.51441  0.57599  1.0000
  C   C844      1.0  0.82167  0.82579  0.33844  1.0000
  H   H1431     1.0  0.96475  0.92731  0.56786  1.0000
  H   H1432     1.0  0.64361  0.96813  0.51335  1.0000
  H   H1433     1.0  0.59495  0.50153  0.62664  1.0000
  S   S240      1.0  0.61249  0.63675  0.64565  1.0000
  C   C845      1.0  0.94711  0.84216  0.60224  1.0000
  C   C846      1.0  0.79694  0.81214  0.34424  1.0000
  H   H1434     1.0  0.70450  0.96965  0.35612  1.0000
  C   C847      1.0  0.72827  0.75844  0.62563  1.0000
  C   C848      1.0  0.64952  0.95087  0.50222  1.0000
  H   H1435     1.0  0.71693  0.49203  0.64102  1.0000
  H   H1436     1.0  0.73430  0.98184  0.32291  1.0000
  H   H1437     1.0  0.80502  0.91141  0.33313  1.0000
  N   N61       1.0  0.81690  0.85240  0.34799  1.0000
  H   H1438     1.0  0.64121  0.94596  0.46524  1.0000
  H   H1439     1.0  0.94512  0.84342  0.62263  1.0000
  C   C849      1.0  0.74567  0.68076  0.63257  1.0000
  H   H1440     1.0  0.96830  0.83090  0.59497  1.0000
  H   H1441     1.0  0.86936  0.83594  0.36401  1.0000
  H   H1442     1.0  0.83862  0.81076  0.34665  1.0000
  S   S241      1.0  0.85644  0.67757  0.32217  1.0000
  H   H1443     1.0  0.81153  0.74309  0.61237  1.0000
  C   C850      1.0  0.87206  0.96781  0.43396  1.0000
  H   H1444     1.0  0.90226  0.96837  0.61353  1.0000
  H   H1445     1.0  0.98863  0.83688  0.55105  1.0000
  N   N62       1.0  0.67956  0.97069  0.32812  1.0000
  H   H1446     1.0  0.68661  0.75402  0.64545  1.0000
  C   C851      1.0  0.64971  0.97847  0.32407  1.0000
  H   H1447     1.0  0.98222  0.63921  0.32123  1.0000
  H   H1448     1.0  0.61406  0.96989  0.48246  1.0000
  C   C852      1.0  0.77732  0.96587  0.51582  1.0000
  H   H1449     1.0  0.98279  0.75558  0.32489  1.0000
  H   H1450     1.0  0.63661  0.96611  0.33719  1.0000
  H   H1451     1.0  0.98927  0.51092  0.31874  1.0000
  C   C853      1.0  0.67301  0.92155  0.33741  1.0000
  H   H1452     1.0  0.89113  0.96931  0.43993  1.0000
  H   H1453     1.0  0.78671  0.98291  0.50950  1.0000
  H   H1454     1.0  0.75761  0.97162  0.48337  1.0000
  H   H1455     1.0  0.64633  0.97785  0.46745  1.0000
  H   H1456     1.0  0.68574  0.90082  0.33609  1.0000
  H   H1457     1.0  0.65577  0.92402  0.32688  1.0000
  S   S242      1.0  0.87905  0.88181  0.64645  1.0000
  H   H1458     1.0  0.73195  0.76143  0.64422  1.0000
  C   C854      1.0  0.89420  0.90849  0.64686  1.0000
  C   C855      1.0  0.92274  0.94879  0.64486  1.0000
  H   H1459     1.0  0.77329  0.72809  0.64386  1.0000
  S   S243      1.0  0.94023  0.97439  0.64263  1.0000
  C   C856      1.0  0.99298  0.73581  0.31823  1.0000
  Fe  Fe120     1.0  0.72740  0.98286  0.40441  1.0000
  H   H1460     1.0  0.73454  0.66793  0.64744  1.0000
  C   C857      1.0  0.69282  0.54759  0.82268  1.0000
  H   H1461     1.0  0.90448  0.93749  0.72836  1.0000
  H   H1462     1.0  0.60770  0.60187  0.83223  1.0000
  H   H1463     1.0  0.97827  0.98219  0.79478  1.0000
  C   C858      1.0  0.59871  0.51103  0.96743  1.0000
  C   C859      1.0  0.68285  0.56948  0.80152  1.0000
  H   H1464     1.0  0.57968  0.57793  0.78350  1.0000
  C   C860      1.0  0.57686  0.52263  0.72729  1.0000
  H   H1465     1.0  0.61834  0.53925  0.78405  1.0000
  C   C861      1.0  0.54800  0.61297  0.79259  1.0000
  H   H1466     1.0  0.72912  0.71293  0.65532  1.0000
  H   H1467     1.0  0.62382  0.59659  0.77543  1.0000
  Fe  Fe121     1.0  0.59334  0.50652  0.83593  1.0000
  H   H1468     1.0  0.97959  0.93380  0.79755  1.0000
  S   S244      1.0  0.63776  0.48980  0.81934  1.0000
  C   C862      1.0  0.52279  0.59653  0.69361  1.0000
  H   H1469     1.0  0.55895  0.59936  0.92379  1.0000
  S   S245      1.0  0.56358  0.52839  0.81001  1.0000
  S   S246      1.0  0.58315  0.53870  0.86101  1.0000
  H   H1470     1.0  0.64229  0.52533  0.75871  1.0000
  H   H1471     1.0  0.68227  0.50255  0.86578  1.0000
  C   C863      1.0  0.98261  0.95307  0.86875  1.0000
  H   H1472     1.0  0.58861  0.51469  0.95048  1.0000
  C   C864      1.0  0.53256  0.63766  0.78310  1.0000
  C   C865      1.0  0.63570  0.54318  0.76897  1.0000
  C   C866      1.0  0.89088  0.97796  0.71009  1.0000
  H   H1473     1.0  0.62839  0.56066  0.75534  1.0000
  H   H1474     1.0  0.53604  0.60682  0.67817  1.0000
  H   H1475     1.0  0.76252  0.49757  0.68653  1.0000
  H   H1476     1.0  0.89959  0.98453  0.72419  1.0000
  S   S247      1.0  0.64410  0.61940  0.69460  1.0000
  H   H1477     1.0  0.96386  0.94656  0.87993  1.0000
  C   C867      1.0  0.91143  0.90652  0.66449  1.0000
  H   H1478     1.0  0.90851  0.97526  0.69396  1.0000
  H   H1479     1.0  0.91426  0.88906  0.67851  1.0000
  H   H1480     1.0  0.63949  0.54481  0.82822  1.0000
  H   H1481     1.0  0.55485  0.56072  0.69328  1.0000
  C   C868      1.0  0.63393  0.56515  0.81759  1.0000
  H   H1482     1.0  0.64157  0.61235  0.79067  1.0000
  H   H1483     1.0  0.66800  0.52673  0.79084  1.0000
  C   C869      1.0  0.55185  0.53963  0.74345  1.0000
  H   H1484     1.0  0.68234  0.58921  0.80707  1.0000
  H   H1485     1.0  0.67166  0.48924  0.73081  1.0000
  S   S248      1.0  0.53957  0.51195  0.92524  1.0000
  C   C870      1.0  0.69752  0.51510  0.67173  1.0000
  H   H1486     1.0  0.65391  0.62253  0.74569  1.0000
  Fe  Fe122     1.0  0.53303  0.50782  0.83673  1.0000
  H   H1487     1.0  0.50960  0.54838  0.78478  1.0000
  H   H1488     1.0  0.59835  0.53135  0.97118  1.0000
  H   H1489     1.0  0.52452  0.66528  0.74985  1.0000
  H   H1490     1.0  0.54081  0.51134  0.98116  1.0000
  H   H1491     1.0  0.68452  0.60319  0.75713  1.0000
  S   S249      1.0  0.51736  0.54057  0.86128  1.0000
  H   H1492     1.0  0.62286  0.57669  0.85564  1.0000
  H   H1493     1.0  0.53098  0.63465  0.88101  1.0000
  H   H1494     1.0  0.69385  0.52717  0.81867  1.0000
  C   C871      1.0  0.92578  0.92665  0.66346  1.0000
  C   C872      1.0  0.54210  0.57353  0.70773  1.0000
  H   H1495     1.0  0.55478  0.55365  0.97982  1.0000
  H   H1496     1.0  0.50911  0.58935  0.68430  1.0000
  C   C873      1.0  0.68502  0.51429  0.69708  1.0000
  H   H1497     1.0  0.61379  0.56561  0.81211  1.0000
  H   H1498     1.0  0.55660  0.58302  0.71386  1.0000
  C   C874      1.0  0.51478  0.53836  0.72150  1.0000
  Fe  Fe123     1.0  0.96326  0.97486  0.67357  1.0000
  H   H1499     1.0  0.58961  0.53523  0.71403  1.0000
  H   H1500     1.0  0.64040  0.50104  0.65645  1.0000
  C   C875      1.0  0.70673  0.49148  0.66051  1.0000
  C   C876      1.0  0.51917  0.59662  0.94655  1.0000
  C   C877      1.0  0.55046  0.56071  0.92466  1.0000
  C   C878      1.0  0.54438  0.58667  0.93118  1.0000
  C   C879      1.0  0.56779  0.59696  0.77616  1.0000
  H   H1501     1.0  0.56984  0.55337  0.91253  1.0000
  C   C880      1.0  0.66359  0.60233  0.75447  1.0000
  Fe  Fe124     1.0  0.55106  0.55886  0.83690  1.0000
  S   S250      1.0  0.61023  0.57887  0.68038  1.0000
  H   H1502     1.0  0.58856  0.59403  0.73762  1.0000
  H   H1503     1.0  0.54365  0.52523  0.75883  1.0000
  Fe  Fe125     1.0  0.65588  0.63005  0.65300  1.0000
  S   S251      1.0  0.56163  0.64208  0.70854  1.0000
  H   H1504     1.0  0.59079  0.50937  0.73990  1.0000
  H   H1505     1.0  0.58474  0.55451  0.65132  1.0000
  H   H1506     1.0  0.69991  0.56713  0.78487  1.0000
  Fe  Fe126     1.0  0.60181  0.62177  0.68644  1.0000
  H   H1507     1.0  0.50306  0.62516  0.90345  1.0000
  H   H1508     1.0  0.51731  0.65016  0.79574  1.0000
  N   N63       1.0  0.52885  0.55677  0.72992  1.0000
  H   H1509     1.0  0.51071  0.61213  0.70564  1.0000
  H   H1510     1.0  0.50242  0.65174  0.84880  1.0000
  H   H1511     1.0  0.52901  0.52729  0.70637  1.0000
  Fe  Fe127     1.0  0.65361  0.57744  0.68517  1.0000
  H   H1512     1.0  0.67938  0.55101  0.84119  1.0000
  C   C881      1.0  0.57277  0.60606  0.75028  1.0000
  H   H1513     1.0  0.93947  0.92480  0.67676  1.0000
  H   H1514     1.0  0.52102  0.58733  0.75442  1.0000
  H   H1515     1.0  0.56061  0.55221  0.75275  1.0000
  C   C882      1.0  0.98171  0.95507  0.84042  1.0000
  C   C883      1.0  0.53173  0.54424  0.93408  1.0000
  H   H1516     1.0  0.57046  0.50945  0.71688  1.0000
  N   N64       1.0  0.65554  0.56910  0.79456  1.0000
  C   C884      1.0  0.88568  0.94990  0.72098  1.0000
  C   C885      1.0  0.50680  0.55382  0.95008  1.0000
  H   H1517     1.0  0.98214  0.97257  0.87450  1.0000
  H   H1518     1.0  0.64361  0.59684  0.83488  1.0000
  H   H1519     1.0  0.96103  0.96803  0.83724  1.0000
  H   H1520     1.0  0.65020  0.49235  0.87473  1.0000
  S   S252      1.0  0.96430  0.94876  0.71068  1.0000
  S   S253      1.0  0.67424  0.54370  0.71119  1.0000
  H   H1521     1.0  0.98147  0.93460  0.83727  1.0000
  C   C886      1.0  0.68143  0.48988  0.71119  1.0000
  H   H1522     1.0  0.51869  0.60690  0.87671  1.0000
  H   H1523     1.0  0.63949  0.51092  0.94436  1.0000
  C   C887      1.0  0.50037  0.58016  0.95612  1.0000
  H   H1524     1.0  0.67810  0.54721  0.76322  1.0000
  C   C888      1.0  0.55698  0.63065  0.74079  1.0000
  H   H1525     1.0  0.86799  0.95053  0.73687  1.0000
  H   H1526     1.0  0.85473  0.96934  0.68461  1.0000
  S   S254      1.0  0.54276  0.60311  0.82513  1.0000
  C   C889      1.0  0.64477  0.59548  0.77955  1.0000
  C   C890      1.0  0.66075  0.54613  0.77942  1.0000
  C   C891      1.0  0.51192  0.62692  0.88316  1.0000
  H   H1527     1.0  0.71417  0.54830  0.82445  1.0000
  C   C892      1.0  0.53668  0.64625  0.75719  1.0000
  C   C893      1.0  0.62973  0.49746  0.95966  1.0000
  Fe  Fe128     1.0  0.55064  0.51744  0.88311  1.0000
  H   H1528     1.0  0.66565  0.58808  0.74098  1.0000
  C   C894      1.0  0.62678  0.58646  0.83592  1.0000
  H   H1529     1.0  0.53979  0.54058  0.66074  1.0000
  C   C895      1.0  0.49479  0.56003  0.77229  1.0000
  S   S255      1.0  0.51189  0.62990  0.95272  1.0000
  C   C896      1.0  0.50949  0.57463  0.74830  1.0000
  H   H1530     1.0  0.51067  0.52221  0.73695  1.0000
  H   H1531     1.0  0.64147  0.49404  0.97541  1.0000
  H   H1532     1.0  0.88250  0.93920  0.70640  1.0000
  S   S256      1.0  0.50269  0.49040  0.82415  1.0000
  H   H1533     1.0  0.59360  0.49241  0.66828  1.0000
  H   H1534     1.0  0.70074  0.53384  0.66093  1.0000
  H   H1535     1.0  0.83878  0.98455  0.76204  1.0000
  H   H1536     1.0  0.83012  0.98484  0.72312  1.0000
