data_image0
_chemical_formula_structural       H3FeCSFeS2FeCSHCFeCSHFeS2FeS2FeSFeS3H2C4H2C2H2CHC6H4C6H4C2HSHCHCNH2SHCH2NC2HC5H6CH4CSHCHCSHCH3SNC8H20CHCHCH2CH2CNFeH3SH2C2HCHC2H2CHCFeH2CH3NHCHSH4CH4CH3C2SH9CH7CHC2H2CH3FeCSHCHCHCFeS2HFeHSHCSH2FeS2FeSCFeSFeS3H2C4HCH2C6H4CHCH2C6H6SNFeHSH2CH4NC8H20NH3SCH3CHSH3CHSHCHC2H6CH2C3HFeCHCHCHC2SC4H2CHNH3CHCH3C2HNHCH2SH3CSH3SH5CH2CSHC2H2CFe3SHFeS2HSHFeSHSH2SFeS2FeS2FeSFeS3H2C7H3C6H2FeHC8H7C4H6C6H6CHNC8H20C3H3SCH3FeH5CNC4H2C2H9CH9NC8H4SH4CHCH7CH3CSCS2FeC2H2CH6NHCH6NCHCHCHCSHCFeH4FeCHCH3CH7C2H2CH2CNC3H3CSH6FeS2HFeSCSCHCNSFeS2FeS2FeSFeS3C6H4CHC6H5CHC6H4CHFeHC3H5C6H4FeH2CH3FeCHC2H4SH3CH2NC4SH2CH10CH2NH2CH2C2H3CHCH2CHC2HC3H2CNH7C2HCH3CHSH2CH4SH3CH5CHC2H2CHNCH2CH2C2H2CH3SH3CH2SCHCH3C2HC2HCH3FeH3C2H2C2H2C2HC2HFeNSHS2H2CHCHSFeCSH2FeS2FeS2FeSFeS3FeS2FeS2FeSFeS2CHCH2CHNH4C6H4NH2C6H6CHCH4C6H4C3H3C2H3CHSC2H5SH2CH7C3H2SH5NCH2C2HCH4CH3CH2CH6C2H2C3HC2HSCHNC8H8CH2CH2FeH5CNC8H11CH3CH3CHC2HCH4SH2FeSH6C2FeNCH3CH6CHC2HCFeS2CSHFeCSCHSHFeS2FeS2FeSFeS3FeS2FeS2Fe2S3H2C2HC3H2C6H4C6H7CH2FeC6H6NHCH6SH6C2H4NH2CH2NC4HC3H8C2H2CH7CHCH5CH2CH2NCH7SHC2H2CH3CH4CHSHCFeCH2FeCHCSCH4C2HCHCHCH2CH2C2HC2HCH6NC2HC5H17S3CHCHSC2HNH5CSHCHCH3CHCH2CH2CH3FeHC4HCHNH2C2H3SHFeCHSFeSFeSHFeS2FeSFeSHS2CSHFeS2FeS2FeS2FeSFeS3H3C6H4C2H3C6H5CH2C8H8CHCSHCHCH2C2HCH6SCSHCHC2H3NC8H20Fe2HC2HCHSNC8H22CH4NH3C2H7C2H5C4HSCHC3SFeH7S2H2FeH3FeHS2HSFeS2FeS2Fe2SHSCFeSHFeS2FeSHFeS2FeSFeS3C6H5C8HNH2C2H3C3H2C6H4C2HFeHCHSH2SH5CNHC3HCH6CHCHCH6CHCHC3H4CHSHCHCHCH6CHNCH3CHCH3CH4CH2FeH2CHC3SCSCNCH3CHCH3CHSH3CH5C2HNC8H21C2NH2CH2CH2C2HCH3CH2FeH3C4H6SHFeS2H4SFeS2FeS2FeSFeS3FeS2FeSFeNH2C3HC2H4C6H5CH2C7H4C6H4C6H5CHN2C8H20SHCH2CHFeHS2CHCH2C2H6NHCH3NC7H12FeH6C2NC6SCH2C2H7SH2CH11C2H2CHCHC5H4CH6C2H2C2H6CH2SC2HCH4C2FeH7FeS2HCHFeSFeS2FeS2FeSFeS3FeHSHFeS2C6H2CH2SC6H4C6H4CHCH2C7H3C6H4CH2CH6CH8C2NH2C3H3CHS2HNHCHCNC8H20SNC4HCHC2H12CHNH2C3H4CHNC8H21C2H4C2H14CHCHSCH2CH2CH3FeS2FeS2HFeHSC2H2FeS2FeSCFeSFeS3C6HCH2CH2C6H4CHC6H4CH3CH3CH4CHCNCH2CH4C2HCH6SH3C2HCHNH7CH6CH3CHCNHCFeCHC3H9SC2H8CH2CHNCSHCHCHSH3CNH5C2NHCH2C2HCH3SHCHCHC2H3C3H2CH7CH2NHCSH3C2SH2CH2FeH2CH6C2HCHNHFeHSHS2H3FeS4H3SH2FeS2FeSCFeSFeS3HC3HC2H5SC6H7C6H4C2HCH3C2H7CFeH2C2H6CHC2H3CNH2CHC2H2CHCH2CH3CHCNHCH3FeHCH3CHCHCH8CSH5NC8H8CH2C3NHCSCH4C2HCHCHFeHCSC2H3CH2SH6C
_chemical_formula_sum              "H1632 Fe136 C952 S272 N68"
_cell_length_a       61.1919
_cell_length_b       60.3472
_cell_length_c       46.9648
_cell_angle_alpha    90.4149
_cell_angle_beta     90.6232
_cell_angle_gamma    119.997

_space_group_name_H-M_alt    "P 1"
_space_group_IT_number       1

loop_
  _space_group_symop_operation_xyz
  'x, y, z'

loop_
  _atom_site_type_symbol
  _atom_site_label
  _atom_site_symmetry_multiplicity
  _atom_site_fract_x
  _atom_site_fract_y
  _atom_site_fract_z
  _atom_site_occupancy
  H   H1        1.0  0.08077  0.44933  0.04608  1.0000
  H   H2        1.0  0.23590  0.26225  0.45944  1.0000
  H   H3        1.0  0.24437  0.30378  0.46753  1.0000
  Fe  Fe1       1.0  0.28599  0.13291  0.46141  1.0000
  C   C1        1.0  0.24539  0.26209  0.43950  1.0000
  S   S1        1.0  0.24559  0.12016  0.47267  1.0000
  Fe  Fe2       1.0  0.16180  0.29227  0.48274  1.0000
  S   S2        1.0  0.18158  0.32922  0.45743  1.0000
  S   S3        1.0  0.13413  0.25218  0.46808  1.0000
  Fe  Fe3       1.0  0.04222  0.38810  0.15446  1.0000
  C   C2        1.0  0.19244  0.20560  0.48826  1.0000
  S   S4        1.0  0.07619  0.38184  0.15902  1.0000
  H   H4        1.0  0.12954  0.45844  0.20483  1.0000
  C   C3        1.0  0.21069  0.28655  0.43909  1.0000
  Fe  Fe4       1.0  0.02238  0.42547  0.16198  1.0000
  C   C4        1.0  0.33542  0.30653  0.22235  1.0000
  S   S5        1.0  0.04969  0.42382  0.13197  1.0000
  H   H5        1.0  0.09174  0.44416  0.22734  1.0000
  Fe  Fe5       1.0  0.21401  0.38966  0.30204  1.0000
  S   S6        1.0  0.20304  0.38642  0.25557  1.0000
  S   S7        1.0  0.19455  0.35094  0.32415  1.0000
  Fe  Fe6       1.0  0.24862  0.44809  0.29810  1.0000
  S   S8        1.0  0.23934  0.44853  0.25176  1.0000
  S   S9        1.0  0.27893  0.48328  0.32237  1.0000
  Fe  Fe7       1.0  0.19887  0.42093  0.26329  1.0000
  S   S10       1.0  0.16363  0.42454  0.25474  1.0000
  Fe  Fe8       1.0  0.24433  0.41386  0.24795  1.0000
  S   S11       1.0  0.26516  0.40917  0.21013  1.0000
  S   S12       1.0  0.20805  0.42297  0.31036  1.0000
  S   S13       1.0  0.25549  0.41468  0.29371  1.0000
  H   H6        1.0  0.22848  0.32924  0.40060  1.0000
  H   H7        1.0  0.33331  0.35016  0.23192  1.0000
  C   C5        1.0  0.33471  0.14454  0.37629  1.0000
  C   C6        1.0  0.29294  0.40652  0.20961  1.0000
  C   C7        1.0  0.30557  0.40637  0.23458  1.0000
  C   C8        1.0  0.12730  0.49867  0.22921  1.0000
  H   H8        1.0  0.15787  0.22102  0.40649  1.0000
  H   H9        1.0  0.29814  0.40736  0.25503  1.0000
  C   C9        1.0  0.00946  0.47832  0.14399  1.0000
  C   C10       1.0  0.23257  0.30958  0.45515  1.0000
  H   H10       1.0  0.09372  0.43668  0.16935  1.0000
  H   H11       1.0  0.32485  0.28303  0.30362  1.0000
  C   C11       1.0  0.11758  0.39028  0.09169  1.0000
  H   H12       1.0  0.32909  0.01073  0.23699  1.0000
  C   C12       1.0  0.09992  0.39286  0.18629  1.0000
  C   C13       1.0  0.09685  0.40167  0.21272  1.0000
  C   C14       1.0  0.11647  0.41107  0.23343  1.0000
  C   C15       1.0  0.13926  0.41145  0.22816  1.0000
  C   C16       1.0  0.14211  0.40208  0.20195  1.0000
  C   C17       1.0  0.12252  0.39281  0.18120  1.0000
  H   H13       1.0  0.07926  0.40106  0.21719  1.0000
  H   H14       1.0  0.11395  0.41806  0.25370  1.0000
  H   H15       1.0  0.15952  0.40228  0.19752  1.0000
  H   H16       1.0  0.12504  0.38579  0.16095  1.0000
  C   C18       1.0  0.18407  0.33469  0.42023  1.0000
  C   C19       1.0  0.19905  0.35989  0.41066  1.0000
  C   C20       1.0  0.20219  0.36525  0.38135  1.0000
  C   C21       1.0  0.19047  0.34539  0.36126  1.0000
  C   C22       1.0  0.17530  0.32018  0.37077  1.0000
  C   C23       1.0  0.17201  0.31483  0.40011  1.0000
  H   H17       1.0  0.20842  0.37538  0.42607  1.0000
  H   H18       1.0  0.21393  0.38472  0.37435  1.0000
  H   H19       1.0  0.16610  0.30469  0.35535  1.0000
  H   H20       1.0  0.16024  0.29540  0.40717  1.0000
  C   C24       1.0  0.01106  0.16780  0.49484  1.0000
  C   C25       1.0  0.13786  0.48717  0.25099  1.0000
  H   H21       1.0  0.16767  0.08742  0.47746  1.0000
  S   S14       1.0  0.02019  0.41128  0.05765  1.0000
  H   H22       1.0  0.25809  0.29861  0.41993  1.0000
  C   C26       1.0  0.23460  0.31906  0.38578  1.0000
  H   H23       1.0  0.10605  0.45116  0.06727  1.0000
  C   C27       1.0  0.03585  0.18880  0.49798  1.0000
  N   N1        1.0  0.11033  0.48060  0.20609  1.0000
  H   H24       1.0  0.29431  0.46893  0.26675  1.0000
  H   H25       1.0  0.12749  0.42043  0.06152  1.0000
  S   S15       1.0  0.00996  0.36246  0.12435  1.0000
  H   H26       1.0  0.21800  0.16904  0.46636  1.0000
  C   C28       1.0  0.32789  0.40497  0.23308  1.0000
  H   H27       1.0  0.16015  0.11399  0.50383  1.0000
  H   H28       1.0  0.10905  0.46441  0.14685  1.0000
  N   N2        1.0  0.08716  0.39523  0.05670  1.0000
  C   C29       1.0  0.29983  0.47743  0.20083  1.0000
  C   C30       1.0  0.06707  0.36521  0.01302  1.0000
  H   H29       1.0  0.06640  0.39222  0.09499  1.0000
  C   C31       1.0  0.06416  0.38115  0.07503  1.0000
  C   C32       1.0  0.17063  0.24190  0.40362  1.0000
  C   C33       1.0  0.31498  0.50031  0.22136  1.0000
  C   C34       1.0  0.10342  0.49483  0.18464  1.0000
  C   C35       1.0  0.05655  0.35349  0.08365  1.0000
  H   H30       1.0  0.16466  0.25184  0.41889  1.0000
  H   H31       1.0  0.32770  0.30224  0.17669  1.0000
  H   H32       1.0  0.09185  0.36299  0.04383  1.0000
  H   H33       1.0  0.00974  0.49193  0.02797  1.0000
  H   H34       1.0  0.15264  0.48397  0.24156  1.0000
  H   H35       1.0  0.13573  0.40228  0.10336  1.0000
  C   C36       1.0  0.08659  0.43790  0.05933  1.0000
  H   H36       1.0  0.04731  0.37974  0.06403  1.0000
  H   H37       1.0  0.24477  0.32563  0.44128  1.0000
  H   H38       1.0  0.10976  0.42071  0.09130  1.0000
  H   H39       1.0  0.05075  0.35071  0.10627  1.0000
  C   C37       1.0  0.07285  0.46363  0.24133  1.0000
  S   S16       1.0  0.01692  0.39121  0.18702  1.0000
  H   H40       1.0  0.31184  0.27452  0.26858  1.0000
  C   C38       1.0  0.11198  0.45362  0.16403  1.0000
  H   H41       1.0  0.29325  0.40498  0.16374  1.0000
  C   C39       1.0  0.21463  0.18161  0.47982  1.0000
  S   S17       1.0  0.28910  0.10627  0.49241  1.0000
  H   H42       1.0  0.07142  0.34833  0.08212  1.0000
  C   C40       1.0  0.32559  0.15295  0.39886  1.0000
  H   H43       1.0  0.19644  0.29217  0.43350  1.0000
  H   H44       1.0  0.33680  0.02572  0.18765  1.0000
  H   H45       1.0  0.12294  0.46903  0.26004  1.0000
  S   S18       1.0  0.29720  0.13077  0.41563  1.0000
  N   N3        1.0  0.12015  0.34377  0.29093  1.0000
  C   C41       1.0  0.11339  0.34286  0.25976  1.0000
  C   C42       1.0  0.09610  0.33250  0.30762  1.0000
  C   C43       1.0  0.13318  0.32864  0.29666  1.0000
  C   C44       1.0  0.13795  0.37119  0.29959  1.0000
  C   C45       1.0  0.13481  0.34946  0.23858  1.0000
  C   C46       1.0  0.08353  0.34914  0.30971  1.0000
  C   C47       1.0  0.11836  0.30021  0.28749  1.0000
  C   C48       1.0  0.14596  0.37611  0.33140  1.0000
  H   H46       1.0  0.09746  0.32368  0.25341  1.0000
  H   H47       1.0  0.10648  0.35643  0.25535  1.0000
  H   H48       1.0  0.09900  0.32767  0.32965  1.0000
  H   H49       1.0  0.08165  0.31383  0.29807  1.0000
  H   H50       1.0  0.15195  0.33757  0.28636  1.0000
  H   H51       1.0  0.13752  0.32903  0.31983  1.0000
  H   H52       1.0  0.15585  0.37885  0.28773  1.0000
  H   H53       1.0  0.13060  0.38402  0.29323  1.0000
  H   H54       1.0  0.14220  0.33605  0.23953  1.0000
  H   H55       1.0  0.12733  0.34811  0.21658  1.0000
  H   H56       1.0  0.15045  0.36934  0.24163  1.0000
  H   H57       1.0  0.06519  0.33818  0.32062  1.0000
  H   H58       1.0  0.09516  0.36680  0.32260  1.0000
  H   H59       1.0  0.07952  0.35429  0.28845  1.0000
  H   H60       1.0  0.11391  0.29765  0.26436  1.0000
  H   H61       1.0  0.10080  0.28945  0.29975  1.0000
  H   H62       1.0  0.13024  0.29146  0.29208  1.0000
  H   H63       1.0  0.16298  0.37440  0.33536  1.0000
  H   H64       1.0  0.13112  0.36315  0.34603  1.0000
  H   H65       1.0  0.15035  0.39574  0.33756  1.0000
  C   C49       1.0  0.32500  0.40320  0.18172  1.0000
  H   H66       1.0  0.29418  0.48409  0.18160  1.0000
  C   C50       1.0  0.31218  0.47048  0.25912  1.0000
  H   H67       1.0  0.05622  0.44522  0.24754  1.0000
  C   C51       1.0  0.02496  0.48508  0.16832  1.0000
  H   H68       1.0  0.24813  0.27293  0.39550  1.0000
  H   H69       1.0  0.08451  0.47202  0.26090  1.0000
  C   C52       1.0  0.16380  0.07358  0.49480  1.0000
  H   H70       1.0  0.33452  0.13191  0.45696  1.0000
  H   H71       1.0  0.19751  0.28750  0.38307  1.0000
  C   C53       1.0  0.30283  0.40492  0.18322  1.0000
  N   N4        1.0  0.21740  0.27640  0.41310  1.0000
  Fe  Fe9       1.0  0.01607  0.39868  0.10400  1.0000
  H   H72       1.0  0.12038  0.37700  0.07787  1.0000
  H   H73       1.0  0.14365  0.06415  0.50069  1.0000
  H   H74       1.0  0.31159  0.32469  0.25208  1.0000
  S   S19       1.0  0.03397  0.46386  0.18330  1.0000
  H   H75       1.0  0.03956  0.33937  0.07136  1.0000
  H   H76       1.0  0.10680  0.38964  0.02178  1.0000
  C   C54       1.0  0.00942  0.36940  0.02252  1.0000
  C   C55       1.0  0.01089  0.22661  0.44607  1.0000
  H   H77       1.0  0.02659  0.24658  0.44375  1.0000
  C   C56       1.0  0.19751  0.18959  0.47089  1.0000
  H   H78       1.0  0.00461  0.35802  0.04155  1.0000
  C   C57       1.0  0.08534  0.41603  0.04091  1.0000
  C   C58       1.0  0.08697  0.45807  0.21793  1.0000
  H   H79       1.0  0.20132  0.27129  0.45519  1.0000
  H   H80       1.0  0.07347  0.43060  0.07736  1.0000
  C   C59       1.0  0.08940  0.37835  0.03441  1.0000
  H   H81       1.0  0.23733  0.24190  0.43218  1.0000
  C   C60       1.0  0.00470  0.49901  0.04725  1.0000
  Fe  Fe10      1.0  0.15725  0.24080  0.49635  1.0000
  H   H82       1.0  0.22031  0.28140  0.36742  1.0000
  H   H83       1.0  0.23358  0.32595  0.36418  1.0000
  C   C61       1.0  0.11092  0.40797  0.07485  1.0000
  H   H84       1.0  0.25457  0.32465  0.38988  1.0000
  H   H85       1.0  0.32164  0.32550  0.19281  1.0000
  H   H86       1.0  0.19760  0.23731  0.42804  1.0000
  N   N5        1.0  0.32859  0.49637  0.24616  1.0000
  H   H87       1.0  0.14371  0.48643  0.18385  1.0000
  C   C62       1.0  0.12511  0.47042  0.19064  1.0000
  H   H88       1.0  0.18782  0.18297  0.45054  1.0000
  S   S20       1.0  0.16950  0.21377  0.47654  1.0000
  H   H89       1.0  0.10344  0.37969  0.10820  1.0000
  H   H90       1.0  0.31548  0.29226  0.22692  1.0000
  H   H91       1.0  0.22454  0.31738  0.47075  1.0000
  H   H92       1.0  0.07284  0.44730  0.20070  1.0000
  C   C63       1.0  0.19816  0.24837  0.40899  1.0000
  H   H93       1.0  0.08615  0.48136  0.17217  1.0000
  H   H94       1.0  0.26564  0.26941  0.44469  1.0000
  H   H95       1.0  0.16763  0.24625  0.38149  1.0000
  H   H96       1.0  0.12404  0.44630  0.15534  1.0000
  C   C64       1.0  0.21658  0.28996  0.38657  1.0000
  H   H97       1.0  0.20344  0.23990  0.39101  1.0000
  H   H98       1.0  0.10052  0.42507  0.02486  1.0000
  H   H99       1.0  0.30591  0.45469  0.24332  1.0000
  C   C65       1.0  0.24297  0.27855  0.41591  1.0000
  C   C66       1.0  0.01657  0.39532  0.02455  1.0000
  S   S21       1.0  0.30238  0.16656  0.49187  1.0000
  H   H100      1.0  0.33195  0.18554  0.42409  1.0000
  H   H101      1.0  0.06522  0.47571  0.23390  1.0000
  H   H102      1.0  0.05175  0.18727  0.49064  1.0000
  H   H103      1.0  0.06727  0.40793  0.02859  1.0000
  H   H104      1.0  0.32321  0.35930  0.28253  1.0000
  H   H105      1.0  0.01937  0.21413  0.44450  1.0000
  H   H106      1.0  0.16740  0.05859  0.48590  1.0000
  H   H107      1.0  0.30993  0.29934  0.28875  1.0000
  H   H108      1.0  0.33228  0.40195  0.16125  1.0000
  C   C67       1.0  0.32194  0.29096  0.28357  1.0000
  H   H109      1.0  0.04873  0.35482  0.02383  1.0000
  H   H110      1.0  0.32689  0.47577  0.30336  1.0000
  H   H111      1.0  0.28209  0.46295  0.21078  1.0000
  H   H112      1.0  0.00817  0.15021  0.48510  1.0000
  H   H113      1.0  0.31115  0.44369  0.29051  1.0000
  H   H114      1.0  0.26623  0.48797  0.41189  1.0000
  H   H115      1.0  0.31042  0.46813  0.19351  1.0000
  C   C68       1.0  0.33465  0.31769  0.19315  1.0000
  H   H116      1.0  0.32412  0.12476  0.36924  1.0000
  C   C69       1.0  0.33215  0.33871  0.25092  1.0000
  C   C70       1.0  0.32417  0.46372  0.28423  1.0000
  H   H117      1.0  0.00834  0.48977  0.06568  1.0000
  H   H118      1.0  0.24954  0.03544  0.50254  1.0000
  C   C71       1.0  0.23060  0.01952  0.50490  1.0000
  H   H119      1.0  0.18925  0.47659  0.57852  1.0000
  H   H120      1.0  0.08643  0.47508  0.87241  1.0000
  H   H121      1.0  0.14719  0.06707  0.55663  1.0000
  Fe  Fe11      1.0  0.30328  0.13928  0.52388  1.0000
  C   C72       1.0  0.04662  0.24293  0.59759  1.0000
  S   S22       1.0  0.26423  0.12674  0.53963  1.0000
  H   H122      1.0  0.33490  0.06995  0.67953  1.0000
  C   C73       1.0  0.01512  0.37287  0.97082  1.0000
  H   H123      1.0  0.05432  0.46928  0.82338  1.0000
  C   C74       1.0  0.18168  0.08652  0.52061  1.0000
  H   H124      1.0  0.32706  0.21341  0.70798  1.0000
  C   C75       1.0  0.06649  0.27164  0.59843  1.0000
  Fe  Fe12      1.0  0.15992  0.27630  0.54510  1.0000
  S   S23       1.0  0.17335  0.28800  0.59111  1.0000
  S   S24       1.0  0.13282  0.23468  0.53458  1.0000
  H   H125      1.0  0.11772  0.26767  0.66953  1.0000
  Fe  Fe13      1.0  0.03820  0.39302  0.83576  1.0000
  H   H126      1.0  0.23156  0.21219  0.54406  1.0000
  S   S25       1.0  0.06561  0.39826  0.79999  1.0000
  H   H127      1.0  0.32980  0.09824  0.64145  1.0000
  C   C76       1.0  0.20518  0.21397  0.51450  1.0000
  S   S26       1.0  0.04946  0.41311  0.87842  1.0000
  H   H128      1.0  0.12031  0.48004  0.76112  1.0000
  H   H129      1.0  0.11950  0.49351  0.86291  1.0000
  Fe  Fe14      1.0  0.21057  0.40551  0.69639  1.0000
  S   S27       1.0  0.20677  0.38250  0.73537  1.0000
  S   S28       1.0  0.19374  0.39192  0.65163  1.0000
  Fe  Fe15      1.0  0.24074  0.45658  0.72878  1.0000
  S   S29       1.0  0.23959  0.43713  0.77005  1.0000
  C   C77       1.0  0.10210  0.47456  0.86135  1.0000
  Fe  Fe16      1.0  0.24808  0.41115  0.74364  1.0000
  S   S30       1.0  0.27303  0.39370  0.75402  1.0000
  Fe  Fe17      1.0  0.19851  0.41011  0.75911  1.0000
  S   S31       1.0  0.17028  0.39801  0.79565  1.0000
  S   S32       1.0  0.25227  0.43264  0.70298  1.0000
  S   S33       1.0  0.19923  0.43098  0.71960  1.0000
  H   H130      1.0  0.18377  0.15382  0.55248  1.0000
  H   H131      1.0  0.24916  0.47163  0.66391  1.0000
  C   C78       1.0  0.30822  0.38464  0.78035  1.0000
  C   C79       1.0  0.29846  0.40135  0.77843  1.0000
  C   C80       1.0  0.30887  0.42315  0.79607  1.0000
  C   C81       1.0  0.01893  0.21325  0.51977  1.0000
  H   H132      1.0  0.02790  0.24077  0.59234  1.0000
  C   C82       1.0  0.20012  0.48035  0.66301  1.0000
  H   H133      1.0  0.30189  0.43640  0.79456  1.0000
  H   H134      1.0  0.06589  0.27830  0.57656  1.0000
  C   C83       1.0  0.09475  0.39818  0.79960  1.0000
  C   C84       1.0  0.10533  0.39383  0.82400  1.0000
  C   C85       1.0  0.12845  0.39393  0.82241  1.0000
  C   C86       1.0  0.14146  0.39869  0.79657  1.0000
  C   C87       1.0  0.13099  0.40329  0.77226  1.0000
  C   C88       1.0  0.10774  0.40285  0.77376  1.0000
  H   H135      1.0  0.09562  0.39017  0.84402  1.0000
  H   H136      1.0  0.13629  0.39029  0.84135  1.0000
  H   H137      1.0  0.14065  0.40685  0.75221  1.0000
  H   H138      1.0  0.09973  0.40611  0.75470  1.0000
  C   C89       1.0  0.15076  0.08687  0.55331  1.0000
  H   H139      1.0  0.19817  0.45450  0.61235  1.0000
  C   C90       1.0  0.10915  0.30747  0.60611  1.0000
  H   H140      1.0  0.31496  0.15871  0.59533  1.0000
  H   H141      1.0  0.22295  0.46316  0.58891  1.0000
  C   C91       1.0  0.17996  0.31751  0.60714  1.0000
  C   C92       1.0  0.18733  0.32214  0.63603  1.0000
  C   C93       1.0  0.19194  0.34494  0.64986  1.0000
  C   C94       1.0  0.18905  0.36332  0.63494  1.0000
  C   C95       1.0  0.18166  0.35868  0.60602  1.0000
  C   C96       1.0  0.17730  0.33599  0.59211  1.0000
  H   H142      1.0  0.18952  0.30801  0.64781  1.0000
  H   H143      1.0  0.19765  0.34825  0.67208  1.0000
  H   H144      1.0  0.17943  0.37279  0.59427  1.0000
  H   H145      1.0  0.17175  0.33274  0.56985  1.0000
  H   H146      1.0  0.33556  0.25515  0.71668  1.0000
  H   H147      1.0  0.13021  0.27164  0.63454  1.0000
  S   S34       1.0  0.18573  0.28117  0.50910  1.0000
  N   N6        1.0  0.23474  0.48416  0.62888  1.0000
  Fe  Fe18      1.0  0.01639  0.37791  0.89588  1.0000
  H   H148      1.0  0.12517  0.34065  0.57876  1.0000
  S   S35       1.0  0.13823  0.29042  0.52001  1.0000
  H   H149      1.0  0.13185  0.29846  0.65386  1.0000
  H   H150      1.0  0.21621  0.10980  0.59637  1.0000
  C   C97       1.0  0.09485  0.46462  0.83033  1.0000
  H   H151      1.0  0.24940  0.43547  0.64088  1.0000
  H   H152      1.0  0.19620  0.49229  0.67790  1.0000
  H   H153      1.0  0.08136  0.22803  0.60571  1.0000
  H   H154      1.0  0.21846  0.44834  0.65192  1.0000
  N   N7        1.0  0.22168  0.37683  0.83765  1.0000
  C   C98       1.0  0.19354  0.35930  0.83373  1.0000
  C   C99       1.0  0.23392  0.37408  0.81120  1.0000
  C   C100      1.0  0.22642  0.40384  0.83997  1.0000
  C   C101      1.0  0.23036  0.36949  0.86437  1.0000
  C   C102      1.0  0.17672  0.36134  0.85666  1.0000
  C   C103      1.0  0.22824  0.34668  0.80404  1.0000
  C   C104      1.0  0.25412  0.42548  0.84196  1.0000
  C   C105      1.0  0.25856  0.37700  0.86633  1.0000
  H   H155      1.0  0.18699  0.36257  0.81272  1.0000
  H   H156      1.0  0.18864  0.33888  0.83329  1.0000
  H   H157      1.0  0.25466  0.38624  0.81211  1.0000
  H   H158      1.0  0.22809  0.38107  0.79231  1.0000
  H   H159      1.0  0.21756  0.40801  0.82150  1.0000
  H   H160      1.0  0.21742  0.40639  0.85920  1.0000
  H   H161      1.0  0.22614  0.37758  0.88354  1.0000
  H   H162      1.0  0.21951  0.34832  0.86682  1.0000
  H   H163      1.0  0.15704  0.34538  0.85343  1.0000
  H   H164      1.0  0.18283  0.35991  0.87853  1.0000
  H   H165      1.0  0.17592  0.37924  0.85452  1.0000
  H   H166      1.0  0.23044  0.33690  0.82278  1.0000
  H   H167      1.0  0.20902  0.33501  0.79458  1.0000
  H   H168      1.0  0.24165  0.34756  0.78771  1.0000
  H   H169      1.0  0.26310  0.42515  0.86244  1.0000
  H   H170      1.0  0.25458  0.44412  0.84144  1.0000
  H   H171      1.0  0.26537  0.42546  0.82369  1.0000
  H   H172      1.0  0.26512  0.38164  0.88887  1.0000
  H   H173      1.0  0.27171  0.39378  0.85385  1.0000
  H   H174      1.0  0.26095  0.36048  0.86044  1.0000
  N   N8        1.0  0.09238  0.48224  0.80944  1.0000
  H   H175      1.0  0.21511  0.13031  0.54941  1.0000
  H   H176      1.0  0.12909  0.31365  0.61171  1.0000
  H   H177      1.0  0.32333  0.04826  0.72470  1.0000
  S   S36       1.0  0.03430  0.46685  0.88165  1.0000
  C   C106      1.0  0.11009  0.32021  0.57742  1.0000
  H   H178      1.0  0.26725  0.46261  0.61930  1.0000
  H   H179      1.0  0.17136  0.15690  0.51933  1.0000
  H   H180      1.0  0.32975  0.17497  0.64467  1.0000
  C   C107      1.0  0.24797  0.44951  0.62698  1.0000
  H   H181      1.0  0.32637  0.22487  0.67279  1.0000
  S   S37       1.0  0.24703  0.17836  0.52020  1.0000
  H   H182      1.0  0.05949  0.28139  0.61289  1.0000
  H   H183      1.0  0.07779  0.49708  0.84178  1.0000
  H   H184      1.0  0.06606  0.44878  0.78468  1.0000
  C   C108      1.0  0.03996  0.21175  0.51037  1.0000
  H   H185      1.0  0.11487  0.31148  0.55949  1.0000
  S   S38       1.0  0.01587  0.35877  0.93784  1.0000
  H   H186      1.0  0.09752  0.26845  0.56394  1.0000
  C   C109      1.0  0.00884  0.35829  0.99576  1.0000
  H   H187      1.0  0.10939  0.45988  0.82349  1.0000
  C   C110      1.0  0.02147  0.39853  0.97278  1.0000
  C   C111      1.0  0.02231  0.40968  0.99951  1.0000
  H   H188      1.0  0.20160  0.22629  0.52815  1.0000
  H   H189      1.0  0.10585  0.46100  0.87341  1.0000
  H   H190      1.0  0.23532  0.43817  0.60900  1.0000
  H   H191      1.0  0.21420  0.09192  0.56505  1.0000
  H   H192      1.0  0.02181  0.23088  0.52935  1.0000
  H   H193      1.0  0.07691  0.44595  0.83111  1.0000
  C   C112      1.0  0.32818  0.38964  0.79951  1.0000
  H   H194      1.0  0.22191  0.49816  0.57025  1.0000
  H   H195      1.0  0.09415  0.45186  0.74604  1.0000
  C   C113      1.0  0.20850  0.48864  0.58781  1.0000
  C   C114      1.0  0.32871  0.42806  0.81537  1.0000
  C   C115      1.0  0.22646  0.49712  0.65033  1.0000
  H   H196      1.0  0.10300  0.31661  0.62246  1.0000
  Fe  Fe19      1.0  0.02138  0.42583  0.86826  1.0000
  C   C116      1.0  0.10271  0.46228  0.76639  1.0000
  H   H197      1.0  0.15808  0.09359  0.59969  1.0000
  C   C117      1.0  0.16987  0.14278  0.53532  1.0000
  H   H198      1.0  0.06666  0.37904  0.99787  1.0000
  C   C118      1.0  0.07237  0.48759  0.82045  1.0000
  H   H199      1.0  0.12436  0.27867  0.58602  1.0000
  C   C119      1.0  0.20372  0.09889  0.57802  1.0000
  C   C120      1.0  0.08350  0.46763  0.78151  1.0000
  S   S39       1.0  0.01175  0.40789  0.82455  1.0000
  C   C121      1.0  0.22221  0.20591  0.52348  1.0000
  C   C122      1.0  0.21577  0.47151  0.60492  1.0000
  C   C123      1.0  0.19748  0.11668  0.56051  1.0000
  C   C124      1.0  0.17513  0.12312  0.52057  1.0000
  H   H200      1.0  0.09221  0.32002  0.57264  1.0000
  H   H201      1.0  0.08103  0.25033  0.64058  1.0000
  C   C125      1.0  0.09366  0.27100  0.63724  1.0000
  H   H202      1.0  0.18499  0.47267  0.64643  1.0000
  N   N9        1.0  0.17591  0.10334  0.53935  1.0000
  H   H203      1.0  0.33552  0.37666  0.80058  1.0000
  H   H204      1.0  0.09019  0.22840  0.57000  1.0000
  H   H205      1.0  0.15099  0.11602  0.58307  1.0000
  C   C126      1.0  0.14675  0.09596  0.58267  1.0000
  H   H206      1.0  0.19911  0.46456  0.67578  1.0000
  C   C127      1.0  0.09659  0.23902  0.59063  1.0000
  H   H207      1.0  0.30036  0.36774  0.76680  1.0000
  H   H208      1.0  0.19428  0.12881  0.57581  1.0000
  H   H209      1.0  0.04467  0.23347  0.61826  1.0000
  C   C128      1.0  0.11995  0.27767  0.64909  1.0000
  C   C129      1.0  0.10343  0.26717  0.58605  1.0000
  H   H210      1.0  0.08616  0.28029  0.65169  1.0000
  N   N10       1.0  0.09306  0.27863  0.60682  1.0000
  H   H211      1.0  0.11366  0.23819  0.59729  1.0000
  C   C130      1.0  0.23709  0.46355  0.64436  1.0000
  H   H212      1.0  0.12664  0.08389  0.58854  1.0000
  H   H213      1.0  0.15025  0.13378  0.54300  1.0000
  S   S40       1.0  0.00703  0.35618  0.85386  1.0000
  H   H214      1.0  0.02627  0.40997  0.95377  1.0000
  H   H215      1.0  0.18666  0.08207  0.58630  1.0000
  H   H216      1.0  0.13504  0.08441  0.53899  1.0000
  C   C131      1.0  0.02313  0.48637  0.86711  1.0000
  S   S41       1.0  0.07061  0.23940  0.51392  1.0000
  H   H217      1.0  0.05045  0.23272  0.58033  1.0000
  H   H218      1.0  0.06916  0.35097  0.99997  1.0000
  H   H219      1.0  0.10743  0.44975  0.77891  1.0000
  S   S42       1.0  0.25405  0.49929  0.72826  1.0000
  H   H220      1.0  0.26389  0.49579  0.59705  1.0000
  H   H221      1.0  0.07758  0.47723  0.76583  1.0000
  H   H222      1.0  0.18103  0.07061  0.53309  1.0000
  H   H223      1.0  0.02777  0.42971  0.00080  1.0000
  H   H224      1.0  0.33665  0.44503  0.82882  1.0000
  C   C132      1.0  0.00594  0.47817  0.84419  1.0000
  H   H225      1.0  0.19324  0.13391  0.50902  1.0000
  H   H226      1.0  0.32561  0.08655  0.70291  1.0000
  C   C133      1.0  0.33400  0.16418  0.60203  1.0000
  S   S43       1.0  0.21558  0.05590  0.51369  1.0000
  H   H227      1.0  0.17080  0.00652  0.51716  1.0000
  C   C134      1.0  0.18629  0.00317  0.51315  1.0000
  C   C135      1.0  0.21079  0.02425  0.51004  1.0000
  H   H228      1.0  0.05924  0.49755  0.78073  1.0000
  H   H229      1.0  0.20123  0.09753  0.51230  1.0000
  C   C136      1.0  0.22690  0.18947  0.50641  1.0000
  Fe  Fe20      1.0  0.26209  0.15196  0.50552  1.0000
  Fe  Fe21      1.0  0.24998  0.09559  0.50571  1.0000
  Fe  Fe22      1.0  0.11184  0.24906  0.50756  1.0000
  S   S44       1.0  0.00992  0.59866  0.18591  1.0000
  H   H230      1.0  0.22624  0.77558  0.41366  1.0000
  Fe  Fe23      1.0  0.14263  0.85464  0.46230  1.0000
  S   S45       1.0  0.14419  0.84458  0.41556  1.0000
  S   S46       1.0  0.13147  0.88432  0.47250  1.0000
  H   H231      1.0  0.16163  0.93189  0.42885  1.0000
  S   S47       1.0  0.04980  0.61310  0.13309  1.0000
  H   H232      1.0  0.27528  0.54878  0.37049  1.0000
  Fe  Fe24      1.0  0.04683  0.63291  0.17256  1.0000
  S   S48       1.0  0.07729  0.65308  0.20745  1.0000
  H   H233      1.0  0.25136  0.93279  0.45454  1.0000
  S   S49       1.0  0.29727  0.59694  0.31513  1.0000
  H   H234      1.0  0.27985  0.80274  0.36385  1.0000
  H   H235      1.0  0.20960  0.73882  0.38465  1.0000
  S   S50       1.0  0.30843  0.64931  0.37159  1.0000
  Fe  Fe25      1.0  0.22341  0.80215  0.31256  1.0000
  S   S51       1.0  0.22474  0.81939  0.26948  1.0000
  S   S52       1.0  0.22058  0.81496  0.35778  1.0000
  Fe  Fe26      1.0  0.23805  0.76389  0.28840  1.0000
  S   S53       1.0  0.24060  0.77836  0.24414  1.0000
  S   S54       1.0  0.24002  0.72770  0.29672  1.0000
  Fe  Fe27      1.0  0.26055  0.81820  0.26297  1.0000
  S   S55       1.0  0.29796  0.84749  0.24313  1.0000
  Fe  Fe28      1.0  0.20459  0.77827  0.25315  1.0000
  S   S56       1.0  0.17668  0.76352  0.21547  1.0000
  S   S57       1.0  0.26068  0.80347  0.30691  1.0000
  S   S58       1.0  0.20062  0.76129  0.29652  1.0000
  H   H236      1.0  0.30101  0.50562  0.22918  1.0000
  H   H237      1.0  0.17489  0.89788  0.43412  1.0000
  C   C137      1.0  0.30844  0.72320  0.33157  1.0000
  C   C138      1.0  0.31082  0.74705  0.32511  1.0000
  C   C139      1.0  0.29021  0.74875  0.31404  1.0000
  C   C140      1.0  0.26688  0.72656  0.30946  1.0000
  C   C141      1.0  0.26449  0.70269  0.31574  1.0000
  C   C142      1.0  0.28516  0.70099  0.32671  1.0000
  C   C143      1.0  0.33346  0.57914  0.42995  1.0000
  H   H238      1.0  0.29241  0.76723  0.30908  1.0000
  H   H239      1.0  0.24654  0.68540  0.31229  1.0000
  H   H240      1.0  0.28305  0.68254  0.33164  1.0000
  C   C144      1.0  0.28410  0.51485  0.31926  1.0000
  C   C145      1.0  0.26689  0.51992  0.30511  1.0000
  C   C146      1.0  0.27144  0.54521  0.30368  1.0000
  C   C147      1.0  0.29327  0.56572  0.31616  1.0000
  C   C148      1.0  0.31090  0.56074  0.32947  1.0000
  C   C149      1.0  0.30617  0.53539  0.33131  1.0000
  H   H241      1.0  0.30878  0.82221  0.40388  1.0000
  H   H242      1.0  0.25780  0.54890  0.29309  1.0000
  Fe  Fe29      1.0  0.01165  0.58049  0.14437  1.0000
  H   H243      1.0  0.31978  0.53171  0.34197  1.0000
  C   C150      1.0  0.19946  0.90616  0.38347  1.0000
  C   C151      1.0  0.02657  0.63170  0.03345  1.0000
  C   C152      1.0  0.14808  0.73350  0.21378  1.0000
  C   C153      1.0  0.13699  0.71935  0.23820  1.0000
  C   C154      1.0  0.11472  0.69529  0.23590  1.0000
  C   C155      1.0  0.10332  0.68493  0.20921  1.0000
  C   C156      1.0  0.11413  0.69932  0.18482  1.0000
  C   C157      1.0  0.13634  0.72348  0.18714  1.0000
  H   H244      1.0  0.14549  0.72698  0.25889  1.0000
  H   H245      1.0  0.10640  0.68444  0.25492  1.0000
  H   H246      1.0  0.10564  0.69162  0.16413  1.0000
  H   H247      1.0  0.14461  0.73430  0.16811  1.0000
  H   H248      1.0  0.24260  0.78356  0.44756  1.0000
  H   H249      1.0  0.24900  0.94730  0.40334  1.0000
  H   H250      1.0  0.20462  0.88452  0.43070  1.0000
  C   C158      1.0  0.25037  0.86746  0.12818  1.0000
  C   C159      1.0  0.30221  0.90998  0.20373  1.0000
  C   C160      1.0  0.29341  0.88767  0.22016  1.0000
  C   C161      1.0  0.30830  0.87624  0.22375  1.0000
  H   H251      1.0  0.04759  0.80939  0.47649  1.0000
  H   H252      1.0  0.21106  0.73605  0.34718  1.0000
  H   H253      1.0  0.29045  0.91850  0.20083  1.0000
  H   H254      1.0  0.27516  0.87933  0.23002  1.0000
  H   H255      1.0  0.22107  0.76683  0.36212  1.0000
  H   H256      1.0  0.24458  0.73268  0.37012  1.0000
  C   C162      1.0  0.16490  0.83528  0.40010  1.0000
  C   C163      1.0  0.16362  0.83083  0.37050  1.0000
  C   C164      1.0  0.18025  0.82431  0.35716  1.0000
  C   C165      1.0  0.19854  0.82235  0.37332  1.0000
  C   C166      1.0  0.19988  0.82690  0.40291  1.0000
  C   C167      1.0  0.18308  0.83315  0.41627  1.0000
  H   H257      1.0  0.14962  0.83241  0.35777  1.0000
  H   H258      1.0  0.17899  0.82092  0.33440  1.0000
  H   H259      1.0  0.21391  0.82541  0.41565  1.0000
  H   H260      1.0  0.18422  0.83634  0.43907  1.0000
  H   H261      1.0  0.33648  0.54816  0.24256  1.0000
  H   H262      1.0  0.27337  0.85132  0.13947  1.0000
  C   C168      1.0  0.21756  0.90184  0.36464  1.0000
  H   H263      1.0  0.23693  0.53399  0.43570  1.0000
  N   N11       1.0  0.18251  0.68169  0.23052  1.0000
  C   C169      1.0  0.17769  0.67531  0.26165  1.0000
  C   C170      1.0  0.19765  0.67007  0.21937  1.0000
  C   C171      1.0  0.15821  0.67099  0.21356  1.0000
  C   C172      1.0  0.19656  0.71036  0.22759  1.0000
  C   C173      1.0  0.16008  0.68308  0.27644  1.0000
  C   C174      1.0  0.22558  0.68340  0.22923  1.0000
  C   C175      1.0  0.13972  0.64209  0.21662  1.0000
  C   C176      1.0  0.20352  0.72040  0.19691  1.0000
  H   H264      1.0  0.16980  0.65446  0.26506  1.0000
  H   H265      1.0  0.19567  0.68469  0.27413  1.0000
  H   H266      1.0  0.19723  0.66917  0.19570  1.0000
  H   H267      1.0  0.18907  0.64973  0.22586  1.0000
  H   H268      1.0  0.14794  0.68120  0.21895  1.0000
  H   H269      1.0  0.16201  0.67442  0.19041  1.0000
  H   H270      1.0  0.18512  0.71861  0.23571  1.0000
  H   H271      1.0  0.21379  0.71967  0.24144  1.0000
  H   H272      1.0  0.15765  0.67669  0.29889  1.0000
  H   H273      1.0  0.16826  0.70410  0.27730  1.0000
  H   H274      1.0  0.14101  0.67386  0.26649  1.0000
  H   H275      1.0  0.23666  0.70291  0.22043  1.0000
  H   H276      1.0  0.22772  0.68448  0.25275  1.0000
  H   H277      1.0  0.23426  0.67223  0.22129  1.0000
  H   H278      1.0  0.14809  0.63045  0.20945  1.0000
  H   H279      1.0  0.12280  0.63667  0.20290  1.0000
  H   H280      1.0  0.13281  0.63700  0.23866  1.0000
  H   H281      1.0  0.18840  0.72311  0.18714  1.0000
  H   H282      1.0  0.20690  0.70777  0.18275  1.0000
  H   H283      1.0  0.22141  0.73904  0.19735  1.0000
  C   C177      1.0  0.22006  0.90456  0.42756  1.0000
  C   C178      1.0  0.03515  0.57237  0.03465  1.0000
  C   C179      1.0  0.25123  0.54016  0.45300  1.0000
  H   H284      1.0  0.26871  0.76821  0.43693  1.0000
  H   H285      1.0  0.28471  0.59305  0.37865  1.0000
  H   H286      1.0  0.24407  0.73964  0.42121  1.0000
  S   S59       1.0  0.02780  0.65112  0.14922  1.0000
  C   C180      1.0  0.02101  0.52831  0.05101  1.0000
  H   H287      1.0  0.01679  0.67179  0.09605  1.0000
  H   H288      1.0  0.01790  0.69738  0.07648  1.0000
  H   H289      1.0  0.26843  0.86748  0.16779  1.0000
  Fe  Fe30      1.0  0.02776  0.62865  0.11058  1.0000
  H   H290      1.0  0.27875  0.73467  0.41515  1.0000
  H   H291      1.0  0.09204  0.52327  0.17817  1.0000
  H   H292      1.0  0.28861  0.83558  0.40263  1.0000
  H   H293      1.0  0.25662  0.75924  0.34695  1.0000
  H   H294      1.0  0.01639  0.67595  0.03691  1.0000
  C   C181      1.0  0.22597  0.99412  0.50347  1.0000
  N   N12       1.0  0.23777  0.82853  0.16071  1.0000
  C   C182      1.0  0.25847  0.85377  0.14991  1.0000
  C   C183      1.0  0.24861  0.82013  0.18450  1.0000
  C   C184      1.0  0.21605  0.83084  0.17208  1.0000
  C   C185      1.0  0.22805  0.80937  0.13643  1.0000
  H   H295      1.0  0.25829  0.79379  0.16235  1.0000
  H   H296      1.0  0.32879  0.76432  0.32870  1.0000
  C   C186      1.0  0.22295  0.85146  0.19549  1.0000
  C   C187      1.0  0.20756  0.78182  0.14390  1.0000
  H   H297      1.0  0.25025  0.52315  0.46322  1.0000
  H   H298      1.0  0.32846  0.51661  0.20817  1.0000
  H   H299      1.0  0.23345  0.80450  0.19691  1.0000
  H   H300      1.0  0.25874  0.83586  0.20039  1.0000
  H   H301      1.0  0.03273  0.54478  0.18016  1.0000
  H   H302      1.0  0.20163  0.81238  0.18140  1.0000
  H   H303      1.0  0.21928  0.81543  0.11959  1.0000
  H   H304      1.0  0.24361  0.80867  0.12513  1.0000
  H   H305      1.0  0.33110  0.58518  0.45153  1.0000
  C   C188      1.0  0.26745  0.81154  0.17556  1.0000
  H   H306      1.0  0.05353  0.57848  0.02416  1.0000
  H   H307      1.0  0.25223  0.57307  0.37038  1.0000
  H   H308      1.0  0.24284  0.85625  0.10811  1.0000
  H   H309      1.0  0.23640  0.87098  0.18812  1.0000
  H   H310      1.0  0.23069  0.84729  0.21484  1.0000
  H   H311      1.0  0.20553  0.85145  0.20194  1.0000
  H   H312      1.0  0.18848  0.77981  0.14368  1.0000
  H   H313      1.0  0.21072  0.77553  0.16482  1.0000
  H   H314      1.0  0.20790  0.76815  0.12820  1.0000
  N   N13       1.0  0.26484  0.76990  0.39134  1.0000
  C   C189      1.0  0.28936  0.76954  0.38997  1.0000
  C   C190      1.0  0.27100  0.79691  0.38512  1.0000
  C   C191      1.0  0.24769  0.75235  0.36798  1.0000
  C   C192      1.0  0.25348  0.76090  0.42027  1.0000
  C   C193      1.0  0.28772  0.74343  0.39475  1.0000
  C   C194      1.0  0.28898  0.81764  0.40667  1.0000
  C   C195      1.0  0.22098  0.74871  0.36583  1.0000
  C   C196      1.0  0.23420  0.76876  0.43038  1.0000
  H   H315      1.0  0.29854  0.77670  0.36903  1.0000
  H   H316      1.0  0.30310  0.78265  0.40634  1.0000
  H   H317      1.0  0.25392  0.79868  0.38324  1.0000
  H   H318      1.0  0.20584  0.83448  0.15463  1.0000
  S   S60       1.0  0.04018  0.64660  0.06683  1.0000
  H   H319      1.0  0.00972  0.85554  0.48413  1.0000
  H   H320      1.0  0.00659  0.71401  0.11779  1.0000
  H   H321      1.0  0.26729  0.88586  0.12248  1.0000
  H   H322      1.0  0.22076  0.91902  0.47133  1.0000
  C   C197      1.0  0.23269  0.91529  0.45681  1.0000
  H   H323      1.0  0.11846  0.50414  0.16848  1.0000
  C   C198      1.0  0.17284  0.92824  0.41296  1.0000
  H   H324      1.0  0.24545  0.55006  0.46868  1.0000
  H   H325      1.0  0.02801  0.58426  0.02481  1.0000
  H   H326      1.0  0.19298  0.91710  0.37029  1.0000
  H   H327      1.0  0.22703  0.95413  0.38676  1.0000
  H   H328      1.0  0.20944  0.89651  0.34272  1.0000
  H   H329      1.0  0.23619  0.90091  0.46738  1.0000
  H   H330      1.0  0.21944  0.88548  0.37233  1.0000
  C   C199      1.0  0.26897  0.55282  0.39099  1.0000
  H   H331      1.0  0.18488  0.94634  0.40171  1.0000
  H   H332      1.0  0.27509  0.80722  0.19498  1.0000
  H   H333      1.0  0.23642  0.91923  0.36326  1.0000
  C   C200      1.0  0.02630  0.52636  0.16996  1.0000
  S   S61       1.0  0.32392  0.63496  0.44766  1.0000
  C   C201      1.0  0.04255  0.58150  0.06589  1.0000
  S   S62       1.0  0.11632  0.82686  0.49439  1.0000
  S   S63       1.0  0.33473  0.72242  0.34681  1.0000
  Fe  Fe31      1.0  0.32479  0.63194  0.34198  1.0000
  C   C202      1.0  0.18837  0.91803  0.42835  1.0000
  C   C203      1.0  0.33228  0.88781  0.21133  1.0000
  H   H334      1.0  0.31467  0.51250  0.27759  1.0000
  H   H335      1.0  0.04525  0.51457  0.20014  1.0000
  C   C204      1.0  0.09951  0.51669  0.19588  1.0000
  H   H336      1.0  0.25819  0.50323  0.38479  1.0000
  H   H337      1.0  0.24991  0.50434  0.29559  1.0000
  H   H338      1.0  0.21791  0.75199  0.44012  1.0000
  H   H339      1.0  0.05325  0.60276  0.06660  1.0000
  H   H340      1.0  0.11751  0.50681  0.24156  1.0000
  H   H341      1.0  0.18238  0.88711  0.38645  1.0000
  N   N14       1.0  0.28611  0.55386  0.41497  1.0000
  H   H342      1.0  0.19477  0.92833  0.44900  1.0000
  C   C205      1.0  0.23531  0.96686  0.43009  1.0000
  H   H343      1.0  0.15920  0.91371  0.39755  1.0000
  H   H344      1.0  0.23831  0.96152  0.45164  1.0000
  H   H345      1.0  0.31810  0.57397  0.38736  1.0000
  H   H346      1.0  0.01072  0.88109  0.50435  1.0000
  H   H347      1.0  0.31249  0.59428  0.40978  1.0000
  H   H348      1.0  0.23466  0.90317  0.41510  1.0000
  N   N15       1.0  0.21001  0.91944  0.41186  1.0000
  C   C206      1.0  0.23069  0.94663  0.40677  1.0000
  H   H349      1.0  0.24944  0.53674  0.39311  1.0000
  C   C207      1.0  0.01048  0.51938  0.14585  1.0000
  H   H350      1.0  0.25253  0.98516  0.42495  1.0000
  C   C208      1.0  0.26695  0.57706  0.38688  1.0000
  H   H351      1.0  0.02629  0.57529  0.08001  1.0000
  C   C209      1.0  0.27828  0.55896  0.44348  1.0000
  S   S64       1.0  0.17588  0.87169  0.49227  1.0000
  H   H352      1.0  0.28148  0.57881  0.44520  1.0000
  C   C210      1.0  0.03221  0.80757  0.48932  1.0000
  Fe  Fe32      1.0  0.16365  0.90020  0.50449  1.0000
  H   H353      1.0  0.26152  0.58314  0.40661  1.0000
  H   H354      1.0  0.03232  0.70916  0.12580  1.0000
  H   H355      1.0  0.28390  0.82682  0.16441  1.0000
  H   H356      1.0  0.05519  0.57497  0.07491  1.0000
  Fe  Fe33      1.0  0.33742  0.65222  0.40369  1.0000
  C   C211      1.0  0.28752  0.52953  0.41526  1.0000
  H   H357      1.0  0.05820  0.65971  0.00971  1.0000
  C   C212      1.0  0.00710  0.78866  0.48245  1.0000
  H   H358      1.0  0.23656  0.87235  0.13698  1.0000
  H   H359      1.0  0.33533  0.56184  0.43118  1.0000
  H   H360      1.0  0.11761  0.53343  0.20314  1.0000
  C   C213      1.0  0.03341  0.50921  0.18121  1.0000
  H   H361      1.0  0.29073  0.55863  0.46071  1.0000
  H   H362      1.0  0.04113  0.53314  0.05123  1.0000
  H   H363      1.0  0.14383  0.51544  0.21961  1.0000
  H   H364      1.0  0.32812  0.57644  0.33840  1.0000
  H   H365      1.0  0.28344  0.81235  0.42904  1.0000
  H   H366      1.0  0.21961  0.97103  0.43102  1.0000
  H   H367      1.0  0.29440  0.52703  0.43638  1.0000
  C   C214      1.0  0.31222  0.57577  0.40917  1.0000
  C   C215      1.0  0.32608  0.92132  0.19099  1.0000
  H   H368      1.0  0.30717  0.74636  0.39554  1.0000
  H   H369      1.0  0.27800  0.72975  0.37688  1.0000
  C   C216      1.0  0.26307  0.50428  0.40783  1.0000
  H   H370      1.0  0.30154  0.53054  0.39953  1.0000
  H   H371      1.0  0.24155  0.99079  0.50004  1.0000
  C   C217      1.0  0.01177  0.69900  0.12066  1.0000
  N   N16       1.0  0.01691  0.54417  0.02918  1.0000
  C   C218      1.0  0.33577  0.65171  0.48056  1.0000
  C   C219      1.0  0.33299  0.51617  0.26880  1.0000
  C   C220      1.0  0.03970  0.64277  0.00833  1.0000
  H   H372      1.0  0.01751  0.53273  0.07294  1.0000
  H   H373      1.0  0.08568  0.51086  0.21305  1.0000
  H   H374      1.0  0.33409  0.97330  0.23211  1.0000
  C   C221      1.0  0.00715  0.68316  0.09312  1.0000
  S   S65       1.0  0.33596  0.94899  0.16981  1.0000
  H   H375      1.0  0.14703  0.50096  0.26900  1.0000
  H   H376      1.0  0.24685  0.50134  0.42070  1.0000
  H   H377      1.0  0.01494  0.69043  0.77134  1.0000
  H   H378      1.0  0.23970  0.70698  0.61138  1.0000
  H   H379      1.0  0.09169  0.70595  0.77275  1.0000
  H   H380      1.0  0.10765  0.74488  0.74368  1.0000
  Fe  Fe34      1.0  0.14918  0.84615  0.52551  1.0000
  S   S66       1.0  0.15636  0.81860  0.55177  1.0000
  S   S67       1.0  0.13922  0.87552  0.54019  1.0000
  H   H381      1.0  0.04072  0.70409  0.84671  1.0000
  Fe  Fe35      1.0  0.04572  0.63637  0.85584  1.0000
  S   S68       1.0  0.08412  0.67267  0.85024  1.0000
  C   C222      1.0  0.28080  0.90900  0.75603  1.0000
  S   S69       1.0  0.03677  0.60207  0.88316  1.0000
  C   C223      1.0  0.04643  0.65416  0.75214  1.0000
  H   H382      1.0  0.12676  0.54332  0.78908  1.0000
  C   C224      1.0  0.27674  0.92736  0.77536  1.0000
  N   N17       1.0  0.26021  0.89385  0.73425  1.0000
  S   S70       1.0  0.31966  0.64654  0.62686  1.0000
  Fe  Fe36      1.0  0.21338  0.80146  0.69787  1.0000
  S   S71       1.0  0.20285  0.79312  0.74404  1.0000
  S   S72       1.0  0.20404  0.82973  0.67639  1.0000
  Fe  Fe37      1.0  0.24192  0.77128  0.69885  1.0000
  S   S73       1.0  0.23305  0.76092  0.74485  1.0000
  S   S74       1.0  0.26976  0.76542  0.67222  1.0000
  Fe  Fe38      1.0  0.19371  0.75286  0.73367  1.0000
  S   S75       1.0  0.15747  0.71519  0.74337  1.0000
  Fe  Fe39      1.0  0.24304  0.80206  0.75136  1.0000
  S   S76       1.0  0.26722  0.82613  0.78942  1.0000
  S   S77       1.0  0.20205  0.76077  0.68670  1.0000
  S   S78       1.0  0.25398  0.81282  0.70619  1.0000
  C   C225      1.0  0.29152  0.70317  0.68391  1.0000
  C   C226      1.0  0.26909  0.70010  0.69549  1.0000
  C   C227      1.0  0.26242  0.71920  0.69259  1.0000
  C   C228      1.0  0.27810  0.74157  0.67789  1.0000
  C   C229      1.0  0.30081  0.74493  0.66678  1.0000
  C   C230      1.0  0.30768  0.72598  0.67009  1.0000
  H   H383      1.0  0.25652  0.68258  0.70634  1.0000
  H   H384      1.0  0.24483  0.71631  0.70111  1.0000
  H   H385      1.0  0.31314  0.76227  0.65554  1.0000
  H   H386      1.0  0.29195  0.87092  0.69203  1.0000
  C   C231      1.0  0.23479  0.87906  0.74804  1.0000
  H   H387      1.0  0.02053  0.83461  0.54642  1.0000
  C   C232      1.0  0.27725  0.52445  0.70765  1.0000
  C   C233      1.0  0.27907  0.54861  0.70902  1.0000
  C   C234      1.0  0.29580  0.56869  0.69147  1.0000
  C   C235      1.0  0.31089  0.56478  0.67228  1.0000
  C   C236      1.0  0.30944  0.54076  0.67130  1.0000
  C   C237      1.0  0.29273  0.52067  0.68889  1.0000
  H   H388      1.0  0.26720  0.55174  0.72347  1.0000
  H   H389      1.0  0.29671  0.58705  0.69246  1.0000
  H   H390      1.0  0.26814  0.54079  0.63297  1.0000
  H   H391      1.0  0.28518  0.72543  0.60394  1.0000
  H   H392      1.0  0.04496  0.75996  0.54162  1.0000
  C   C238      1.0  0.31715  0.81059  0.72302  1.0000
  H   H393      1.0  0.01261  0.67411  0.72609  1.0000
  C   C239      1.0  0.10501  0.68364  0.82086  1.0000
  C   C240      1.0  0.10154  0.66817  0.79696  1.0000
  C   C241      1.0  0.11803  0.67808  0.77373  1.0000
  C   C242      1.0  0.13824  0.70351  0.77404  1.0000
  C   C243      1.0  0.14185  0.71890  0.79807  1.0000
  C   C244      1.0  0.12536  0.70898  0.82131  1.0000
  H   H394      1.0  0.08618  0.64858  0.79638  1.0000
  H   H395      1.0  0.11512  0.66596  0.75534  1.0000
  H   H396      1.0  0.15728  0.73846  0.79870  1.0000
  H   H397      1.0  0.12833  0.72110  0.83973  1.0000
  C   C245      1.0  0.02909  0.63218  0.98134  1.0000
  H   H398      1.0  0.28877  0.89781  0.68326  1.0000
  Fe  Fe40      1.0  0.10756  0.85749  0.50706  1.0000
  H   H399      1.0  0.08230  0.52494  0.80200  1.0000
  C   C246      1.0  0.30934  0.86705  0.76516  1.0000
  C   C247      1.0  0.29454  0.85719  0.78935  1.0000
  C   C248      1.0  0.30183  0.87220  0.81449  1.0000
  H   H400      1.0  0.27567  0.50485  0.63228  1.0000
  H   H401      1.0  0.24736  0.65569  0.62710  1.0000
  H   H402      1.0  0.30438  0.85558  0.74585  1.0000
  H   H403      1.0  0.29071  0.86469  0.83344  1.0000
  H   H404      1.0  0.03823  0.72169  0.76368  1.0000
  C   C249      1.0  0.17087  0.82290  0.58590  1.0000
  C   C250      1.0  0.17734  0.84438  0.60315  1.0000
  C   C251      1.0  0.18756  0.84621  0.63074  1.0000
  C   C252      1.0  0.19150  0.82668  0.64134  1.0000
  C   C253      1.0  0.18511  0.80528  0.62403  1.0000
  C   C254      1.0  0.17482  0.80341  0.59651  1.0000
  H   H405      1.0  0.17434  0.85948  0.59532  1.0000
  H   H406      1.0  0.19241  0.86284  0.64395  1.0000
  H   H407      1.0  0.18801  0.79011  0.63188  1.0000
  H   H408      1.0  0.16980  0.78668  0.58339  1.0000
  Fe  Fe41      1.0  0.00887  0.57876  0.84828  1.0000
  H   H409      1.0  0.10037  0.81366  0.62129  1.0000
  H   H410      1.0  0.00901  0.51712  0.99427  1.0000
  C   C255      1.0  0.00498  0.61061  0.97918  1.0000
  H   H411      1.0  0.27671  0.65561  0.63049  1.0000
  H   H412      1.0  0.03235  0.54686  0.87567  1.0000
  H   H413      1.0  0.28988  0.79594  0.75656  1.0000
  Fe  Fe42      1.0  0.32866  0.67266  0.66520  1.0000
  C   C256      1.0  0.26597  0.87510  0.71966  1.0000
  H   H414      1.0  0.04164  0.53910  0.00044  1.0000
  C   C257      1.0  0.28991  0.88675  0.70136  1.0000
  C   C258      1.0  0.23325  0.86199  0.77313  1.0000
  H   H415      1.0  0.24988  0.86149  0.70587  1.0000
  H   H416      1.0  0.26827  0.86287  0.73556  1.0000
  H   H417      1.0  0.22806  0.89210  0.75563  1.0000
  H   H418      1.0  0.30727  0.89881  0.71414  1.0000
  S   S79       1.0  0.02041  0.61249  0.81983  1.0000
  H   H419      1.0  0.33054  0.64006  0.55225  1.0000
  H   H420      1.0  0.24608  0.87291  0.79116  1.0000
  H   H421      1.0  0.23704  0.84667  0.76624  1.0000
  C   C259      1.0  0.03442  0.69580  0.82495  1.0000
  H   H422      1.0  0.22143  0.88718  0.69358  1.0000
  H   H423      1.0  0.02620  0.67488  0.82685  1.0000
  N   N18       1.0  0.08016  0.79359  0.58262  1.0000
  C   C260      1.0  0.07690  0.81557  0.57283  1.0000
  C   C261      1.0  0.08492  0.78215  0.55637  1.0000
  C   C262      1.0  0.02802  0.69428  0.72892  1.0000
  C   C263      1.0  0.05671  0.77485  0.59813  1.0000
  S   S80       1.0  0.33025  0.58848  0.64762  1.0000
  H   H424      1.0  0.06656  0.65991  0.74942  1.0000
  H   H425      1.0  0.10572  0.51712  0.76669  1.0000
  C   C264      1.0  0.05110  0.74686  0.59975  1.0000
  H   H426      1.0  0.09267  0.82848  0.55880  1.0000
  H   H427      1.0  0.05938  0.80848  0.55964  1.0000
  H   H428      1.0  0.08819  0.76615  0.56134  1.0000
  H   H429      1.0  0.10278  0.79648  0.54632  1.0000
  H   H430      1.0  0.29921  0.92104  0.74557  1.0000
  H   H431      1.0  0.27262  0.69933  0.62728  1.0000
  H   H432      1.0  0.05716  0.78177  0.62030  1.0000
  H   H433      1.0  0.03970  0.77374  0.58774  1.0000
  H   H434      1.0  0.09377  0.84519  0.60666  1.0000
  H   H435      1.0  0.02243  0.65776  0.78257  1.0000
  C   C265      1.0  0.12190  0.52383  0.78164  1.0000
  H   H436      1.0  0.02192  0.70691  0.71875  1.0000
  H   H437      1.0  0.04464  0.69732  0.71682  1.0000
  N   N19       1.0  0.28468  0.69162  0.58700  1.0000
  H   H438      1.0  0.03864  0.65690  0.73204  1.0000
  H   H439      1.0  0.24609  0.70617  0.57462  1.0000
  C   C266      1.0  0.11111  0.78585  0.61355  1.0000
  H   H440      1.0  0.02740  0.54744  0.95532  1.0000
  H   H441      1.0  0.06752  0.74413  0.59726  1.0000
  C   C267      1.0  0.01689  0.82173  0.52857  1.0000
  C   C268      1.0  0.26826  0.66290  0.58683  1.0000
  H   H442      1.0  0.06431  0.78852  0.52153  1.0000
  H   H443      1.0  0.11976  0.82016  0.59102  1.0000
  H   H444      1.0  0.24997  0.62938  0.61369  1.0000
  C   C269      1.0  0.04297  0.66815  0.77782  1.0000
  H   H445      1.0  0.06367  0.72857  0.80469  1.0000
  C   C270      1.0  0.02262  0.53738  0.00022  1.0000
  H   H446      1.0  0.29281  0.93663  0.79085  1.0000
  H   H447      1.0  0.31212  0.68444  0.54659  1.0000
  C   C271      1.0  0.26046  0.50294  0.61748  1.0000
  H   H448      1.0  0.31276  0.80580  0.81244  1.0000
  C   C272      1.0  0.25924  0.91210  0.71321  1.0000
  C   C273      1.0  0.32409  0.76616  0.74308  1.0000
  H   H449      1.0  0.03945  0.64087  0.96220  1.0000
  C   C274      1.0  0.29955  0.69016  0.53599  1.0000
  C   C275      1.0  0.09029  0.73837  0.75637  1.0000
  C   C276      1.0  0.07793  0.70927  0.76059  1.0000
  H   H450      1.0  0.28396  0.76805  0.79295  1.0000
  H   H451      1.0  0.22024  0.86596  0.73226  1.0000
  C   C277      1.0  0.26635  0.53063  0.61249  1.0000
  N   N20       1.0  0.31341  0.77868  0.76188  1.0000
  H   H452      1.0  0.20721  0.50319  0.60092  1.0000
  H   H453      1.0  0.25304  0.92454  0.72375  1.0000
  H   H454      1.0  0.27662  0.94292  0.76309  1.0000
  H   H455      1.0  0.11568  0.77619  0.59640  1.0000
  H   H456      1.0  0.12871  0.79687  0.62650  1.0000
  H   H457      1.0  0.24697  0.88833  0.67361  1.0000
  H   H458      1.0  0.26846  0.69491  0.54720  1.0000
  C   C278      1.0  0.32328  0.89699  0.81532  1.0000
  C   C279      1.0  0.02489  0.52776  0.86687  1.0000
  H   H459      1.0  0.22636  0.51404  0.64153  1.0000
  C   C280      1.0  0.27324  0.70423  0.60443  1.0000
  H   H460      1.0  0.25935  0.91730  0.78801  1.0000
  H   H461      1.0  0.03630  0.63329  0.75629  1.0000
  H   H462      1.0  0.26026  0.72262  0.78550  1.0000
  C   C281      1.0  0.33080  0.89180  0.76602  1.0000
  H   H463      1.0  0.28219  0.72218  0.76116  1.0000
  S   S81       1.0  0.06838  0.84985  0.52087  1.0000
  H   H464      1.0  0.31691  0.68591  0.59259  1.0000
  H   H465      1.0  0.30927  0.75175  0.72849  1.0000
  C   C282      1.0  0.03727  0.82448  0.51225  1.0000
  H   H466      1.0  0.01952  0.70005  0.81809  1.0000
  H   H467      1.0  0.09652  0.74912  0.77688  1.0000
  H   H468      1.0  0.04308  0.73908  0.62090  1.0000
  H   H469      1.0  0.30397  0.75534  0.79978  1.0000
  S   S82       1.0  0.19724  0.94150  0.50587  1.0000
  H   H470      1.0  0.25233  0.53173  0.59848  1.0000
  H   H471      1.0  0.29172  0.50227  0.68780  1.0000
  H   H472      1.0  0.12109  0.51860  0.82704  1.0000
  C   C283      1.0  0.28729  0.70065  0.55675  1.0000
  H   H473      1.0  0.06909  0.84535  0.58652  1.0000
  H   H474      1.0  0.28559  0.77335  0.72980  1.0000
  H   H475      1.0  0.03619  0.73455  0.58394  1.0000
  H   H476      1.0  0.32115  0.53762  0.65661  1.0000
  H   H477      1.0  0.06096  0.82115  0.61261  1.0000
  C   C284      1.0  0.24130  0.89962  0.68725  1.0000
  H   H478      1.0  0.21376  0.85227  0.78145  1.0000
  C   C285      1.0  0.26027  0.65053  0.61633  1.0000
  C   C286      1.0  0.10314  0.80461  0.60201  1.0000
  H   H479      1.0  0.32527  0.72885  0.66163  1.0000
  H   H480      1.0  0.33702  0.72971  0.57279  1.0000
  C   C287      1.0  0.24638  0.69797  0.59557  1.0000
  H   H481      1.0  0.27839  0.92540  0.70501  1.0000
  N   N21       1.0  0.05281  0.69656  0.77528  1.0000
  C   C288      1.0  0.30024  0.78889  0.74338  1.0000
  H   H482      1.0  0.26348  0.73646  0.75136  1.0000
  H   H483      1.0  0.13833  0.52616  0.76935  1.0000
  C   C289      1.0  0.27415  0.73395  0.76896  1.0000
  H   H484      1.0  0.07691  0.70084  0.73925  1.0000
  H   H485      1.0  0.32444  0.73872  0.77420  1.0000
  C   C290      1.0  0.07510  0.83252  0.59640  1.0000
  C   C291      1.0  0.29444  0.75974  0.78221  1.0000
  H   H486      1.0  0.06762  0.76106  0.51695  1.0000
  H   H487      1.0  0.28398  0.89611  0.77007  1.0000
  C   C292      1.0  0.05734  0.70781  0.80506  1.0000
  H   H488      1.0  0.24180  0.91488  0.67370  1.0000
  H   H489      1.0  0.30849  0.69584  0.62358  1.0000
  H   H490      1.0  0.07782  0.74355  0.74440  1.0000
  S   S83       1.0  0.29782  0.67758  0.68643  1.0000
  H   H491      1.0  0.25080  0.65662  0.57379  1.0000
  H   H492      1.0  0.09693  0.77184  0.62816  1.0000
  H   H493      1.0  0.16272  0.96184  0.51410  1.0000
  C   C293      1.0  0.31001  0.69875  0.60018  1.0000
  H   H494      1.0  0.29754  0.72193  0.55575  1.0000
  H   H495      1.0  0.23266  0.67717  0.59549  1.0000
  S   S84       1.0  0.01587  0.64287  0.87579  1.0000
  C   C294      1.0  0.06621  0.50511  0.80249  1.0000
  H   H496      1.0  0.05233  0.66439  0.79615  1.0000
  C   C295      1.0  0.03354  0.70143  0.76080  1.0000
  H   H497      1.0  0.27810  0.65379  0.57630  1.0000
  H   H498      1.0  0.28503  0.54150  0.60221  1.0000
  H   H499      1.0  0.07285  0.70636  0.81596  1.0000
  C   C296      1.0  0.02183  0.55346  0.97508  1.0000
  C   C297      1.0  0.03252  0.51118  0.87838  1.0000
  H   H500      1.0  0.05074  0.50654  0.81289  1.0000
  C   C298      1.0  0.20151  0.97305  0.50682  1.0000
  C   C299      1.0  0.06404  0.77239  0.53306  1.0000
  H   H501      1.0  0.30511  0.81607  0.71053  1.0000
  C   C300      1.0  0.00796  0.51974  0.84374  1.0000
  H   H502      1.0  0.03515  0.57426  0.97801  1.0000
  H   H503      1.0  0.28492  0.67325  0.52385  1.0000
  H   H504      1.0  0.32847  0.90837  0.83475  1.0000
  Fe  Fe43      1.0  0.00517  0.60698  0.90046  1.0000
  H   H505      1.0  0.24024  0.50496  0.66838  1.0000
  H   H506      1.0  0.32139  0.82787  0.78330  1.0000
  H   H507      1.0  0.04587  0.51768  0.89605  1.0000
  C   C301      1.0  0.32756  0.81695  0.79675  1.0000
  C   C302      1.0  0.11760  0.50649  0.80763  1.0000
  H   H508      1.0  0.32654  0.80447  0.70733  1.0000
  H   H509      1.0  0.31160  0.70523  0.52072  1.0000
  C   C303      1.0  0.33664  0.65074  0.53273  1.0000
  C   C304      1.0  0.33468  0.79996  0.77889  1.0000
  H   H510      1.0  0.33140  0.82805  0.73457  1.0000
  H   H511      1.0  0.32638  0.74084  0.60284  1.0000
  C   C305      1.0  0.33135  0.72648  0.59542  1.0000
  C   C306      1.0  0.32790  0.63811  0.50615  1.0000
  H   H512      1.0  0.31509  0.61767  0.50541  1.0000
  C   C307      1.0  0.18162  0.97775  0.51139  1.0000
  C   C308      1.0  0.33688  0.75310  0.75866  1.0000
  H   H513      1.0  0.13314  0.50190  0.80772  1.0000
  Fe  Fe44      1.0  0.41950  0.03005  0.16233  1.0000
  N   N22       1.0  0.36419  0.01102  0.24555  1.0000
  S   S85       1.0  0.43739  0.06620  0.19075  1.0000
  H   H514      1.0  0.42958  0.04257  0.25467  1.0000
  S   S86       1.0  0.44209  0.02625  0.12701  1.0000
  S   S87       1.0  0.62336  0.01136  0.18504  1.0000
  H   H515      1.0  0.37274  0.21527  0.40139  1.0000
  H   H516      1.0  0.64001  0.24933  0.42800  1.0000
  C   C309      1.0  0.39723  0.36408  0.02673  1.0000
  H   H517      1.0  0.48187  0.04138  0.00556  1.0000
  C   C310      1.0  0.48672  0.46001  0.03482  1.0000
  H   H518      1.0  0.37155  0.47907  0.22148  1.0000
  S   S88       1.0  0.63392  0.03158  0.11888  1.0000
  Fe  Fe45      1.0  0.64757  0.32502  0.35613  1.0000
  C   C311      1.0  0.49277  0.01666  0.02890  1.0000
  S   S89       1.0  0.60712  0.31749  0.35538  1.0000
  H   H519      1.0  0.40837  0.15509  0.13757  1.0000
  H   H520      1.0  0.39886  0.34590  0.27307  1.0000
  Fe  Fe46      1.0  0.41996  0.20520  0.31744  1.0000
  S   S90       1.0  0.40430  0.20250  0.27305  1.0000
  S   S91       1.0  0.40183  0.20849  0.35847  1.0000
  Fe  Fe47      1.0  0.47090  0.21451  0.29561  1.0000
  S   S92       1.0  0.45873  0.21235  0.24987  1.0000
  S   S93       1.0  0.51012  0.21967  0.30254  1.0000
  Fe  Fe48      1.0  0.44199  0.23655  0.26318  1.0000
  S   S94       1.0  0.45284  0.27271  0.23747  1.0000
  Fe  Fe49      1.0  0.42220  0.17836  0.26268  1.0000
  S   S95       1.0  0.40088  0.14381  0.23238  1.0000
  S   S96       1.0  0.45686  0.24102  0.30816  1.0000
  S   S97       1.0  0.43516  0.17871  0.30793  1.0000
  Fe  Fe50      1.0  0.40181  0.35424  0.15562  1.0000
  S   S98       1.0  0.41667  0.38561  0.18850  1.0000
  S   S99       1.0  0.38836  0.31324  0.17041  1.0000
  Fe  Fe51      1.0  0.40278  0.39047  0.10885  1.0000
  S   S100      1.0  0.41666  0.42378  0.14004  1.0000
  S   S101      1.0  0.39957  0.40203  0.06329  1.0000
  Fe  Fe52      1.0  0.44325  0.41082  0.15519  1.0000
  S   S102      1.0  0.48550  0.43538  0.16330  1.0000
  Fe  Fe53      1.0  0.38832  0.39564  0.17066  1.0000
  S   S103      1.0  0.43063  0.37861  0.12309  1.0000
  S   S104      1.0  0.37241  0.36331  0.13845  1.0000
  C   C312      1.0  0.39848  0.38780  0.02958  1.0000
  H   H521      1.0  0.39968  0.41922  0.00671  1.0000
  C   C313      1.0  0.66364  0.31794  0.47148  1.0000
  H   H522      1.0  0.39685  0.35371  0.04559  1.0000
  H   H523      1.0  0.51241  0.33216  0.20654  1.0000
  C   C314      1.0  0.50181  0.46905  0.15984  1.0000
  H   H524      1.0  0.39438  0.02524  0.21535  1.0000
  N   N23       1.0  0.38749  0.17383  0.46823  1.0000
  H   H525      1.0  0.39276  0.22086  0.49226  1.0000
  H   H526      1.0  0.53843  0.47210  0.16158  1.0000
  H   H527      1.0  0.46853  0.47256  0.15784  1.0000
  H   H528      1.0  0.35362  0.33259  0.18659  1.0000
  C   C315      1.0  0.40642  0.30287  0.19036  1.0000
  C   C316      1.0  0.39408  0.27874  0.20334  1.0000
  C   C317      1.0  0.40784  0.26947  0.21857  1.0000
  C   C318      1.0  0.43419  0.28401  0.22042  1.0000
  C   C319      1.0  0.44645  0.30818  0.20761  1.0000
  C   C320      1.0  0.43269  0.31767  0.19289  1.0000
  H   H529      1.0  0.37376  0.26718  0.20161  1.0000
  H   H530      1.0  0.39809  0.25107  0.22872  1.0000
  H   H531      1.0  0.46677  0.31968  0.20897  1.0000
  H   H532      1.0  0.44246  0.33625  0.18305  1.0000
  N   N24       1.0  0.48117  0.46572  0.06434  1.0000
  H   H533      1.0  0.55341  0.32980  0.31897  1.0000
  H   H534      1.0  0.51122  0.02828  0.01822  1.0000
  C   C321      1.0  0.58035  0.28944  0.34174  1.0000
  C   C322      1.0  0.58263  0.27128  0.32536  1.0000
  C   C323      1.0  0.56090  0.24988  0.31380  1.0000
  C   C324      1.0  0.53673  0.24645  0.31839  1.0000
  C   C325      1.0  0.53442  0.26438  0.33515  1.0000
  C   C326      1.0  0.55614  0.28582  0.34665  1.0000
  H   H535      1.0  0.60112  0.27381  0.32142  1.0000
  H   H536      1.0  0.56284  0.23597  0.30104  1.0000
  H   H537      1.0  0.51589  0.26163  0.33938  1.0000
  H   H538      1.0  0.55419  0.29964  0.35954  1.0000
  H   H539      1.0  0.66051  0.36317  0.49448  1.0000
  H   H540      1.0  0.41987  0.18062  0.41802  1.0000
  C   C327      1.0  0.52140  0.03086  0.07057  1.0000
  H   H541      1.0  0.42524  0.25243  0.15979  1.0000
  C   C328      1.0  0.54117  0.01200  0.14857  1.0000
  H   H542      1.0  0.35299  0.12116  0.47686  1.0000
  H   H543      1.0  0.49440  0.04741  0.11216  1.0000
  H   H544      1.0  0.55034  0.02002  0.07179  1.0000
  H   H545      1.0  0.53790  0.04410  0.16342  1.0000
  C   C329      1.0  0.42694  0.08780  0.20140  1.0000
  C   C330      1.0  0.44153  0.10724  0.22150  1.0000
  C   C331      1.0  0.43390  0.12453  0.23111  1.0000
  C   C332      1.0  0.41144  0.12255  0.22084  1.0000
  C   C333      1.0  0.39677  0.10306  0.20077  1.0000
  C   C334      1.0  0.40450  0.08586  0.19102  1.0000
  H   H546      1.0  0.45893  0.10899  0.22970  1.0000
  H   H547      1.0  0.44542  0.13937  0.24653  1.0000
  H   H548      1.0  0.37941  0.10136  0.19257  1.0000
  H   H549      1.0  0.39327  0.07134  0.17522  1.0000
  C   C335      1.0  0.52774  0.02445  0.15583  1.0000
  C   C336      1.0  0.37171  0.18693  0.37233  1.0000
  C   C337      1.0  0.35769  0.16141  0.36311  1.0000
  H   H550      1.0  0.41857  0.21336  0.46724  1.0000
  H   H551      1.0  0.36473  0.15456  0.34617  1.0000
  H   H552      1.0  0.51565  0.33589  0.29465  1.0000
  C   C338      1.0  0.40804  0.19652  0.45300  1.0000
  C   C339      1.0  0.36221  0.19548  0.39437  1.0000
  H   H553      1.0  0.37410  0.35992  0.22450  1.0000
  H   H554      1.0  0.35764  0.04786  0.28030  1.0000
  H   H555      1.0  0.52312  0.03348  0.09418  1.0000
  C   C340      1.0  0.41132  0.02422  0.25458  1.0000
  H   H556      1.0  0.49106  0.02116  0.16019  1.0000
  S   S105      1.0  0.40987  0.02296  0.05586  1.0000
  C   C341      1.0  0.66032  0.25869  0.43419  1.0000
  C   C342      1.0  0.33921  0.17865  0.40744  1.0000
  H   H557      1.0  0.35363  0.48471  0.19473  1.0000
  H   H558      1.0  0.48570  0.31116  0.28046  1.0000
  H   H559      1.0  0.34720  0.17225  0.22485  1.0000
  H   H560      1.0  0.49595  0.30982  0.31597  1.0000
  H   H561      1.0  0.45207  0.42980  0.08104  1.0000
  S   S106      1.0  0.57440  0.02873  0.15299  1.0000
  H   H562      1.0  0.47469  0.45005  0.10675  1.0000
  H   H563      1.0  0.35663  0.04137  0.23362  1.0000
  C   C343      1.0  0.37411  0.34492  0.23809  1.0000
  H   H564      1.0  0.53934  0.35336  0.22753  1.0000
  H   H565      1.0  0.53927  0.25540  0.24821  1.0000
  H   H566      1.0  0.34214  0.46472  0.27841  1.0000
  H   H567      1.0  0.63762  0.02813  0.04254  1.0000
  H   H568      1.0  0.39728  0.04862  0.23953  1.0000
  H   H569      1.0  0.58095  0.01032  0.21661  1.0000
  H   H570      1.0  0.47312  0.40893  0.06977  1.0000
  C   C344      1.0  0.37474  0.15232  0.44647  1.0000
  C   C345      1.0  0.39722  0.16473  0.49256  1.0000
  C   C346      1.0  0.47261  0.44341  0.08424  1.0000
  H   H571      1.0  0.34508  0.11272  0.43996  1.0000
  H   H572      1.0  0.35480  0.16643  0.17254  1.0000
  S   S107      1.0  0.38409  0.01377  0.13555  1.0000
  H   H573      1.0  0.62955  0.29910  0.49593  1.0000
  H   H574      1.0  0.40707  0.01968  0.27727  1.0000
  H   H575      1.0  0.35224  0.16379  0.48891  1.0000
  H   H576      1.0  0.38898  0.05237  0.28618  1.0000
  H   H577      1.0  0.53551  0.04961  0.06152  1.0000
  N   N25       1.0  0.49510  0.02354  0.06027  1.0000
  C   C347      1.0  0.36851  0.03927  0.28925  1.0000
  H   H578      1.0  0.45101  0.46952  0.10704  1.0000
  H   H579      1.0  0.48786  0.42108  0.10326  1.0000
  C   C348      1.0  0.52832  0.48245  0.15934  1.0000
  C   C349      1.0  0.46424  0.43774  0.01874  1.0000
  H   H580      1.0  0.44430  0.22782  0.15859  1.0000
  C   C350      1.0  0.35957  0.01225  0.27685  1.0000
  H   H581      1.0  0.50837  0.33591  0.24331  1.0000
  H   H582      1.0  0.50030  0.49444  0.09755  1.0000
  H   H583      1.0  0.55240  0.29000  0.28181  1.0000
  H   H584      1.0  0.38753  0.36828  0.27797  1.0000
  C   C351      1.0  0.53059  0.01176  0.06372  1.0000
  H   H585      1.0  0.43543  0.48141  0.08488  1.0000
  H   H586      1.0  0.52575  0.47382  0.09749  1.0000
  H   H587      1.0  0.35519  0.37692  0.27016  1.0000
  C   C352      1.0  0.36812  0.18042  0.47846  1.0000
  H   H588      1.0  0.47132  0.04089  0.06202  1.0000
  H   H589      1.0  0.49364  0.47727  0.02125  1.0000
  C   C353      1.0  0.34771  0.01723  0.19686  1.0000
  H   H590      1.0  0.45054  0.20878  0.18334  1.0000
  H   H591      1.0  0.65494  0.49568  0.19816  1.0000
  H   H592      1.0  0.40396  0.15187  0.48432  1.0000
  H   H593      1.0  0.38435  0.14463  0.16359  1.0000
  H   H594      1.0  0.50450  0.43667  0.07229  1.0000
  H   H595      1.0  0.33862  0.46026  0.22115  1.0000
  C   C354      1.0  0.42774  0.19181  0.43813  1.0000
  C   C355      1.0  0.34791  0.31116  0.27233  1.0000
  H   H596      1.0  0.40197  0.25222  0.13681  1.0000
  H   H597      1.0  0.37515  0.20296  0.22484  1.0000
  C   C356      1.0  0.50120  0.01150  0.15402  1.0000
  C   C357      1.0  0.63508  0.01642  0.02394  1.0000
  C   C358      1.0  0.52821  0.48760  0.08061  1.0000
  H   H598      1.0  0.44407  0.21048  0.43202  1.0000
  C   C359      1.0  0.45356  0.48174  0.08850  1.0000
  C   C360      1.0  0.33980  0.35765  0.27623  1.0000
  H   H599      1.0  0.43489  0.18200  0.45205  1.0000
  S   S108      1.0  0.36598  0.40148  0.20633  1.0000
  C   C361      1.0  0.50052  0.06048  0.09385  1.0000
  H   H600      1.0  0.45540  0.23913  0.19360  1.0000
  N   N26       1.0  0.39377  0.19756  0.17259  1.0000
  C   C362      1.0  0.37060  0.17787  0.18792  1.0000
  C   C363      1.0  0.39788  0.18380  0.14809  1.0000
  C   C364      1.0  0.38806  0.21746  0.16111  1.0000
  C   C365      1.0  0.41576  0.20934  0.19346  1.0000
  C   C366      1.0  0.36011  0.18822  0.21099  1.0000
  C   C367      1.0  0.40207  0.16146  0.15646  1.0000
  C   C368      1.0  0.40932  0.23996  0.14514  1.0000
  C   C369      1.0  0.44261  0.22169  0.18090  1.0000
  H   H601      1.0  0.35880  0.30127  0.26771  1.0000
  H   H602      1.0  0.37440  0.16377  0.19878  1.0000
  H   H603      1.0  0.41404  0.19685  0.13491  1.0000
  H   H604      1.0  0.38140  0.17582  0.13303  1.0000
  H   H605      1.0  0.37115  0.20831  0.14668  1.0000
  H   H606      1.0  0.38330  0.22675  0.17859  1.0000
  H   H607      1.0  0.41489  0.22404  0.20706  1.0000
  H   H608      1.0  0.41451  0.19453  0.20841  1.0000
  C   C370      1.0  0.49148  0.04633  0.06479  1.0000
  H   H609      1.0  0.41136  0.37437  0.25280  1.0000
  H   H610      1.0  0.36663  0.02738  0.18735  1.0000
  C   C371      1.0  0.37716  0.20261  0.50019  1.0000
  H   H611      1.0  0.50229  0.45571  0.03481  1.0000
  H   H612      1.0  0.38237  0.33562  0.22479  1.0000
  Fe  Fe54      1.0  0.60039  0.01219  0.14761  1.0000
  H   H613      1.0  0.34888  0.19615  0.20130  1.0000
  H   H614      1.0  0.53086  0.00826  0.04057  1.0000
  H   H615      1.0  0.38773  0.14552  0.43946  1.0000
  H   H616      1.0  0.52140  0.07261  0.09481  1.0000
  H   H617      1.0  0.36536  0.03787  0.31258  1.0000
  C   C372      1.0  0.64991  0.30808  0.49661  1.0000
  N   N27       1.0  0.53536  0.31064  0.26277  1.0000
  C   C373      1.0  0.54661  0.29337  0.26050  1.0000
  C   C374      1.0  0.55632  0.33659  0.27252  1.0000
  C   C375      1.0  0.52588  0.31228  0.23346  1.0000
  C   C376      1.0  0.51392  0.29882  0.28347  1.0000
  C   C377      1.0  0.52934  0.26659  0.24720  1.0000
  C   C378      1.0  0.56787  0.33758  0.30221  1.0000
  C   C379      1.0  0.52136  0.33484  0.22796  1.0000
  C   C380      1.0  0.50241  0.31509  0.29375  1.0000
  H   H618      1.0  0.56419  0.30253  0.24779  1.0000
  H   H619      1.0  0.55030  0.35109  0.27298  1.0000
  H   H620      1.0  0.57200  0.34413  0.25698  1.0000
  H   H621      1.0  0.53945  0.31368  0.21694  1.0000
  H   H622      1.0  0.50779  0.29448  0.22816  1.0000
  H   H623      1.0  0.49788  0.28110  0.27410  1.0000
  H   H624      1.0  0.51921  0.29184  0.30271  1.0000
  H   H625      1.0  0.51171  0.25563  0.25919  1.0000
  H   H626      1.0  0.52482  0.26747  0.22446  1.0000
  H   H627      1.0  0.57886  0.32750  0.30236  1.0000
  H   H628      1.0  0.58139  0.35782  0.30817  1.0000
  C   C381      1.0  0.48555  0.42704  0.08162  1.0000
  H   H629      1.0  0.49267  0.07344  0.09662  1.0000
  H   H630      1.0  0.66108  0.25247  0.45615  1.0000
  H   H631      1.0  0.65387  0.31659  0.45162  1.0000
  C   C382      1.0  0.39373  0.35899  0.26221  1.0000
  H   H632      1.0  0.34543  0.29549  0.21931  1.0000
  H   H633      1.0  0.41674  0.16694  0.17333  1.0000
  H   H634      1.0  0.41599  0.23372  0.12658  1.0000
  C   C383      1.0  0.39151  0.02797  0.23812  1.0000
  H   H635      1.0  0.50195  0.06109  0.04847  1.0000
  C   C384      1.0  0.34897  0.02054  0.22958  1.0000
  C   C385      1.0  0.48891  0.48260  0.15707  1.0000
  H   H636      1.0  0.43758  0.18729  0.50401  1.0000
  C   C386      1.0  0.46024  0.47201  0.06130  1.0000
  H   H637      1.0  0.44234  0.45488  0.05398  1.0000
  H   H638      1.0  0.66735  0.39534  0.48520  1.0000
  H   H639      1.0  0.35960  0.18508  0.46014  1.0000
  H   H640      1.0  0.36980  0.15910  0.42679  1.0000
  S   S109      1.0  0.67082  0.32889  0.31775  1.0000
  H   H641      1.0  0.46482  0.48674  0.04468  1.0000
  H   H642      1.0  0.45412  0.42048  0.03197  1.0000
  Fe  Fe55      1.0  0.65616  0.02779  0.15532  1.0000
  S   S110      1.0  0.66048  0.30137  0.38025  1.0000
  H   H643      1.0  0.66690  0.06906  0.06757  1.0000
  H   H644      1.0  0.39964  0.20320  0.43630  1.0000
  H   H645      1.0  0.53492  0.48326  0.06068  1.0000
  H   H646      1.0  0.33761  0.40521  0.25254  1.0000
  H   H647      1.0  0.34538  0.35133  0.29560  1.0000
  H   H648      1.0  0.47696  0.00709  0.09992  1.0000
  C   C387      1.0  0.40596  0.00808  0.02181  1.0000
  C   C388      1.0  0.35054  0.12827  0.45606  1.0000
  Fe  Fe56      1.0  0.40599  0.00734  0.10109  1.0000
  N   N28       1.0  0.34748  0.32571  0.24655  1.0000
  C   C389      1.0  0.35406  0.47994  0.21745  1.0000
  H   H649      1.0  0.41427  0.00940  0.24407  1.0000
  H   H650      1.0  0.66490  0.22906  0.41630  1.0000
  H   H651      1.0  0.67062  0.03414  0.07484  1.0000
  C   C390      1.0  0.50412  0.48925  0.07623  1.0000
  H   H652      1.0  0.45068  0.44354  0.01094  1.0000
  H   H653      1.0  0.36872  0.00400  0.29014  1.0000
  H   H654      1.0  0.66816  0.25232  0.39110  1.0000
  H   H655      1.0  0.35802  0.32405  0.29068  1.0000
  H   H656      1.0  0.36122  0.20597  0.50450  1.0000
  H   H657      1.0  0.45557  0.01449  0.02129  1.0000
  C   C391      1.0  0.47381  0.02088  0.01087  1.0000
  H   H658      1.0  0.66865  0.49070  0.25651  1.0000
  C   C392      1.0  0.33774  0.40328  0.20667  1.0000
  C   C393      1.0  0.35393  0.50037  0.23733  1.0000
  H   H659      1.0  0.66744  0.27951  0.43407  1.0000
  C   C394      1.0  0.47649  0.00112  0.07750  1.0000
  Fe  Fe57      1.0  0.39944  0.02407  0.84197  1.0000
  S   S111      1.0  0.39269  0.05788  0.83503  1.0000
  S   S112      1.0  0.42795  0.02745  0.87515  1.0000
  C   C395      1.0  0.58481  0.28457  0.59368  1.0000
  S   S113      1.0  0.61451  0.03096  0.86644  1.0000
  H   H660      1.0  0.55752  0.19778  0.61036  1.0000
  Fe  Fe58      1.0  0.64057  0.03304  0.83149  1.0000
  C   C396      1.0  0.47638  0.01260  0.91939  1.0000
  S   S114      1.0  0.41382  0.00844  0.80827  1.0000
  C   C397      1.0  0.36864  0.29963  0.74730  1.0000
  H   H661      1.0  0.46193  0.49281  0.80575  1.0000
  S   S115      1.0  0.62363  0.29854  0.69552  1.0000
  H   H662      1.0  0.37781  0.14108  0.66827  1.0000
  Fe  Fe59      1.0  0.41425  0.20416  0.69754  1.0000
  S   S116      1.0  0.41000  0.19106  0.74285  1.0000
  S   S117      1.0  0.37647  0.19149  0.67492  1.0000
  Fe  Fe60      1.0  0.47232  0.23420  0.70375  1.0000
  S   S118      1.0  0.47170  0.22286  0.74953  1.0000
  S   S119      1.0  0.50640  0.25973  0.67634  1.0000
  Fe  Fe61      1.0  0.44160  0.18329  0.73476  1.0000
  S   S120      1.0  0.44085  0.14520  0.74117  1.0000
  Fe  Fe62      1.0  0.43979  0.23150  0.75400  1.0000
  S   S121      1.0  0.43118  0.24843  0.79324  1.0000
  S   S122      1.0  0.44425  0.19422  0.68848  1.0000
  S   S123      1.0  0.44216  0.24515  0.70922  1.0000
  Fe  Fe63      1.0  0.41456  0.37001  0.83624  1.0000
  S   S124      1.0  0.42318  0.41044  0.82730  1.0000
  S   S125      1.0  0.42182  0.34927  0.79950  1.0000
  Fe  Fe64      1.0  0.40154  0.37351  0.89852  1.0000
  S   S126      1.0  0.40873  0.41337  0.89364  1.0000
  S   S127      1.0  0.39327  0.35209  0.94058  1.0000
  Fe  Fe65      1.0  0.38774  0.40009  0.85145  1.0000
  Fe  Fe66      1.0  0.44324  0.42087  0.86976  1.0000
  S   S128      1.0  0.47985  0.45482  0.88596  1.0000
  S   S129      1.0  0.37774  0.35894  0.85801  1.0000
  S   S130      1.0  0.43742  0.38165  0.87696  1.0000
  H   H663      1.0  0.63919  0.36230  0.76112  1.0000
  H   H664      1.0  0.54091  0.20803  0.58847  1.0000
  C   C398      1.0  0.50041  0.48111  0.83612  1.0000
  C   C399      1.0  0.34246  0.17341  0.63002  1.0000
  H   H665      1.0  0.48442  0.46573  0.82490  1.0000
  C   C400      1.0  0.52658  0.02786  0.84389  1.0000
  C   C401      1.0  0.39608  0.36661  0.97460  1.0000
  C   C402      1.0  0.39791  0.39057  0.97749  1.0000
  H   H666      1.0  0.62319  0.35510  0.72656  1.0000
  H   H667      1.0  0.39796  0.40085  0.95871  1.0000
  C   C403      1.0  0.42485  0.32144  0.79882  1.0000
  C   C404      1.0  0.41292  0.30188  0.81856  1.0000
  C   C405      1.0  0.41535  0.27984  0.81680  1.0000
  C   C406      1.0  0.42901  0.27671  0.79473  1.0000
  C   C407      1.0  0.44044  0.29601  0.77459  1.0000
  C   C408      1.0  0.43852  0.31831  0.77680  1.0000
  H   H668      1.0  0.40146  0.30358  0.83479  1.0000
  H   H669      1.0  0.40612  0.26485  0.83224  1.0000
  H   H670      1.0  0.45109  0.29394  0.75756  1.0000
  H   H671      1.0  0.44767  0.33324  0.76127  1.0000
  C   C409      1.0  0.59130  0.28938  0.69121  1.0000
  C   C410      1.0  0.58286  0.29856  0.66887  1.0000
  C   C411      1.0  0.55686  0.28962  0.66505  1.0000
  C   C412      1.0  0.53899  0.27154  0.68353  1.0000
  C   C413      1.0  0.54749  0.26285  0.70630  1.0000
  C   C414      1.0  0.57353  0.27182  0.71016  1.0000
  H   H672      1.0  0.59634  0.31250  0.65454  1.0000
  H   H673      1.0  0.55050  0.29667  0.64756  1.0000
  H   H674      1.0  0.53398  0.24900  0.72074  1.0000
  H   H675      1.0  0.57986  0.26471  0.72761  1.0000
  H   H676      1.0  0.52585  0.49918  0.90277  1.0000
  H   H677      1.0  0.44439  0.11182  0.85670  1.0000
  H   H678      1.0  0.34874  0.29180  0.74034  1.0000
  C   C415      1.0  0.33865  0.22742  0.69158  1.0000
  H   H679      1.0  0.35703  0.09465  0.63688  1.0000
  H   H680      1.0  0.48259  0.02871  0.90433  1.0000
  Fe  Fe67      1.0  0.65298  0.31437  0.66055  1.0000
  C   C416      1.0  0.40480  0.08129  0.80783  1.0000
  C   C417      1.0  0.40415  0.10414  0.81148  1.0000
  C   C418      1.0  0.41468  0.12377  0.79114  1.0000
  C   C419      1.0  0.42599  0.12073  0.76683  1.0000
  C   C420      1.0  0.42605  0.09762  0.76281  1.0000
  C   C421      1.0  0.41545  0.07798  0.78308  1.0000
  H   H681      1.0  0.39579  0.10685  0.83042  1.0000
  H   H682      1.0  0.41440  0.14137  0.79453  1.0000
  H   H683      1.0  0.43460  0.09495  0.74400  1.0000
  H   H684      1.0  0.41569  0.06036  0.77969  1.0000
  H   H685      1.0  0.66099  0.16483  0.78921  1.0000
  H   H686      1.0  0.55236  0.25863  0.61742  1.0000
  N   N29       1.0  0.57345  0.23912  0.60995  1.0000
  H   H687      1.0  0.41331  0.27388  0.71489  1.0000
  C   C422      1.0  0.36713  0.18057  0.63918  1.0000
  H   H688      1.0  0.64151  0.34779  0.54712  1.0000
  H   H689      1.0  0.48976  0.01980  0.93773  1.0000
  H   H690      1.0  0.39303  0.14129  0.71574  1.0000
  H   H691      1.0  0.43863  0.08151  0.87030  1.0000
  H   H692      1.0  0.40389  0.30385  0.73370  1.0000
  H   H693      1.0  0.64457  0.37512  0.65459  1.0000
  S   S131      1.0  0.48328  0.03038  0.83768  1.0000
  H   H694      1.0  0.42221  0.11482  0.66577  1.0000
  H   H695      1.0  0.59949  0.29351  0.61054  1.0000
  H   H696      1.0  0.57113  0.24794  0.65442  1.0000
  H   H697      1.0  0.61658  0.49531  0.85325  1.0000
  H   H698      1.0  0.36947  0.29274  0.76891  1.0000
  H   H699      1.0  0.38619  0.26552  0.76313  1.0000
  C   C423      1.0  0.56424  0.25700  0.60068  1.0000
  C   C424      1.0  0.59453  0.23033  0.65328  1.0000
  H   H700      1.0  0.34655  0.12682  0.67900  1.0000
  H   H701      1.0  0.45547  0.05554  0.78671  1.0000
  H   H702      1.0  0.57130  0.46829  0.82554  1.0000
  H   H703      1.0  0.39427  0.33487  0.99743  1.0000
  N   N30       1.0  0.36562  0.10679  0.69358  1.0000
  H   H704      1.0  0.40235  0.18387  0.62670  1.0000
  H   H705      1.0  0.35429  0.14341  0.72283  1.0000
  C   C425      1.0  0.58571  0.23414  0.55894  1.0000
  H   H706      1.0  0.58367  0.20991  0.64690  1.0000
  H   H707      1.0  0.38372  0.26902  0.65891  1.0000
  N   N31       1.0  0.44122  0.32155  0.91786  1.0000
  C   C426      1.0  0.44174  0.33586  0.94465  1.0000
  C   C427      1.0  0.41660  0.31389  0.90248  1.0000
  C   C428      1.0  0.46346  0.33970  0.90010  1.0000
  C   C429      1.0  0.44342  0.29869  0.92628  1.0000
  H   H708      1.0  0.64699  0.37710  0.53253  1.0000
  C   C430      1.0  0.39241  0.29387  0.91732  1.0000
  C   C431      1.0  0.46154  0.33474  0.86765  1.0000
  C   C432      1.0  0.44066  0.27987  0.90220  1.0000
  H   H709      1.0  0.43907  0.35232  0.93925  1.0000
  H   H710      1.0  0.42600  0.32359  0.95894  1.0000
  H   H711      1.0  0.41581  0.30585  0.88106  1.0000
  H   H712      1.0  0.41464  0.33098  0.89862  1.0000
  H   H713      1.0  0.46725  0.35972  0.90256  1.0000
  H   H714      1.0  0.39271  0.23219  0.74400  1.0000
  H   H715      1.0  0.46220  0.30495  0.93629  1.0000
  H   H716      1.0  0.42999  0.28767  0.94343  1.0000
  C   C433      1.0  0.61341  0.49498  0.79406  1.0000
  C   C434      1.0  0.63583  0.01222  0.97198  1.0000
  H   H717      1.0  0.44582  0.46611  0.85124  1.0000
  H   H718      1.0  0.39197  0.27543  0.92008  1.0000
  C   C435      1.0  0.37570  0.12291  0.72034  1.0000
  H   H719      1.0  0.37586  0.28990  0.90365  1.0000
  H   H720      1.0  0.44801  0.33961  0.85759  1.0000
  H   H721      1.0  0.45633  0.31492  0.86176  1.0000
  H   H722      1.0  0.48014  0.34758  0.85803  1.0000
  H   H723      1.0  0.45910  0.28593  0.89209  1.0000
  H   H724      1.0  0.42659  0.27714  0.88556  1.0000
  H   H725      1.0  0.43354  0.26053  0.91124  1.0000
  C   C436      1.0  0.40070  0.27768  0.67304  1.0000
  H   H726      1.0  0.46861  0.33159  0.97275  1.0000
  C   C437      1.0  0.40765  0.01206  0.96973  1.0000
  H   H727      1.0  0.35313  0.24798  0.75700  1.0000
  H   H728      1.0  0.35631  0.06025  0.72021  1.0000
  H   H729      1.0  0.56057  0.02588  0.85106  1.0000
  H   H730      1.0  0.39205  0.09345  0.70212  1.0000
  H   H731      1.0  0.65612  0.36586  0.69967  1.0000
  C   C438      1.0  0.38332  0.17842  0.61999  1.0000
  H   H732      1.0  0.39091  0.24496  0.69833  1.0000
  H   H733      1.0  0.59283  0.23080  0.67679  1.0000
  C   C439      1.0  0.66243  0.31054  0.52270  1.0000
  H   H734      1.0  0.38189  0.11354  0.73629  1.0000
  H   H735      1.0  0.65784  0.13591  0.75418  1.0000
  N   N32       1.0  0.37498  0.26601  0.71932  1.0000
  C   C440      1.0  0.58458  0.24685  0.63956  1.0000
  H   H736      1.0  0.66220  0.17145  0.73564  1.0000
  H   H737      1.0  0.52434  0.21958  0.63292  1.0000
  H   H738      1.0  0.63034  0.38559  0.68014  1.0000
  H   H739      1.0  0.38431  0.30415  0.70581  1.0000
  H   H740      1.0  0.51323  0.09786  0.84315  1.0000
  H   H741      1.0  0.48311  0.36029  0.95131  1.0000
  H   H742      1.0  0.57137  0.21365  0.55579  1.0000
  S   S132      1.0  0.66204  0.28940  0.63284  1.0000
  H   H743      1.0  0.47098  0.15304  0.83614  1.0000
  C   C441      1.0  0.39583  0.35347  0.99938  1.0000
  C   C442      1.0  0.38494  0.09987  0.68382  1.0000
  H   H744      1.0  0.38218  0.19759  0.52097  1.0000
  H   H745      1.0  0.51579  0.11161  0.80909  1.0000
  C   C443      1.0  0.35757  0.12983  0.73544  1.0000
  H   H746      1.0  0.46439  0.35802  0.98114  1.0000
  H   H747      1.0  0.36042  0.21350  0.73139  1.0000
  H   H748      1.0  0.35268  0.22268  0.68341  1.0000
  C   C444      1.0  0.35012  0.16188  0.58287  1.0000
  H   H749      1.0  0.38742  0.16733  0.57743  1.0000
  H   H750      1.0  0.36642  0.13965  0.75598  1.0000
  H   H751      1.0  0.37651  0.08323  0.66878  1.0000
  H   H752      1.0  0.65128  0.40787  0.75699  1.0000
  C   C445      1.0  0.40849  0.12143  0.66958  1.0000
  H   H753      1.0  0.41813  0.13870  0.68338  1.0000
  S   S133      1.0  0.65933  0.06576  0.79965  1.0000
  H   H754      1.0  0.41085  0.02364  0.95108  1.0000
  C   C446      1.0  0.37305  0.22787  0.74736  1.0000
  Fe  Fe68      1.0  0.44061  0.00942  0.84206  1.0000
  C   C447      1.0  0.64875  0.38939  0.67184  1.0000
  H   H755      1.0  0.44425  0.48070  0.89825  1.0000
  H   H756      1.0  0.66930  0.43413  0.70035  1.0000
  Fe  Fe69      1.0  0.63176  0.01215  0.89269  1.0000
  C   C448      1.0  0.35028  0.25510  0.70305  1.0000
  H   H757      1.0  0.66866  0.35732  0.74246  1.0000
  C   C449      1.0  0.46717  0.08099  0.82379  1.0000
  S   S134      1.0  0.36376  0.41885  0.84186  1.0000
  C   C450      1.0  0.66536  0.38656  0.69484  1.0000
  H   H758      1.0  0.61263  0.36632  0.75544  1.0000
  H   H759      1.0  0.63783  0.48394  0.77213  1.0000
  H   H760      1.0  0.37709  0.32072  0.74947  1.0000
  H   H761      1.0  0.51506  0.18658  0.62842  1.0000
  C   C451      1.0  0.55128  0.21219  0.60924  1.0000
  C   C452      1.0  0.37482  0.16908  0.59203  1.0000
  H   H762      1.0  0.64599  0.04740  0.99445  1.0000
  C   C453      1.0  0.53152  0.20595  0.63259  1.0000
  H   H763      1.0  0.41604  0.04290  0.99946  1.0000
  C   C454      1.0  0.47149  0.07448  0.79323  1.0000
  H   H764      1.0  0.60256  0.23778  0.54657  1.0000
  C   C455      1.0  0.46605  0.34688  0.96317  1.0000
  H   H765      1.0  0.47239  0.08843  0.77742  1.0000
  H   H766      1.0  0.59399  0.28535  0.57322  1.0000
  C   C456      1.0  0.50055  0.01411  0.83774  1.0000
  H   H767      1.0  0.43719  0.46083  0.80067  1.0000
  H   H768      1.0  0.65875  0.40841  0.66167  1.0000
  C   C457      1.0  0.65277  0.36892  0.54999  1.0000
  C   C458      1.0  0.38405  0.29394  0.72555  1.0000
  H   H769      1.0  0.60095  0.26665  0.63986  1.0000
  C   C459      1.0  0.44180  0.47958  0.81024  1.0000
  C   C460      1.0  0.37149  0.25262  0.74741  1.0000
  H   H770      1.0  0.41512  0.27458  0.66239  1.0000
  C   C461      1.0  0.40621  0.47412  0.89506  1.0000
  H   H771      1.0  0.39533  0.48353  0.88886  1.0000
  H   H772      1.0  0.49028  0.12915  0.79507  1.0000
  H   H773      1.0  0.53912  0.20554  0.65402  1.0000
  H   H774      1.0  0.55158  0.24933  0.58158  1.0000
  H   H775      1.0  0.40870  0.29867  0.67483  1.0000
  H   H776      1.0  0.57593  0.29664  0.59130  1.0000
  N   N33       1.0  0.48464  0.10808  0.83414  1.0000
  C   C462      1.0  0.59357  0.24060  0.59057  1.0000
  C   C463      1.0  0.47890  0.10933  0.86509  1.0000
  H   H777      1.0  0.48106  0.34030  0.90767  1.0000
  C   C464      1.0  0.48044  0.12608  0.81571  1.0000
  C   C465      1.0  0.51124  0.11293  0.83168  1.0000
  C   C466      1.0  0.45155  0.10250  0.87134  1.0000
  C   C467      1.0  0.53262  0.13910  0.84242  1.0000
  C   C468      1.0  0.48796  0.15271  0.82855  1.0000
  H   H778      1.0  0.46830  0.06709  0.83826  1.0000
  H   H779      1.0  0.44718  0.07625  0.82442  1.0000
  H   H780      1.0  0.49127  0.12844  0.87477  1.0000
  H   H781      1.0  0.48285  0.09613  0.87781  1.0000
  H   H782      1.0  0.61077  0.25989  0.59192  1.0000
  H   H783      1.0  0.63500  0.40201  0.72398  1.0000
  H   H784      1.0  0.53423  0.15480  0.82888  1.0000
  H   H785      1.0  0.46007  0.11725  0.81006  1.0000
  H   H786      1.0  0.36768  0.21895  0.76865  1.0000
  H   H787      1.0  0.53589  0.04831  0.84755  1.0000
  H   H788      1.0  0.55253  0.48192  0.83557  1.0000
  H   H789      1.0  0.45055  0.10870  0.89338  1.0000
  H   H790      1.0  0.35145  0.26749  0.68499  1.0000
  H   H791      1.0  0.55081  0.13929  0.84061  1.0000
  H   H792      1.0  0.53087  0.14286  0.86515  1.0000
  H   H793      1.0  0.49554  0.16706  0.81133  1.0000
  H   H794      1.0  0.50245  0.15971  0.84567  1.0000
  S   S135      1.0  0.65208  0.33764  0.62416  1.0000
  S   S136      1.0  0.64484  0.30002  0.55428  1.0000
  S   S137      1.0  0.65970  0.01714  0.85871  1.0000
  C   C469      1.0  0.43606  0.47597  0.84228  1.0000
  H   H795      1.0  0.64673  0.37314  0.57057  1.0000
  C   C470      1.0  0.64685  0.39649  0.73688  1.0000
  H   H796      1.0  0.38948  0.30084  0.93801  1.0000
  S   S138      1.0  0.34031  0.14967  0.54759  1.0000
  C   C471      1.0  0.39523  0.26488  0.70239  1.0000
  C   C472      1.0  0.41054  0.02292  0.99722  1.0000
  H   H797      1.0  0.40321  0.47011  0.91818  1.0000
  N   N34       1.0  0.67073  0.40283  0.72141  1.0000
  H   H798      1.0  0.40387  0.12656  0.64861  1.0000
  H   H799      1.0  0.42955  0.48545  0.79895  1.0000
  H   H800      1.0  0.60009  0.22724  0.59756  1.0000
  H   H801      1.0  0.48860  0.07258  0.79218  1.0000
  H   H802      1.0  0.45720  0.00776  0.92619  1.0000
  C   C473      1.0  0.62983  0.36837  0.74522  1.0000
  S   S139      1.0  0.64411  0.02750  0.93839  1.0000
  H   H803      1.0  0.59750  0.49030  0.77886  1.0000
  C   C474      1.0  0.50299  0.47986  0.86561  1.0000
  H   H804      1.0  0.35799  0.12288  0.62516  1.0000
  C   C475      1.0  0.63959  0.02723  0.99660  1.0000
  H   H805      1.0  0.61468  0.23783  0.64812  1.0000
  H   H806      1.0  0.41558  0.46191  0.84315  1.0000
  H   H807      1.0  0.57864  0.24623  0.54965  1.0000
  C   C476      1.0  0.54060  0.01520  0.84591  1.0000
  H   H808      1.0  0.41700  0.17912  0.53318  1.0000
  C   C477      1.0  0.36083  0.12194  0.67150  1.0000
  H   H809      1.0  0.39811  0.45526  0.88425  1.0000
  H   H810      1.0  0.60827  0.47685  0.80526  1.0000
  C   C478      1.0  0.35077  0.10844  0.64227  1.0000
  H   H811      1.0  0.66063  0.14884  0.83636  1.0000
  H   H812      1.0  0.66157  0.12679  0.81157  1.0000
  C   C479      1.0  0.57200  0.48498  0.83639  1.0000
  H   H813      1.0  0.52265  0.00730  0.93047  1.0000
  H   H814      1.0  0.42103  0.20453  0.51112  1.0000
  H   H815      1.0  0.57681  0.48542  0.85932  1.0000
  Fe  Fe70      1.0  0.66447  0.31517  0.59716  1.0000
  H   H816      1.0  0.46965  0.01010  0.99040  1.0000
  C   C480      1.0  0.39885  0.40094  0.00479  1.0000
  C   C481      1.0  0.43481  0.49119  0.89000  1.0000
  C   C482      1.0  0.34119  0.08250  0.69892  1.0000
  C   C483      1.0  0.34195  0.06607  0.72355  1.0000
  H   H817      1.0  0.34542  0.07596  0.74451  1.0000
  C   C484      1.0  0.33859  0.41143  0.81716  1.0000
  H   H818      1.0  0.40861  0.49794  0.84360  1.0000
  N   N35       1.0  0.44262  0.49964  0.85975  1.0000
  H   H819      1.0  0.47117  0.43231  0.99965  1.0000
  H   H820      1.0  0.33934  0.11286  0.74083  1.0000
  C   C485      1.0  0.41942  0.18548  0.51071  1.0000
  C   C486      1.0  0.52384  0.49992  0.87992  1.0000
  H   H821      1.0  0.38161  0.15285  0.50733  1.0000
  H   H822      1.0  0.65368  0.49989  0.82984  1.0000
  H   H823      1.0  0.34866  0.55670  0.27796  1.0000
  S   S140      1.0  0.39453  0.96761  0.11577  1.0000
  H   H824      1.0  0.48778  0.95231  0.19385  1.0000
  Fe  Fe71      1.0  0.37566  0.97525  0.15257  1.0000
  C   C487      1.0  0.62752  0.99055  0.02708  1.0000
  H   H825      1.0  0.34404  0.87926  0.21408  1.0000
  S   S141      1.0  0.58910  0.97255  0.13247  1.0000
  Fe  Fe72      1.0  0.61411  0.97243  0.16818  1.0000
  S   S142      1.0  0.59741  0.93928  0.19988  1.0000
  Fe  Fe73      1.0  0.64024  0.60074  0.17308  1.0000
  S   S143      1.0  0.60791  0.60685  0.18528  1.0000
  H   H826      1.0  0.55340  0.99983  0.23694  1.0000
  Fe  Fe74      1.0  0.63371  0.60886  0.10950  1.0000
  S   S144      1.0  0.60170  0.61609  0.11738  1.0000
  S   S145      1.0  0.65199  0.61102  0.06657  1.0000
  Fe  Fe75      1.0  0.62417  0.63994  0.15535  1.0000
  S   S146      1.0  0.63093  0.68050  0.16372  1.0000
  Fe  Fe76      1.0  0.58747  0.58242  0.14683  1.0000
  S   S147      1.0  0.54483  0.55599  0.14667  1.0000
  H   H827      1.0  0.46800  0.50186  0.09373  1.0000
  S   S148      1.0  0.61822  0.57355  0.13674  1.0000
  S   S149      1.0  0.35317  0.67000  0.32360  1.0000
  C   C488      1.0  0.67067  0.51510  0.19347  1.0000
  S   S150      1.0  0.36687  0.69164  0.39034  1.0000
  H   H828      1.0  0.49913  0.91261  0.19839  1.0000
  Fe  Fe77      1.0  0.37937  0.67196  0.35888  1.0000
  S   S151      1.0  0.41991  0.67987  0.35527  1.0000
  S   S152      1.0  0.35187  0.63261  0.37481  1.0000
  Fe  Fe78      1.0  0.55158  0.77720  0.28521  1.0000
  S   S153      1.0  0.57136  0.77836  0.24458  1.0000
  S   S154      1.0  0.51034  0.76675  0.28497  1.0000
  Fe  Fe79      1.0  0.60036  0.79833  0.32117  1.0000
  S   S155      1.0  0.62351  0.80029  0.28352  1.0000
  S   S156      1.0  0.61284  0.81119  0.36711  1.0000
  Fe  Fe80      1.0  0.60229  0.81697  0.26048  1.0000
  S   S157      1.0  0.62459  0.85281  0.23357  1.0000
  Fe  Fe81      1.0  0.59077  0.76163  0.27055  1.0000
  S   S158      1.0  0.58940  0.72357  0.26131  1.0000
  S   S159      1.0  0.58102  0.81691  0.29898  1.0000
  S   S160      1.0  0.56900  0.75854  0.31034  1.0000
  H   H829      1.0  0.36626  0.50294  0.25616  1.0000
  H   H830      1.0  0.61207  0.87032  0.31714  1.0000
  H   H831      1.0  0.39522  0.97057  0.03721  1.0000
  C   C489      1.0  0.48534  0.74211  0.30420  1.0000
  C   C490      1.0  0.48836  0.72395  0.31940  1.0000
  C   C491      1.0  0.46803  0.70487  0.33464  1.0000
  C   C492      1.0  0.44451  0.70376  0.33493  1.0000
  C   C493      1.0  0.44144  0.72180  0.31955  1.0000
  C   C494      1.0  0.46175  0.74082  0.30420  1.0000
  H   H832      1.0  0.50637  0.72468  0.31967  1.0000
  H   H833      1.0  0.47052  0.69095  0.34648  1.0000
  H   H834      1.0  0.42343  0.72114  0.31959  1.0000
  H   H835      1.0  0.45918  0.75472  0.29243  1.0000
  C   C495      1.0  0.63874  0.60959  0.03219  1.0000
  C   C496      1.0  0.61499  0.60735  0.02851  1.0000
  H   H836      1.0  0.63408  0.64793  0.27124  1.0000
  H   H837      1.0  0.60415  0.60637  0.04698  1.0000
  H   H838      1.0  0.35173  0.59487  0.42219  1.0000
  C   C497      1.0  0.61778  0.69178  0.18980  1.0000
  C   C498      1.0  0.62576  0.71808  0.19118  1.0000
  C   C499      1.0  0.61687  0.72813  0.21245  1.0000
  C   C500      1.0  0.60010  0.71199  0.23285  1.0000
  C   C501      1.0  0.59192  0.68565  0.23130  1.0000
  C   C502      1.0  0.60048  0.67555  0.20976  1.0000
  H   H839      1.0  0.63908  0.73080  0.17580  1.0000
  H   H840      1.0  0.62337  0.74841  0.21335  1.0000
  H   H841      1.0  0.57891  0.67296  0.24692  1.0000
  H   H842      1.0  0.59393  0.65526  0.20878  1.0000
  H   H843      1.0  0.48789  0.99634  0.02597  1.0000
  C   C503      1.0  0.52893  0.52266  0.15260  1.0000
  H   H844      1.0  0.56226  0.51926  0.15498  1.0000
  H   H845      1.0  0.49232  0.51966  0.15136  1.0000
  C   C504      1.0  0.64848  0.82968  0.41038  1.0000
  C   C505      1.0  0.64365  0.82234  0.38147  1.0000
  C   C506      1.0  0.61657  0.87657  0.22437  1.0000
  C   C507      1.0  0.63215  0.89616  0.20566  1.0000
  C   C508      1.0  0.62659  0.91541  0.19778  1.0000
  C   C509      1.0  0.60543  0.91544  0.20875  1.0000
  C   C510      1.0  0.59005  0.89604  0.22778  1.0000
  C   C511      1.0  0.59551  0.87670  0.23550  1.0000
  H   H846      1.0  0.64850  0.89631  0.19692  1.0000
  H   H847      1.0  0.63864  0.93016  0.18319  1.0000
  H   H848      1.0  0.57365  0.89583  0.23646  1.0000
  H   H849      1.0  0.58335  0.86184  0.24993  1.0000
  H   H850      1.0  0.63704  0.89652  0.33558  1.0000
  H   H851      1.0  0.48142  0.98577  0.07818  1.0000
  H   H852      1.0  0.50904  0.50606  0.06249  1.0000
  H   H853      1.0  0.37956  0.97507  0.26332  1.0000
  C   C512      1.0  0.53283  0.91876  0.17746  1.0000
  H   H854      1.0  0.53799  0.97693  0.13275  1.0000
  C   C513      1.0  0.50129  0.97362  0.13709  1.0000
  S   S161      1.0  0.45447  0.96851  0.14365  1.0000
  H   H855      1.0  0.49107  0.95387  0.12987  1.0000
  C   C514      1.0  0.50243  0.50929  0.15353  1.0000
  H   H856      1.0  0.57576  0.98901  0.24508  1.0000
  C   C515      1.0  0.49986  0.96530  0.21129  1.0000
  H   H857      1.0  0.33788  0.99683  0.19003  1.0000
  H   H858      1.0  0.54357  0.50656  0.08840  1.0000
  C   C516      1.0  0.51742  0.92940  0.19209  1.0000
  C   C517      1.0  0.44873  0.98768  0.06758  1.0000
  H   H859      1.0  0.63522  0.62577  0.24570  1.0000
  C   C518      1.0  0.54186  0.50915  0.15563  1.0000
  H   H860      1.0  0.35957  0.91870  0.18553  1.0000
  H   H861      1.0  0.51856  0.96507  0.24978  1.0000
  H   H862      1.0  0.64691  0.85309  0.32676  1.0000
  H   H863      1.0  0.51958  0.99331  0.07474  1.0000
  H   H864      1.0  0.49454  0.93438  0.23832  1.0000
  H   H865      1.0  0.36645  0.55061  0.25242  1.0000
  S   S162      1.0  0.66027  0.59316  0.21047  1.0000
  C   C519      1.0  0.34700  0.54437  0.25939  1.0000
  S   S163      1.0  0.62404  0.97643  0.06111  1.0000
  H   H866      1.0  0.62279  0.86518  0.35051  1.0000
  C   C520      1.0  0.48785  0.98591  0.14501  1.0000
  H   H867      1.0  0.36467  0.51877  0.22596  1.0000
  C   C521      1.0  0.65104  0.66527  0.22985  1.0000
  C   C522      1.0  0.63275  0.64265  0.24841  1.0000
  H   H868      1.0  0.55718  0.93649  0.23272  1.0000
  H   H869      1.0  0.56722  0.96702  0.19858  1.0000
  H   H870      1.0  0.52530  0.91248  0.23705  1.0000
  N   N36       1.0  0.50792  0.70206  0.22971  1.0000
  C   C523      1.0  0.50689  0.70251  0.26184  1.0000
  C   C524      1.0  0.50230  0.72227  0.21907  1.0000
  C   C525      1.0  0.53434  0.70858  0.22182  1.0000
  C   C526      1.0  0.48882  0.67553  0.21936  1.0000
  C   C527      1.0  0.51507  0.68546  0.27780  1.0000
  C   C528      1.0  0.47551  0.71750  0.22484  1.0000
  C   C529      1.0  0.54349  0.71908  0.19180  1.0000
  C   C530      1.0  0.48419  0.67133  0.18693  1.0000
  H   H871      1.0  0.51906  0.72239  0.27027  1.0000
  H   H872      1.0  0.48746  0.69636  0.26908  1.0000
  H   H873      1.0  0.50497  0.72510  0.19583  1.0000
  H   H874      1.0  0.51596  0.74129  0.22868  1.0000
  H   H875      1.0  0.54829  0.72357  0.23658  1.0000
  H   H876      1.0  0.53702  0.69175  0.22444  1.0000
  H   H877      1.0  0.49454  0.66152  0.22621  1.0000
  H   H878      1.0  0.47025  0.66854  0.22972  1.0000
  H   H879      1.0  0.50259  0.66487  0.27274  1.0000
  H   H880      1.0  0.53500  0.69107  0.27385  1.0000
  H   H881      1.0  0.51370  0.68787  0.30107  1.0000
  H   H882      1.0  0.46068  0.69935  0.21495  1.0000
  H   H883      1.0  0.47197  0.71787  0.24787  1.0000
  H   H884      1.0  0.47356  0.73324  0.21531  1.0000
  H   H885      1.0  0.54669  0.73881  0.18974  1.0000
  H   H886      1.0  0.53074  0.70669  0.17457  1.0000
  H   H887      1.0  0.56211  0.72046  0.18851  1.0000
  H   H888      1.0  0.49709  0.66546  0.17735  1.0000
  H   H889      1.0  0.48589  0.68805  0.17555  1.0000
  H   H890      1.0  0.46444  0.65585  0.18276  1.0000
  Fe  Fe82      1.0  0.42984  0.98706  0.14338  1.0000
  Fe  Fe83      1.0  0.62427  0.99169  0.10607  1.0000
  H   H891      1.0  0.36334  0.98324  0.21537  1.0000
  C   C531      1.0  0.34117  0.91023  0.19513  1.0000
  C   C532      1.0  0.53925  0.94042  0.27016  1.0000
  H   H892      1.0  0.34402  0.51512  0.28719  1.0000
  C   C533      1.0  0.39888  0.98226  0.01857  1.0000
  H   H893      1.0  0.48747  0.96997  0.22407  1.0000
  S   S164      1.0  0.64850  0.98866  0.14080  1.0000
  N   N37       1.0  0.52318  0.77936  0.38660  1.0000
  C   C534      1.0  0.49529  0.75991  0.38526  1.0000
  C   C535      1.0  0.53667  0.76796  0.37083  1.0000
  C   C536      1.0  0.52684  0.80274  0.37103  1.0000
  C   C537      1.0  0.53144  0.78551  0.41745  1.0000
  C   C538      1.0  0.47741  0.76806  0.39865  1.0000
  C   C539      1.0  0.53267  0.74228  0.38222  1.0000
  C   C540      1.0  0.55405  0.82531  0.36933  1.0000
  C   C541      1.0  0.55981  0.79608  0.42440  1.0000
  H   H894      1.0  0.48881  0.75434  0.36281  1.0000
  H   H895      1.0  0.49120  0.74195  0.39615  1.0000
  H   H896      1.0  0.55730  0.78106  0.37043  1.0000
  H   H897      1.0  0.53085  0.76494  0.34794  1.0000
  H   H898      1.0  0.51929  0.79744  0.34873  1.0000
  H   H899      1.0  0.51608  0.81092  0.38119  1.0000
  H   H900      1.0  0.52623  0.79942  0.42619  1.0000
  H   H901      1.0  0.52112  0.76790  0.43038  1.0000
  H   H902      1.0  0.47570  0.78231  0.38545  1.0000
  H   H903      1.0  0.45812  0.75103  0.39935  1.0000
  H   H904      1.0  0.48296  0.77530  0.42082  1.0000
  H   H905      1.0  0.54689  0.73822  0.37275  1.0000
  H   H906      1.0  0.53495  0.74254  0.40566  1.0000
  H   H907      1.0  0.51385  0.72616  0.37581  1.0000
  H   H908      1.0  0.56125  0.83447  0.39053  1.0000
  H   H909      1.0  0.55410  0.84016  0.35544  1.0000
  H   H910      1.0  0.56718  0.81992  0.35969  1.0000
  H   H911      1.0  0.56549  0.80979  0.44264  1.0000
  H   H912      1.0  0.57292  0.80648  0.40709  1.0000
  H   H913      1.0  0.56315  0.78058  0.43186  1.0000
  H   H914      1.0  0.35851  0.68884  0.46231  1.0000
  H   H915      1.0  0.52140  0.90575  0.15966  1.0000
  C   C542      1.0  0.51080  0.95252  0.23062  1.0000
  H   H916      1.0  0.35444  0.94822  0.24526  1.0000
  H   H917      1.0  0.64717  0.65816  0.20744  1.0000
  H   H918      1.0  0.43745  0.97178  0.08231  1.0000
  H   H919      1.0  0.63783  0.86005  0.29389  1.0000
  N   N38       1.0  0.53007  0.94715  0.21734  1.0000
  H   H920      1.0  0.61309  0.63645  0.24141  1.0000
  H   H921      1.0  0.53776  0.90744  0.19198  1.0000
  H   H922      1.0  0.44592  0.97885  0.04610  1.0000
  C   C543      1.0  0.64710  0.86898  0.31463  1.0000
  C   C544      1.0  0.52785  0.98663  0.13872  1.0000
  H   H923      1.0  0.63333  0.82792  0.42358  1.0000
  H   H924      1.0  0.51993  0.93233  0.27870  1.0000
  H   H925      1.0  0.64509  0.67991  0.23093  1.0000
  H   H926      1.0  0.66650  0.87778  0.36876  1.0000
  H   H927      1.0  0.66197  0.52660  0.18661  1.0000
  H   H928      1.0  0.65404  0.69384  0.27722  1.0000
  H   H929      1.0  0.54993  0.96120  0.27472  1.0000
  C   C545      1.0  0.53828  0.93360  0.23823  1.0000
  C   C546      1.0  0.55256  0.97114  0.20659  1.0000
  H   H930      1.0  0.54705  0.97859  0.18800  1.0000
  H   H931      1.0  0.51270  0.93912  0.17505  1.0000
  H   H932      1.0  0.54867  0.93164  0.28221  1.0000
  H   H933      1.0  0.55028  0.93413  0.16803  1.0000
  H   H934      1.0  0.34738  0.96148  0.27539  1.0000
  C   C547      1.0  0.56610  0.99353  0.22797  1.0000
  C   C548      1.0  0.35235  0.67813  0.48181  1.0000
  C   C549      1.0  0.62926  0.87608  0.33043  1.0000
  C   C550      1.0  0.35490  0.98368  0.23609  1.0000
  H   H935      1.0  0.51475  0.98357  0.20247  1.0000
  S   S165      1.0  0.65777  0.63538  0.14533  1.0000
  C   C551      1.0  0.65255  0.61083  0.00785  1.0000
  H   H936      1.0  0.63947  0.90618  0.28526  1.0000
  C   C552      1.0  0.35962  0.96653  0.25648  1.0000
  C   C553      1.0  0.66344  0.82471  0.36470  1.0000
  C   C554      1.0  0.66005  0.91993  0.28596  1.0000
  S   S166      1.0  0.41013  0.99196  0.18113  1.0000
  Fe  Fe84      1.0  0.33871  0.68734  0.35589  1.0000
  H   H937      1.0  0.65996  0.81889  0.34252  1.0000
  H   H938      1.0  0.66431  0.85045  0.27122  1.0000
  H   H939      1.0  0.66824  0.89397  0.26501  1.0000
  H   H940      1.0  0.66396  0.93168  0.26654  1.0000
  H   H941      1.0  0.66523  0.93321  0.30442  1.0000
  H   H942      1.0  0.44088  0.00066  0.06833  1.0000
  H   H943      1.0  0.33905  0.00018  0.28123  1.0000
  S   S167      1.0  0.36968  0.98489  0.85702  1.0000
  S   S168      1.0  0.41427  0.96928  0.85593  1.0000
  H   H944      1.0  0.41290  0.91969  0.94674  1.0000
  H   H945      1.0  0.57610  0.88158  0.68024  1.0000
  Fe  Fe85      1.0  0.38586  0.96927  0.82488  1.0000
  H   H946      1.0  0.60753  0.90716  0.71724  1.0000
  H   H947      1.0  0.63831  0.82008  0.58568  1.0000
  H   H948      1.0  0.67027  0.98377  0.94070  1.0000
  Fe  Fe86      1.0  0.62975  0.97826  0.84206  1.0000
  H   H949      1.0  0.65056  0.54756  0.79906  1.0000
  S   S169      1.0  0.64402  0.95235  0.82467  1.0000
  S   S170      1.0  0.36462  0.93844  0.79023  1.0000
  H   H950      1.0  0.47916  0.54054  0.89969  1.0000
  S   S171      1.0  0.60345  0.97209  0.87828  1.0000
  Fe  Fe87      1.0  0.63366  0.63723  0.84292  1.0000
  S   S172      1.0  0.63179  0.60527  0.81586  1.0000
  S   S173      1.0  0.64628  0.67789  0.82838  1.0000
  Fe  Fe88      1.0  0.61984  0.60567  0.89765  1.0000
  S   S174      1.0  0.61659  0.57118  0.87488  1.0000
  S   S175      1.0  0.60581  0.60667  0.94232  1.0000
  Fe  Fe89      1.0  0.65222  0.59880  0.85206  1.0000
  Fe  Fe90      1.0  0.59651  0.57971  0.84019  1.0000
  S   S176      1.0  0.56199  0.54897  0.81637  1.0000
  H   H951      1.0  0.34297  0.79207  0.79418  1.0000
  S   S177      1.0  0.59692  0.61214  0.86422  1.0000
  C   C555      1.0  0.42856  0.51257  0.84893  1.0000
  Fe  Fe91      1.0  0.35734  0.67671  0.61095  1.0000
  S   S178      1.0  0.36500  0.70392  0.64803  1.0000
  H   H952      1.0  0.63115  0.65950  0.96014  1.0000
  Fe  Fe92      1.0  0.38365  0.68410  0.66914  1.0000
  S   S179      1.0  0.41781  0.70419  0.69945  1.0000
  S   S180      1.0  0.37882  0.65929  0.63090  1.0000
  Fe  Fe93      1.0  0.62517  0.80356  0.70900  1.0000
  S   S181      1.0  0.62439  0.79799  0.75688  1.0000
  H   H953      1.0  0.63427  0.89829  0.86423  1.0000
  Fe  Fe94      1.0  0.56766  0.77831  0.70429  1.0000
  S   S182      1.0  0.56309  0.77090  0.75094  1.0000
  S   S183      1.0  0.53536  0.76733  0.67232  1.0000
  Fe  Fe95      1.0  0.59569  0.81117  0.75687  1.0000
  S   S184      1.0  0.58742  0.83375  0.79037  1.0000
  Fe  Fe96      1.0  0.59197  0.75832  0.74728  1.0000
  S   S185      1.0  0.58004  0.71896  0.76610  1.0000
  S   S186      1.0  0.59867  0.81933  0.70992  1.0000
  S   S187      1.0  0.59445  0.76315  0.69965  1.0000
  C   C556      1.0  0.45028  0.72214  0.69111  1.0000
  C   C557      1.0  0.46810  0.73273  0.71356  1.0000
  C   C558      1.0  0.49416  0.74652  0.70817  1.0000
  C   C559      1.0  0.50271  0.75018  0.68017  1.0000
  C   C560      1.0  0.48489  0.73996  0.65767  1.0000
  C   C561      1.0  0.45880  0.72585  0.66308  1.0000
  H   H954      1.0  0.46167  0.73000  0.73530  1.0000
  H   H955      1.0  0.50754  0.75421  0.72571  1.0000
  H   H956      1.0  0.49128  0.74272  0.63591  1.0000
  H   H957      1.0  0.44528  0.71784  0.64560  1.0000
  H   H958      1.0  0.59096  0.67317  0.97760  1.0000
  C   C562      1.0  0.40011  0.98614  0.96647  1.0000
  C   C563      1.0  0.64739  0.93151  0.94583  1.0000
  C   C564      1.0  0.59895  0.70801  0.78320  1.0000
  C   C565      1.0  0.62479  0.72405  0.78854  1.0000
  C   C566      1.0  0.63894  0.71450  0.80234  1.0000
  C   C567      1.0  0.62754  0.68881  0.81081  1.0000
  C   C568      1.0  0.60169  0.67275  0.80548  1.0000
  C   C569      1.0  0.58751  0.68234  0.79183  1.0000
  H   H959      1.0  0.63387  0.74383  0.78209  1.0000
  N   N39       1.0  0.64955  0.93294  0.91390  1.0000
  H   H960      1.0  0.59264  0.65296  0.81183  1.0000
  H   H961      1.0  0.56755  0.66975  0.78786  1.0000
  C   C570      1.0  0.66930  0.95928  0.90457  1.0000
  C   C571      1.0  0.53930  0.52262  0.83562  1.0000
  H   H962      1.0  0.46265  0.98486  0.88560  1.0000
  H   H963      1.0  0.55779  0.53663  0.87639  1.0000
  H   H964      1.0  0.59256  0.70554  0.93165  1.0000
  C   C572      1.0  0.62345  0.97544  0.00243  1.0000
  C   C573      1.0  0.61898  0.60743  0.97655  1.0000
  C   C574      1.0  0.64276  0.60975  0.98018  1.0000
  H   H965      1.0  0.63951  0.69064  0.97180  1.0000
  H   H966      1.0  0.63389  0.50717  0.75370  1.0000
  C   C575      1.0  0.62680  0.92003  0.81236  1.0000
  C   C576      1.0  0.60184  0.90350  0.82021  1.0000
  C   C577      1.0  0.58998  0.87723  0.81289  1.0000
  C   C578      1.0  0.60268  0.86728  0.79714  1.0000
  C   C579      1.0  0.62731  0.88398  0.78843  1.0000
  C   C580      1.0  0.63937  0.91012  0.79631  1.0000
  H   H967      1.0  0.59195  0.91078  0.83263  1.0000
  H   H968      1.0  0.57093  0.86448  0.81977  1.0000
  H   H969      1.0  0.63737  0.87662  0.77644  1.0000
  H   H970      1.0  0.65873  0.92269  0.79028  1.0000
  C   C581      1.0  0.45097  0.93309  0.88040  1.0000
  C   C582      1.0  0.48096  0.54286  0.87628  1.0000
  H   H971      1.0  0.44464  0.54989  0.82814  1.0000
  Fe  Fe97      1.0  0.34137  0.63073  0.64974  1.0000
  H   H972      1.0  0.58205  0.66429  0.92897  1.0000
  C   C583      1.0  0.62720  0.98610  0.97502  1.0000
  H   H973      1.0  0.53400  0.87132  0.68722  1.0000
  S   S188      1.0  0.39562  0.97118  0.93238  1.0000
  H   H974      1.0  0.49031  0.95732  0.89028  1.0000
  H   H975      1.0  0.39015  0.95133  0.98883  1.0000
  S   S189      1.0  0.61212  0.99446  0.81298  1.0000
  H   H976      1.0  0.49662  0.82588  0.69254  1.0000
  H   H977      1.0  0.50001  0.83126  0.73089  1.0000
  H   H978      1.0  0.53551  0.82157  0.63782  1.0000
  H   H979      1.0  0.64197  0.68373  0.88926  1.0000
  H   H980      1.0  0.54820  0.84968  0.75263  1.0000
  C   C584      1.0  0.35320  0.67719  0.53396  1.0000
  N   N40       1.0  0.47007  0.96684  0.92119  1.0000
  H   H981      1.0  0.64874  0.72136  0.93772  1.0000
  C   C585      1.0  0.47248  0.94774  0.90246  1.0000
  C   C586      1.0  0.59247  0.66873  0.88533  1.0000
  C   C587      1.0  0.44371  0.95604  0.93222  1.0000
  H   H982      1.0  0.58702  0.64208  0.96920  1.0000
  C   C588      1.0  0.51634  0.98796  0.93899  1.0000
  H   H983      1.0  0.44145  0.91917  0.94378  1.0000
  H   H984      1.0  0.66862  0.96089  0.88101  1.0000
  H   H985      1.0  0.34188  0.74274  0.74265  1.0000
  H   H986      1.0  0.37360  0.71126  0.50913  1.0000
  H   H987      1.0  0.47421  0.93323  0.91526  1.0000
  H   H988      1.0  0.34210  0.89924  0.74719  1.0000
  C   C589      1.0  0.63003  0.70885  0.92736  1.0000
  H   H989      1.0  0.48430  0.95622  0.95787  1.0000
  C   C590      1.0  0.43930  0.52987  0.82257  1.0000
  H   H990      1.0  0.42988  0.95274  0.91476  1.0000
  C   C591      1.0  0.65455  0.51670  0.84068  1.0000
  H   H991      1.0  0.44091  0.50794  0.90451  1.0000
  H   H992      1.0  0.55660  0.82275  0.68317  1.0000
  H   H993      1.0  0.65361  0.61072  0.96173  1.0000
  H   H994      1.0  0.51283  0.80379  0.73415  1.0000
  H   H995      1.0  0.66831  0.53454  0.83025  1.0000
  H   H996      1.0  0.63994  0.94377  0.95403  1.0000
  C   C592      1.0  0.63654  0.50150  0.77535  1.0000
  H   H997      1.0  0.66205  0.51763  0.86258  1.0000
  C   C593      1.0  0.60049  0.66173  0.97715  1.0000
  H   H998      1.0  0.52111  0.97697  0.92371  1.0000
  C   C594      1.0  0.64149  0.67748  0.91155  1.0000
  C   C595      1.0  0.65383  0.82649  0.60082  1.0000
  C   C596      1.0  0.51852  0.50250  0.82119  1.0000
  H   H999      1.0  0.51646  0.50346  0.79839  1.0000
  H   H1000     1.0  0.50149  0.55485  0.87220  1.0000
  H   H1001     1.0  0.57255  0.65509  0.87910  1.0000
  H   H1002     1.0  0.63258  0.55617  0.82015  1.0000
  C   C597      1.0  0.52867  0.98870  0.84163  1.0000
  H   H1003     1.0  0.63557  0.65680  0.91029  1.0000
  S   S190      1.0  0.36373  0.69429  0.56682  1.0000
  H   H1004     1.0  0.66184  0.89548  0.86611  1.0000
  C   C598      1.0  0.43367  0.93151  0.95003  1.0000
  H   H1005     1.0  0.33867  0.78034  0.72882  1.0000
  C   C599      1.0  0.65433  0.90837  0.87135  1.0000
  H   H1006     1.0  0.47999  0.50709  0.87112  1.0000
  C   C600      1.0  0.62823  0.51393  0.84268  1.0000
  H   H1007     1.0  0.35473  0.76733  0.76943  1.0000
  H   H1008     1.0  0.60421  0.66532  0.87012  1.0000
  H   H1009     1.0  0.62537  0.93050  0.87815  1.0000
  H   H1010     1.0  0.59542  0.68825  0.88250  1.0000
  H   H1011     1.0  0.61883  0.94072  0.91010  1.0000
  H   H1012     1.0  0.65502  0.51621  0.78416  1.0000
  C   C601      1.0  0.59695  0.66360  0.91644  1.0000
  H   H1013     1.0  0.63322  0.91178  0.95233  1.0000
  N   N41       1.0  0.61603  0.51523  0.81512  1.0000
  C   C602      1.0  0.66857  0.82941  0.64981  1.0000
  H   H1014     1.0  0.47921  0.52118  0.83911  1.0000
  H   H1015     1.0  0.44802  0.94612  0.86651  1.0000
  H   H1016     1.0  0.49498  0.99755  0.89352  1.0000
  C   C603      1.0  0.54193  0.52121  0.86503  1.0000
  H   H1017     1.0  0.53374  0.80570  0.76218  1.0000
  C   C604      1.0  0.50388  0.84052  0.70986  1.0000
  H   H1018     1.0  0.60328  0.54957  0.78171  1.0000
  H   H1019     1.0  0.52428  0.81272  0.68642  1.0000
  H   H1020     1.0  0.35049  0.81270  0.76483  1.0000
  C   C605      1.0  0.53275  0.81019  0.73946  1.0000
  H   H1021     1.0  0.53690  0.87410  0.72482  1.0000
  H   H1022     1.0  0.58951  0.88574  0.74452  1.0000
  H   H1023     1.0  0.66148  0.75891  0.60499  1.0000
  H   H1024     1.0  0.58817  0.89422  0.88906  1.0000
  C   C606      1.0  0.47093  0.51693  0.86056  1.0000
  H   H1025     1.0  0.59220  0.90033  0.92708  1.0000
  H   H1026     1.0  0.59255  0.64332  0.91736  1.0000
  Fe  Fe98      1.0  0.58779  0.99120  0.85010  1.0000
  H   H1027     1.0  0.62942  0.81125  0.63718  1.0000
  H   H1028     1.0  0.58678  0.60444  0.99835  1.0000
  C   C607      1.0  0.63080  0.54199  0.80368  1.0000
  H   H1029     1.0  0.57767  0.90373  0.72558  1.0000
  C   C608      1.0  0.57600  0.87176  0.70023  1.0000
  C   C609      1.0  0.50275  0.97508  0.83484  1.0000
  C   C610      1.0  0.61176  0.71605  0.94133  1.0000
  S   S191      1.0  0.34752  0.65439  0.68927  1.0000
  C   C611      1.0  0.53206  0.86026  0.70680  1.0000
  S   S192      1.0  0.54498  0.97166  0.84605  1.0000
  C   C612      1.0  0.54299  0.82992  0.68297  1.0000
  N   N42       1.0  0.54988  0.84984  0.70624  1.0000
  C   C613      1.0  0.55092  0.83899  0.73487  1.0000
  H   H1030     1.0  0.64654  0.89538  0.91466  1.0000
  H   H1031     1.0  0.52862  0.84549  0.64980  1.0000
  H   H1032     1.0  0.47184  0.55368  0.86884  1.0000
  C   C614      1.0  0.64872  0.82145  0.63002  1.0000
  H   H1033     1.0  0.59135  0.52613  0.83619  1.0000
  C   C615      1.0  0.60186  0.90021  0.90722  1.0000
  H   H1034     1.0  0.64944  0.98101  0.91156  1.0000
  H   H1035     1.0  0.58937  0.86451  0.69688  1.0000
  H   H1036     1.0  0.56996  0.84140  0.73875  1.0000
  C   C616      1.0  0.54213  0.83846  0.65232  1.0000
  H   H1037     1.0  0.61883  0.73674  0.93800  1.0000
  S   S193      1.0  0.65699  0.63278  0.87771  1.0000
  H   H1038     1.0  0.56109  0.85292  0.64491  1.0000
  H   H1039     1.0  0.63226  0.71505  0.90477  1.0000
  H   H1040     1.0  0.53877  0.79869  0.72674  1.0000
  C   C617      1.0  0.58796  0.89305  0.72344  1.0000
  H   H1041     1.0  0.49286  0.85057  0.70863  1.0000
  H   H1042     1.0  0.57988  0.51111  0.80242  1.0000
  H   H1043     1.0  0.60707  0.88517  0.90877  1.0000
  H   H1044     1.0  0.44244  0.97017  0.94642  1.0000
  H   H1045     1.0  0.49348  0.95462  0.83116  1.0000
  C   C618      1.0  0.47629  0.99002  0.90364  1.0000
  C   C619      1.0  0.60522  0.60629  0.00086  1.0000
  H   H1046     1.0  0.42728  0.52468  0.86614  1.0000
  N   N43       1.0  0.50663  0.68160  0.71825  1.0000
  C   C620      1.0  0.50667  0.68363  0.75037  1.0000
  C   C621      1.0  0.50912  0.65854  0.71119  1.0000
  C   C622      1.0  0.48142  0.67713  0.70735  1.0000
  C   C623      1.0  0.52803  0.70618  0.70695  1.0000
  C   C624      1.0  0.50152  0.70433  0.76274  1.0000
  C   C625      1.0  0.53322  0.65940  0.72297  1.0000
  C   C626      1.0  0.47695  0.67448  0.67490  1.0000
  C   C627      1.0  0.53807  0.70498  0.67715  1.0000
  H   H1047     1.0  0.49251  0.66503  0.75965  1.0000
  H   H1048     1.0  0.52525  0.68799  0.75962  1.0000
  H   H1049     1.0  0.50845  0.65498  0.68798  1.0000
  H   H1050     1.0  0.49267  0.64085  0.71945  1.0000
  H   H1051     1.0  0.46574  0.65975  0.71715  1.0000
  H   H1052     1.0  0.47850  0.69321  0.71354  1.0000
  H   H1053     1.0  0.52271  0.72127  0.70647  1.0000
  H   H1054     1.0  0.54464  0.71372  0.72172  1.0000
  H   H1055     1.0  0.50606  0.70664  0.78592  1.0000
  H   H1056     1.0  0.51350  0.72321  0.75306  1.0000
  H   H1057     1.0  0.48133  0.69876  0.76048  1.0000
  H   H1058     1.0  0.53530  0.64392  0.71275  1.0000
  H   H1059     1.0  0.55058  0.67777  0.71868  1.0000
  H   H1060     1.0  0.53205  0.65598  0.74624  1.0000
  H   H1061     1.0  0.45734  0.67024  0.67032  1.0000
  H   H1062     1.0  0.47864  0.65855  0.66547  1.0000
  H   H1063     1.0  0.48946  0.69277  0.66414  1.0000
  H   H1064     1.0  0.54299  0.72289  0.66571  1.0000
  H   H1065     1.0  0.52482  0.68914  0.66302  1.0000
  H   H1066     1.0  0.55605  0.70473  0.67919  1.0000
  H   H1067     1.0  0.52761  0.99064  0.95873  1.0000
  C   C628      1.0  0.61973  0.54729  0.77661  1.0000
  C   C629      1.0  0.66923  0.69198  0.92227  1.0000
  N   N44       1.0  0.62293  0.68112  0.92900  1.0000
  H   H1068     1.0  0.43776  0.93638  0.97306  1.0000
  H   H1069     1.0  0.43295  0.91965  0.89069  1.0000
  C   C630      1.0  0.48801  0.97375  0.94623  1.0000
  H   H1070     1.0  0.60538  0.65974  0.99950  1.0000
  H   H1071     1.0  0.45600  0.92147  0.86635  1.0000
  C   C631      1.0  0.65714  0.91400  0.90365  1.0000
  H   H1072     1.0  0.61097  0.71317  0.96462  1.0000
  H   H1073     1.0  0.46878  0.97705  0.82763  1.0000
  C   C632      1.0  0.62441  0.92712  0.90145  1.0000
  C   C633      1.0  0.59001  0.51060  0.82202  1.0000
  H   H1074     1.0  0.63419  0.56572  0.76746  1.0000
  C   C634      1.0  0.48872  0.98771  0.83289  1.0000
  H   H1075     1.0  0.61416  0.53225  0.75999  1.0000
  H   H1076     1.0  0.62977  0.52890  0.85800  1.0000
  H   H1077     1.0  0.62384  0.97425  0.95630  1.0000
  C   C635      1.0  0.39604  0.97141  0.99107  1.0000
  H   H1078     1.0  0.65891  0.72710  0.80635  1.0000
  H   H1079     1.0  0.45579  0.53018  0.81284  1.0000
  Fe  Fe99      1.0  0.39992  0.98736  0.88741  1.0000
  H   H1080     1.0  0.34836  0.72992  0.60775  1.0000
  H   H1081     1.0  0.66033  0.78016  0.56186  1.0000
  H   H1082     1.0  0.66517  0.92599  0.85884  1.0000
  C   C636      1.0  0.62479  0.67388  0.95944  1.0000
  C   C637      1.0  0.36088  0.69080  0.50839  1.0000
  C   C638      1.0  0.66748  0.98197  0.91727  1.0000
  C   C639      1.0  0.33787  0.90701  0.79102  1.0000
  H   H1083     1.0  0.48488  0.98554  0.96217  1.0000
  H   H1084     1.0  0.34447  0.83132  0.80898  1.0000
  H   H1085     1.0  0.61733  0.95534  0.00459  1.0000
  H   H1086     1.0  0.67079  0.75974  0.54549  1.0000
  H   H1087     1.0  0.42442  0.52345  0.80567  1.0000
  H   H1088     1.0  0.66819  0.93769  0.98564  1.0000
  S   S194      1.0  0.66324  0.82239  0.68663  1.0000
  H   H1089     1.0  0.66030  0.76969  0.65407  1.0000
  Fe  Fe100     1.0  0.88150  0.15019  0.47838  1.0000
  S   S195      1.0  0.88449  0.17792  0.44363  1.0000
  S   S196      1.0  0.89139  0.11991  0.46808  1.0000
  H   H1090     1.0  0.73538  0.09123  0.06226  1.0000
  H   H1091     1.0  0.96190  0.18764  0.47051  1.0000
  H   H1092     1.0  0.72223  0.05438  0.25369  1.0000
  H   H1093     1.0  0.71139  0.21558  0.38299  1.0000
  S   S197      1.0  0.94353  0.33774  0.16274  1.0000
  Fe  Fe101     1.0  0.79798  0.23972  0.29574  1.0000
  S   S198      1.0  0.80477  0.23477  0.24964  1.0000
  S   S199      1.0  0.79365  0.27317  0.31226  1.0000
  Fe  Fe102     1.0  0.80669  0.19565  0.31489  1.0000
  S   S200      1.0  0.81355  0.18732  0.27004  1.0000
  S   S201      1.0  0.80249  0.16910  0.35160  1.0000
  Fe  Fe103     1.0  0.83729  0.23043  0.26582  1.0000
  S   S202      1.0  0.87895  0.25076  0.25300  1.0000
  Fe  Fe104     1.0  0.78052  0.19210  0.25724  1.0000
  S   S203      1.0  0.74467  0.16562  0.23102  1.0000
  S   S204      1.0  0.83204  0.23806  0.31166  1.0000
  S   S205      1.0  0.77210  0.19782  0.30251  1.0000
  Fe  Fe105     1.0  0.68644  0.30837  0.34348  1.0000
  S   S206      1.0  0.71815  0.34437  0.36223  1.0000
  S   S207      1.0  0.69134  0.27611  0.32487  1.0000
  Fe  Fe106     1.0  0.70129  0.36496  0.33906  1.0000
  S   S208      1.0  0.72808  0.39822  0.31116  1.0000
  Fe  Fe107     1.0  0.69139  0.33902  0.39747  1.0000
  N   N45       1.0  0.71099  0.05066  0.07134  1.0000
  H   H1094     1.0  0.76871  0.36695  0.22486  1.0000
  H   H1095     1.0  0.93331  0.17753  0.45173  1.0000
  C   C640      1.0  0.73383  0.43013  0.31311  1.0000
  C   C641      1.0  0.71990  0.43712  0.33071  1.0000
  C   C642      1.0  0.72490  0.46262  0.33130  1.0000
  H   H1096     1.0  0.70042  0.09874  0.28933  1.0000
  C   C643      1.0  0.75792  0.47448  0.29696  1.0000
  C   C644      1.0  0.75277  0.44893  0.29617  1.0000
  H   H1097     1.0  0.70522  0.42287  0.34378  1.0000
  H   H1098     1.0  0.71398  0.46780  0.34495  1.0000
  H   H1099     1.0  0.72305  0.07969  0.01825  1.0000
  H   H1100     1.0  0.76364  0.44375  0.28245  1.0000
  C   C645      1.0  0.76490  0.27336  0.31585  1.0000
  C   C646      1.0  0.76523  0.29432  0.32962  1.0000
  C   C647      1.0  0.74292  0.29551  0.33247  1.0000
  C   C648      1.0  0.72006  0.27582  0.32134  1.0000
  C   C649      1.0  0.71972  0.25484  0.30767  1.0000
  C   C650      1.0  0.74200  0.25358  0.30493  1.0000
  H   H1101     1.0  0.78284  0.30965  0.33828  1.0000
  H   H1102     1.0  0.74341  0.31157  0.34337  1.0000
  H   H1103     1.0  0.70209  0.23940  0.29915  1.0000
  H   H1104     1.0  0.74145  0.23734  0.29428  1.0000
  H   H1105     1.0  0.94157  0.14202  0.40163  1.0000
  C   C651      1.0  0.95332  0.19330  0.45310  1.0000
  H   H1106     1.0  0.93094  0.17296  0.40254  1.0000
  H   H1107     1.0  0.98423  0.49241  0.04704  1.0000
  C   C652      1.0  0.80202  0.00183  0.48808  1.0000
  C   C653      1.0  0.89669  0.27415  0.22701  1.0000
  C   C654      1.0  0.92302  0.28950  0.23085  1.0000
  C   C655      1.0  0.93774  0.30901  0.21148  1.0000
  C   C656      1.0  0.92628  0.31328  0.18785  1.0000
  C   C657      1.0  0.89998  0.29778  0.18391  1.0000
  C   C658      1.0  0.88528  0.27833  0.20329  1.0000
  H   H1108     1.0  0.93209  0.28639  0.24905  1.0000
  H   H1109     1.0  0.95791  0.32069  0.21479  1.0000
  H   H1110     1.0  0.89093  0.30077  0.16560  1.0000
  H   H1111     1.0  0.86517  0.26638  0.19970  1.0000
  C   C659      1.0  0.71031  0.08719  0.18413  1.0000
  C   C660      1.0  0.73661  0.10205  0.18868  1.0000
  C   C661      1.0  0.74750  0.12599  0.20303  1.0000
  C   C662      1.0  0.73220  0.13550  0.21284  1.0000
  C   C663      1.0  0.70595  0.12072  0.20806  1.0000
  C   C664      1.0  0.69504  0.09669  0.19396  1.0000
  H   H1112     1.0  0.74866  0.09500  0.18107  1.0000
  H   H1113     1.0  0.76774  0.13727  0.20609  1.0000
  H   H1114     1.0  0.69391  0.12790  0.21538  1.0000
  H   H1115     1.0  0.68889  0.06309  0.02243  1.0000
  C   C665      1.0  0.86144  0.17478  0.41798  1.0000
  C   C666      1.0  0.83681  0.15394  0.41751  1.0000
  C   C667      1.0  0.81908  0.15254  0.39704  1.0000
  C   C668      1.0  0.82575  0.17182  0.37669  1.0000
  C   C669      1.0  0.85044  0.19255  0.37700  1.0000
  C   C670      1.0  0.86812  0.19403  0.39759  1.0000
  H   H1116     1.0  0.83137  0.13902  0.43306  1.0000
  H   H1117     1.0  0.80004  0.13648  0.39712  1.0000
  H   H1118     1.0  0.85585  0.20754  0.36154  1.0000
  H   H1119     1.0  0.88706  0.21030  0.39779  1.0000
  H   H1120     1.0  0.75864  0.10585  0.10600  1.0000
  C   C671      1.0  0.71088  0.25022  0.39438  1.0000
  H   H1121     1.0  0.98562  0.17703  0.40574  1.0000
  N   N46       1.0  0.96652  0.19533  0.42544  1.0000
  N   N47       1.0  0.86505  0.32373  0.27239  1.0000
  C   C672      1.0  0.85905  0.32761  0.30254  1.0000
  C   C673      1.0  0.87459  0.30508  0.27371  1.0000
  C   C674      1.0  0.84071  0.31190  0.25525  1.0000
  C   C675      1.0  0.88421  0.34934  0.26058  1.0000
  C   C676      1.0  0.84547  0.34318  0.30605  1.0000
  C   C677      1.0  0.89774  0.31292  0.29339  1.0000
  C   C678      1.0  0.84185  0.30482  0.22400  1.0000
  C   C679      1.0  0.90080  0.34913  0.23595  1.0000
  H   H1122     1.0  0.84718  0.30881  0.31296  1.0000
  H   H1123     1.0  0.87657  0.33766  0.31587  1.0000
  H   H1124     1.0  0.87962  0.30133  0.25254  1.0000
  H   H1125     1.0  0.85939  0.28601  0.28072  1.0000
  H   H1126     1.0  0.82622  0.29410  0.26558  1.0000
  H   H1127     1.0  0.83280  0.32493  0.25441  1.0000
  H   H1128     1.0  0.87478  0.36003  0.25322  1.0000
  H   H1129     1.0  0.89779  0.36140  0.27775  1.0000
  H   H1130     1.0  0.85495  0.36148  0.29443  1.0000
  H   H1131     1.0  0.82533  0.33178  0.29931  1.0000
  H   H1132     1.0  0.84553  0.34784  0.32900  1.0000
  H   H1133     1.0  0.90556  0.30014  0.28896  1.0000
  H   H1134     1.0  0.91297  0.33283  0.28990  1.0000
  H   H1135     1.0  0.89234  0.31033  0.31612  1.0000
  H   H1136     1.0  0.85296  0.32204  0.21097  1.0000
  H   H1137     1.0  0.82239  0.29494  0.21480  1.0000
  H   H1138     1.0  0.84883  0.29119  0.22179  1.0000
  H   H1139     1.0  0.90518  0.36535  0.22160  1.0000
  H   H1140     1.0  0.89230  0.33177  0.22230  1.0000
  H   H1141     1.0  0.91942  0.35276  0.24416  1.0000
  S   S209      1.0  0.70828  0.34500  0.44212  1.0000
  H   H1142     1.0  0.69812  0.23999  0.45261  1.0000
  C   C680      1.0  0.71039  0.25992  0.44521  1.0000
  H   H1143     1.0  0.73181  0.25976  0.39424  1.0000
  H   H1144     1.0  0.77263  0.48874  0.28392  1.0000
  C   C681      1.0  0.94919  0.19117  0.40034  1.0000
  H   H1145     1.0  0.74204  0.30852  0.22388  1.0000
  Fe  Fe108     1.0  0.86231  0.09539  0.50014  1.0000
  H   H1146     1.0  0.72834  0.29320  0.25758  1.0000
  S   S210      1.0  0.95912  0.14245  0.49832  1.0000
  S   S211      1.0  0.98919  0.40284  0.13283  1.0000
  C   C682      1.0  0.70160  0.22150  0.39849  1.0000
  H   H1147     1.0  0.71500  0.03480  0.11124  1.0000
  C   C683      1.0  0.68599  0.07516  0.07653  1.0000
  H   H1148     1.0  0.93417  0.21211  0.47173  1.0000
  H   H1149     1.0  0.72634  0.08825  0.11588  1.0000
  C   C684      1.0  0.97344  0.17452  0.42432  1.0000
  C   C685      1.0  0.74605  0.30586  0.24624  1.0000
  H   H1150     1.0  0.72282  0.34111  0.49900  1.0000
  H   H1151     1.0  0.72976  0.26254  0.44462  1.0000
  H   H1152     1.0  0.74653  0.07450  0.11977  1.0000
  H   H1153     1.0  0.70561  0.31138  0.24105  1.0000
  H   H1154     1.0  0.70299  0.48494  0.27943  1.0000
  H   H1155     1.0  0.98974  0.48967  0.11447  1.0000
  N   N48       1.0  0.70215  0.26290  0.41577  1.0000
  H   H1156     1.0  0.70854  0.29145  0.38430  1.0000
  C   C686      1.0  0.95333  0.21758  0.46417  1.0000
  H   H1157     1.0  0.72234  0.03894  0.03325  1.0000
  H   H1158     1.0  0.70446  0.29146  0.46257  1.0000
  H   H1159     1.0  0.73625  0.38017  0.21177  1.0000
  N   N49       1.0  0.74844  0.10535  0.30190  1.0000
  C   C687      1.0  0.74497  0.10744  0.33345  1.0000
  C   C688      1.0  0.74195  0.12350  0.28723  1.0000
  C   C689      1.0  0.77593  0.11404  0.29727  1.0000
  C   C690      1.0  0.73173  0.07782  0.29240  1.0000
  C   C691      1.0  0.75465  0.09387  0.35336  1.0000
  C   C692      1.0  0.71521  0.11901  0.29257  1.0000
  C   C693      1.0  0.78429  0.11495  0.26632  1.0000
  H   H1160     1.0  0.69966  0.08893  0.06151  1.0000
  H   H1161     1.0  0.75434  0.12786  0.34051  1.0000
  H   H1162     1.0  0.72467  0.09948  0.33841  1.0000
  H   H1163     1.0  0.74394  0.12325  0.26399  1.0000
  H   H1164     1.0  0.75560  0.14361  0.29377  1.0000
  H   H1165     1.0  0.78804  0.13353  0.30661  1.0000
  H   H1166     1.0  0.78154  0.10138  0.30835  1.0000
  H   H1167     1.0  0.74073  0.06627  0.29795  1.0000
  H   H1168     1.0  0.71364  0.06915  0.30415  1.0000
  H   H1169     1.0  0.74774  0.09358  0.37522  1.0000
  H   H1170     1.0  0.74783  0.07379  0.34662  1.0000
  H   H1171     1.0  0.77559  0.10459  0.35502  1.0000
  Fe  Fe109     1.0  0.98502  0.36801  0.15552  1.0000
  H   H1172     1.0  0.00277  0.45983  0.13388  1.0000
  H   H1173     1.0  0.67805  0.45591  0.26484  1.0000
  H   H1174     1.0  0.80513  0.12338  0.26629  1.0000
  H   H1175     1.0  0.78021  0.12740  0.25275  1.0000
  H   H1176     1.0  0.77620  0.09549  0.25683  1.0000
  H   H1177     1.0  0.95813  0.23279  0.44853  1.0000
  C   C694      1.0  0.94168  0.21168  0.39526  1.0000
  C   C695      1.0  0.69368  0.47515  0.25912  1.0000
  N   N50       1.0  0.75142  0.34906  0.26454  1.0000
  C   C696      1.0  0.76999  0.37234  0.28178  1.0000
  C   C697      1.0  0.74993  0.35827  0.23518  1.0000
  C   C698      1.0  0.76207  0.33131  0.26254  1.0000
  C   C699      1.0  0.72634  0.33638  0.27935  1.0000
  C   C700      1.0  0.77656  0.36736  0.31200  1.0000
  C   C701      1.0  0.74125  0.37831  0.23408  1.0000
  S   S212      1.0  0.67717  0.36271  0.37596  1.0000
  C   C702      1.0  0.70250  0.31940  0.26075  1.0000
  H   H1178     1.0  0.78813  0.38334  0.27031  1.0000
  H   H1179     1.0  0.76275  0.38582  0.28476  1.0000
  C   C703      1.0  0.70703  0.04250  0.04037  1.0000
  C   C704      1.0  0.73518  0.07589  0.07515  1.0000
  H   H1180     1.0  0.78106  0.34127  0.25272  1.0000
  H   H1181     1.0  0.76488  0.32554  0.28402  1.0000
  H   H1182     1.0  0.72660  0.32455  0.29723  1.0000
  H   H1183     1.0  0.72299  0.35116  0.28938  1.0000
  H   H1184     1.0  0.78672  0.38585  0.32394  1.0000
  H   H1185     1.0  0.75952  0.35477  0.32421  1.0000
  H   H1186     1.0  0.78936  0.35930  0.31151  1.0000
  S   S213      1.0  0.69761  0.05704  0.16607  1.0000
  H   H1187     1.0  0.67861  0.37860  0.46420  1.0000
  H   H1188     1.0  0.68769  0.04926  0.10625  1.0000
  C   C705      1.0  0.82417  0.02327  0.49876  1.0000
  H   H1189     1.0  0.68748  0.08554  0.09677  1.0000
  H   H1190     1.0  0.71117  0.13057  0.27732  1.0000
  H   H1191     1.0  0.68906  0.30270  0.27338  1.0000
  H   H1192     1.0  0.70501  0.25208  0.37242  1.0000
  H   H1193     1.0  0.69233  0.32984  0.25562  1.0000
  H   H1194     1.0  0.95771  0.18922  0.38028  1.0000
  H   H1195     1.0  0.68899  0.02409  0.03720  1.0000
  H   H1196     1.0  0.95803  0.23081  0.39107  1.0000
  H   H1197     1.0  0.75247  0.30166  0.39497  1.0000
  H   H1198     1.0  0.73009  0.28955  0.47837  1.0000
  H   H1199     1.0  0.93759  0.14300  0.43975  1.0000
  C   C706      1.0  0.69971  0.39313  0.50381  1.0000
  C   C707      1.0  0.69000  0.33024  0.47235  1.0000
  H   H1200     1.0  0.95861  0.13344  0.42603  1.0000
  H   H1201     1.0  0.98769  0.23696  0.42177  1.0000
  C   C708      1.0  0.68829  0.05118  0.08269  1.0000
  H   H1202     1.0  0.75669  0.29538  0.24558  1.0000
  C   C709      1.0  0.74400  0.48146  0.31458  1.0000
  H   H1203     1.0  0.70619  0.21735  0.41997  1.0000
  C   C710      1.0  0.71075  0.27801  0.46910  1.0000
  C   C711      1.0  0.74236  0.30718  0.41034  1.0000
  C   C712      1.0  0.99079  0.22044  0.42249  1.0000
  C   C713      1.0  0.95127  0.14678  0.42274  1.0000
  C   C714      1.0  0.67489  0.38209  0.48645  1.0000
  H   H1204     1.0  0.75663  0.39751  0.24106  1.0000
  H   H1205     1.0  0.70525  0.37827  0.50217  1.0000
  H   H1206     1.0  0.74785  0.32733  0.40575  1.0000
  H   H1207     1.0  0.78940  0.00469  0.47428  1.0000
  C   C715      1.0  0.67378  0.24998  0.41309  1.0000
  H   H1208     1.0  0.75143  0.07431  0.06711  1.0000
  H   H1209     1.0  0.69845  0.26662  0.48680  1.0000
  H   H1210     1.0  0.74913  0.30706  0.43224  1.0000
  H   H1211     1.0  0.71432  0.40995  0.49210  1.0000
  H   H1212     1.0  0.00320  0.22513  0.46761  1.0000
  H   H1213     1.0  0.73728  0.08737  0.24579  1.0000
  C   C716      1.0  0.70552  0.06085  0.01885  1.0000
  C   C717      1.0  0.71431  0.03107  0.08787  1.0000
  H   H1214     1.0  0.70521  0.30045  0.41847  1.0000
  H   H1215     1.0  0.73731  0.34238  0.22060  1.0000
  C   C718      1.0  0.71342  0.29044  0.40698  1.0000
  C   C719      1.0  0.72395  0.07288  0.26047  1.0000
  H   H1216     1.0  0.96601  0.22571  0.48314  1.0000
  H   H1217     1.0  0.93028  0.21257  0.41290  1.0000
  H   H1218     1.0  0.73262  0.03226  0.08282  1.0000
  H   H1219     1.0  0.70708  0.47211  0.24630  1.0000
  H   H1220     1.0  0.71385  0.12563  0.31424  1.0000
  H   H1221     1.0  0.92923  0.20609  0.37600  1.0000
  C   C720      1.0  0.74174  0.08639  0.10603  1.0000
  H   H1222     1.0  0.67481  0.08561  0.19056  1.0000
  H   H1223     1.0  0.72446  0.37303  0.24724  1.0000
  S   S214      1.0  0.83004  0.05455  0.49013  1.0000
  C   C721      1.0  0.69362  0.00285  0.08329  1.0000
  C   C722      1.0  0.68267  0.48951  0.24260  1.0000
  H   H1224     1.0  0.70488  0.07044  0.25694  1.0000
  C   C723      1.0  0.70244  0.33183  0.49823  1.0000
  H   H1225     1.0  0.98473  0.17546  0.44351  1.0000
  H   H1226     1.0  0.70471  0.49689  0.19378  1.0000
  H   H1227     1.0  0.99966  0.22094  0.40171  1.0000
  H   H1228     1.0  0.68115  0.20932  0.39365  1.0000
  C   C724      1.0  0.00217  0.49533  0.13294  1.0000
  C   C725      1.0  0.99002  0.16934  0.50404  1.0000
  Fe  Fe110     1.0  0.91931  0.13656  0.50488  1.0000
  H   H1229     1.0  0.67135  0.47659  0.22464  1.0000
  H   H1230     1.0  0.72707  0.19104  0.82065  1.0000
  H   H1231     1.0  0.87613  0.26721  0.64244  1.0000
  H   H1232     1.0  0.77847  0.02091  0.53042  1.0000
  H   H1233     1.0  0.82765  0.10221  0.58907  1.0000
  H   H1234     1.0  0.79396  0.07920  0.63607  1.0000
  H   H1235     1.0  0.91170  0.30549  0.87062  1.0000
  Fe  Fe111     1.0  0.88026  0.14003  0.54253  1.0000
  S   S215      1.0  0.87578  0.14864  0.58888  1.0000
  S   S216      1.0  0.89080  0.10939  0.53617  1.0000
  H   H1236     1.0  0.91498  0.27325  0.93274  1.0000
  C   C726      1.0  0.79149  0.09516  0.54878  1.0000
  H   H1237     1.0  0.86692  0.27383  0.88339  1.0000
  Fe  Fe112     1.0  0.98140  0.37231  0.84550  1.0000
  S   S217      1.0  0.93885  0.34874  0.83524  1.0000
  Fe  Fe113     1.0  0.80103  0.19513  0.68765  1.0000
  S   S218      1.0  0.82302  0.19218  0.72454  1.0000
  S   S219      1.0  0.80162  0.18315  0.64153  1.0000
  Fe  Fe114     1.0  0.78087  0.22376  0.72347  1.0000
  S   S220      1.0  0.80186  0.22292  0.76273  1.0000
  S   S221      1.0  0.75592  0.24131  0.73075  1.0000
  Fe  Fe115     1.0  0.83468  0.23340  0.73420  1.0000
  S   S222      1.0  0.87648  0.26382  0.73915  1.0000
  Fe  Fe116     1.0  0.78816  0.18188  0.75006  1.0000
  S   S223      1.0  0.77394  0.15300  0.78599  1.0000
  S   S224      1.0  0.81453  0.23692  0.69562  1.0000
  S   S225      1.0  0.76521  0.18208  0.71251  1.0000
  Fe  Fe117     1.0  0.69335  0.36382  0.63397  1.0000
  H   H1238     1.0  0.94923  0.27866  0.90410  1.0000
  S   S226      1.0  0.70692  0.40618  0.62862  1.0000
  H   H1239     1.0  0.67929  0.44912  0.75149  1.0000
  Fe  Fe118     1.0  0.70277  0.31869  0.64185  1.0000
  S   S227      1.0  0.73484  0.30974  0.64432  1.0000
  S   S228      1.0  0.70553  0.34296  0.60413  1.0000
  C   C727      1.0  0.72673  0.43049  0.65332  1.0000
  C   C728      1.0  0.73644  0.42507  0.67769  1.0000
  C   C729      1.0  0.75074  0.44462  0.69781  1.0000
  C   C730      1.0  0.75562  0.46975  0.69370  1.0000
  C   C731      1.0  0.74628  0.47525  0.66908  1.0000
  C   C732      1.0  0.73186  0.45567  0.64899  1.0000
  H   H1240     1.0  0.73278  0.40582  0.68117  1.0000
  H   H1241     1.0  0.75803  0.44026  0.71674  1.0000
  C   C733      1.0  0.68674  0.13823  0.72647  1.0000
  H   H1242     1.0  0.72440  0.46003  0.63023  1.0000
  H   H1243     1.0  0.92075  0.49759  0.83006  1.0000
  S   S229      1.0  0.91075  0.16794  0.51387  1.0000
  C   C734      1.0  0.74913  0.25890  0.70560  1.0000
  C   C735      1.0  0.73114  0.26608  0.71225  1.0000
  C   C736      1.0  0.72598  0.28104  0.69340  1.0000
  C   C737      1.0  0.73909  0.28930  0.66789  1.0000
  C   C738      1.0  0.75708  0.28210  0.66130  1.0000
  C   C739      1.0  0.76194  0.26679  0.67991  1.0000
  H   H1244     1.0  0.72120  0.26014  0.73213  1.0000
  H   H1245     1.0  0.71221  0.28658  0.69880  1.0000
  H   H1246     1.0  0.76731  0.28840  0.64161  1.0000
  H   H1247     1.0  0.77578  0.26136  0.67448  1.0000
  C   C740      1.0  0.92202  0.32442  0.80898  1.0000
  C   C741      1.0  0.93411  0.31997  0.78643  1.0000
  C   C742      1.0  0.91985  0.30119  0.76546  1.0000
  C   C743      1.0  0.89340  0.28634  0.76699  1.0000
  C   C744      1.0  0.88130  0.29043  0.78984  1.0000
  C   C745      1.0  0.89553  0.30954  0.81054  1.0000
  H   H1248     1.0  0.95443  0.33128  0.78487  1.0000
  H   H1249     1.0  0.92943  0.29822  0.74789  1.0000
  H   H1250     1.0  0.86099  0.27908  0.79137  1.0000
  H   H1251     1.0  0.88596  0.31285  0.82787  1.0000
  C   C746      1.0  0.92305  0.29372  0.93916  1.0000
  H   H1252     1.0  0.69687  0.37159  0.72174  1.0000
  C   C747      1.0  0.72544  0.41082  0.54696  1.0000
  H   H1253     1.0  0.90848  0.29450  0.95246  1.0000
  H   H1254     1.0  0.85670  0.09661  0.61641  1.0000
  C   C748      1.0  0.69224  0.08680  0.79555  1.0000
  C   C749      1.0  0.70126  0.09717  0.76859  1.0000
  C   C750      1.0  0.72649  0.11672  0.76509  1.0000
  C   C751      1.0  0.74296  0.12630  0.78863  1.0000
  C   C752      1.0  0.73426  0.11520  0.81538  1.0000
  C   C753      1.0  0.70903  0.09556  0.81886  1.0000
  C   C754      1.0  0.84022  0.01920  0.51668  1.0000
  H   H1255     1.0  0.73309  0.12467  0.74429  1.0000
  H   H1256     1.0  0.74690  0.12230  0.83369  1.0000
  H   H1257     1.0  0.70236  0.08783  0.83973  1.0000
  C   C755      1.0  0.85334  0.15612  0.60270  1.0000
  C   C756      1.0  0.84995  0.15538  0.63232  1.0000
  C   C757      1.0  0.83371  0.16296  0.64451  1.0000
  C   C758      1.0  0.82078  0.17151  0.62715  1.0000
  C   C759      1.0  0.82357  0.17146  0.59746  1.0000
  C   C760      1.0  0.83977  0.16383  0.58525  1.0000
  H   H1258     1.0  0.86018  0.14919  0.64597  1.0000
  H   H1259     1.0  0.83139  0.16243  0.66735  1.0000
  H   H1260     1.0  0.81350  0.17787  0.58383  1.0000
  H   H1261     1.0  0.84220  0.16450  0.56243  1.0000
  C   C761      1.0  0.67919  0.16688  0.79693  1.0000
  H   H1262     1.0  0.73885  0.42940  0.53703  1.0000
  H   H1263     1.0  0.97824  0.19376  0.52399  1.0000
  C   C762      1.0  0.69284  0.43190  0.56593  1.0000
  H   H1264     1.0  0.98542  0.48855  0.81455  1.0000
  H   H1265     1.0  0.84784  0.06604  0.60128  1.0000
  H   H1266     1.0  0.71271  0.20605  0.76568  1.0000
  H   H1267     1.0  0.89957  0.49782  0.77858  1.0000
  H   H1268     1.0  0.90649  0.27645  0.88571  1.0000
  H   H1269     1.0  0.70900  0.41383  0.73484  1.0000
  C   C763      1.0  0.68873  0.32200  0.52330  1.0000
  H   H1270     1.0  0.96901  0.32836  0.91352  1.0000
  H   H1271     1.0  0.76467  0.07289  0.62135  1.0000
  H   H1272     1.0  0.74988  0.49451  0.66574  1.0000
  H   H1273     1.0  0.68934  0.18613  0.80736  1.0000
  H   H1274     1.0  0.94207  0.34372  0.96406  1.0000
  H   H1275     1.0  0.95597  0.32951  0.88078  1.0000
  H   H1276     1.0  0.69855  0.32354  0.54314  1.0000
  H   H1277     1.0  0.93052  0.34548  0.90014  1.0000
  C   C764      1.0  0.99851  0.49488  0.83246  1.0000
  C   C765      1.0  0.92759  0.33416  0.91986  1.0000
  N   N51       1.0  0.69911  0.40028  0.53454  1.0000
  H   H1278     1.0  0.67463  0.41619  0.52569  1.0000
  H   H1279     1.0  0.68461  0.15096  0.71116  1.0000
  C   C766      1.0  0.69391  0.45086  0.73653  1.0000
  C   C767      1.0  0.67772  0.14028  0.75643  1.0000
  C   C768      1.0  0.71758  0.16571  0.78257  1.0000
  H   H1280     1.0  0.78410  0.04244  0.61163  1.0000
  H   H1281     1.0  0.68284  0.36039  0.54522  1.0000
  H   H1282     1.0  0.87785  0.30492  0.89805  1.0000
  C   C769      1.0  0.99415  0.19223  0.51668  1.0000
  H   H1283     1.0  0.82096  0.04604  0.55154  1.0000
  S   S230      1.0  0.98918  0.39191  0.88859  1.0000
  S   S231      1.0  0.69379  0.34200  0.67236  1.0000
  H   H1284     1.0  0.95313  0.28668  0.95469  1.0000
  N   N52       1.0  0.69391  0.16523  0.77232  1.0000
  H   H1285     1.0  0.68661  0.38044  0.57447  1.0000
  C   C770      1.0  0.78412  0.07777  0.61554  1.0000
  H   H1286     1.0  0.96644  0.35813  0.93748  1.0000
  C   C771      1.0  0.68117  0.37722  0.55148  1.0000
  N   N53       1.0  0.89602  0.23369  0.65953  1.0000
  C   C772      1.0  0.87079  0.23210  0.66331  1.0000
  C   C773      1.0  0.89771  0.21572  0.68047  1.0000
  C   C774      1.0  0.89704  0.22533  0.62928  1.0000
  C   C775      1.0  0.91617  0.26113  0.66502  1.0000
  C   C776      1.0  0.86362  0.24618  0.64094  1.0000
  C   C777      1.0  0.89624  0.22136  0.71224  1.0000
  C   C778      1.0  0.91310  0.21252  0.62386  1.0000
  C   C779      1.0  0.94362  0.26680  0.66539  1.0000
  H   H1287     1.0  0.85534  0.21185  0.66328  1.0000
  H   H1288     1.0  0.86977  0.24003  0.68434  1.0000
  H   H1289     1.0  0.91554  0.21532  0.67828  1.0000
  H   H1290     1.0  0.88234  0.19571  0.67598  1.0000
  H   H1291     1.0  0.87781  0.21086  0.62139  1.0000
  H   H1292     1.0  0.90355  0.24166  0.61442  1.0000
  H   H1293     1.0  0.91518  0.27384  0.64866  1.0000
  H   H1294     1.0  0.91299  0.26816  0.68572  1.0000
  H   H1295     1.0  0.86319  0.23934  0.61886  1.0000
  H   H1296     1.0  0.84417  0.24221  0.64504  1.0000
  H   H1297     1.0  0.72587  0.41507  0.57013  1.0000
  H   H1298     1.0  0.87748  0.21852  0.71768  1.0000
  H   H1299     1.0  0.89893  0.20759  0.72528  1.0000
  H   H1300     1.0  0.91116  0.24082  0.71896  1.0000
  H   H1301     1.0  0.90422  0.19314  0.63320  1.0000
  H   H1302     1.0  0.93271  0.22378  0.63196  1.0000
  H   H1303     1.0  0.91386  0.20973  0.60053  1.0000
  H   H1304     1.0  0.94706  0.25567  0.68171  1.0000
  H   H1305     1.0  0.95625  0.28733  0.67097  1.0000
  H   H1306     1.0  0.94931  0.26367  0.64414  1.0000
  S   S232      1.0  0.77218  0.49302  0.72072  1.0000
  N   N54       1.0  0.80219  0.06336  0.57372  1.0000
  C   C780      1.0  0.80498  0.04048  0.56634  1.0000
  C   C781      1.0  0.82790  0.08464  0.58303  1.0000
  C   C782      1.0  0.79406  0.07108  0.54690  1.0000
  C   C783      1.0  0.78267  0.05589  0.59661  1.0000
  H   H1307     1.0  0.74346  0.39315  0.52231  1.0000
  C   C784      1.0  0.84031  0.07852  0.60823  1.0000
  H   H1308     1.0  0.80908  0.11240  0.55611  1.0000
  C   C785      1.0  0.69306  0.42163  0.53581  1.0000
  C   C786      1.0  0.94669  0.35222  0.94257  1.0000
  H   H1309     1.0  0.84123  0.09051  0.56495  1.0000
  H   H1310     1.0  0.72423  0.37365  0.55121  1.0000
  H   H1311     1.0  0.94566  0.37007  0.94371  1.0000
  H   H1312     1.0  0.70275  0.05227  0.99714  1.0000
  H   H1313     1.0  0.80986  0.03309  0.58560  1.0000
  H   H1314     1.0  0.75428  0.40121  0.55833  1.0000
  H   H1315     1.0  0.70655  0.14245  0.72668  1.0000
  H   H1316     1.0  0.82722  0.06958  0.62610  1.0000
  H   H1317     1.0  0.77536  0.09192  0.56213  1.0000
  H   H1318     1.0  0.90893  0.32981  0.92809  1.0000
  H   H1319     1.0  0.68959  0.14904  0.83163  1.0000
  H   H1320     1.0  0.70692  0.43820  0.52315  1.0000
  C   C787      1.0  0.94600  0.30006  0.95887  1.0000
  H   H1321     1.0  0.85730  0.03542  0.52513  1.0000
  N   N55       1.0  0.92803  0.30991  0.91301  1.0000
  H   H1322     1.0  0.75171  0.18602  0.80838  1.0000
  H   H1323     1.0  0.71286  0.14825  0.79486  1.0000
  C   C788      1.0  0.73597  0.18894  0.80119  1.0000
  C   C789      1.0  0.88045  0.28801  0.89916  1.0000
  C   C790      1.0  0.90748  0.29494  0.89102  1.0000
  H   H1324     1.0  0.97564  0.30106  0.88392  1.0000
  H   H1325     1.0  0.72876  0.16532  0.76428  1.0000
  H   H1326     1.0  0.74469  0.20695  0.78899  1.0000
  H   H1327     1.0  0.68850  0.09027  0.75038  1.0000
  C   C791      1.0  0.95544  0.29415  0.88836  1.0000
  H   H1328     1.0  0.87520  0.27923  0.92045  1.0000
  N   N56       1.0  0.83070  0.31802  0.74272  1.0000
  C   C792      1.0  0.80585  0.30721  0.75795  1.0000
  C   C793      1.0  0.83249  0.33897  0.72379  1.0000
  C   C794      1.0  0.85153  0.32939  0.76502  1.0000
  C   C795      1.0  0.83115  0.29660  0.72640  1.0000
  C   C796      1.0  0.80101  0.28737  0.78118  1.0000
  C   C797      1.0  0.81170  0.33038  0.70050  1.0000
  C   C798      1.0  0.87884  0.34205  0.75440  1.0000
  C   C799      1.0  0.84961  0.30418  0.70120  1.0000
  H   H1329     1.0  0.80379  0.32279  0.76815  1.0000
  H   H1330     1.0  0.78970  0.29746  0.74262  1.0000
  H   H1331     1.0  0.85076  0.34919  0.71286  1.0000
  H   H1332     1.0  0.83190  0.35416  0.73685  1.0000
  H   H1333     1.0  0.84989  0.34389  0.77825  1.0000
  H   H1334     1.0  0.84998  0.31448  0.77995  1.0000
  H   H1335     1.0  0.83548  0.28479  0.74105  1.0000
  H   H1336     1.0  0.81201  0.28322  0.71731  1.0000
  H   H1337     1.0  0.78086  0.27800  0.78729  1.0000
  H   H1338     1.0  0.80444  0.27202  0.77354  1.0000
  H   H1339     1.0  0.81239  0.29650  0.80078  1.0000
  H   H1340     1.0  0.80979  0.31412  0.68749  1.0000
  H   H1341     1.0  0.79310  0.32528  0.70957  1.0000
  H   H1342     1.0  0.81656  0.34648  0.68579  1.0000
  H   H1343     1.0  0.89195  0.35034  0.77304  1.0000
  H   H1344     1.0  0.88357  0.35804  0.73971  1.0000
  H   H1345     1.0  0.88300  0.32777  0.74472  1.0000
  H   H1346     1.0  0.85938  0.29286  0.70209  1.0000
  H   H1347     1.0  0.86462  0.32442  0.70065  1.0000
  H   H1348     1.0  0.83901  0.29885  0.68058  1.0000
  H   H1349     1.0  0.96186  0.31992  0.95811  1.0000
  C   C800      1.0  0.70127  0.18787  0.75346  1.0000
  C   C801      1.0  0.95274  0.31684  0.89924  1.0000
  H   H1350     1.0  0.79278  0.09684  0.60574  1.0000
  H   H1351     1.0  0.77530  0.05559  0.53918  1.0000
  H   H1352     1.0  0.78733  0.09948  0.52709  1.0000
  H   H1353     1.0  0.71418  0.18889  0.73632  1.0000
  C   C802      1.0  0.78161  0.01720  0.55279  1.0000
  C   C803      1.0  0.73719  0.39345  0.54434  1.0000
  H   H1354     1.0  0.76329  0.04516  0.58710  1.0000
  H   H1355     1.0  0.94489  0.28634  0.86796  1.0000
  H   H1356     1.0  0.80742  0.07413  0.52944  1.0000
  H   H1357     1.0  0.68543  0.44533  0.56459  1.0000
  H   H1358     1.0  0.71213  0.44288  0.57539  1.0000
  H   H1359     1.0  0.69856  0.43500  0.69754  1.0000
  H   H1360     1.0  0.93973  0.29682  0.98133  1.0000
  H   H1361     1.0  0.76432  0.01116  0.56529  1.0000
  H   H1362     1.0  0.68338  0.39100  0.68459  1.0000
  H   H1363     1.0  0.67624  0.12393  0.76878  1.0000
  H   H1364     1.0  0.70960  0.45070  0.74842  1.0000
  H   H1365     1.0  0.93020  0.48737  0.77182  1.0000
  H   H1366     1.0  0.70219  0.47013  0.72689  1.0000
  H   H1367     1.0  0.99862  0.45912  0.83532  1.0000
  C   C804      1.0  0.68290  0.43044  0.71239  1.0000
  H   H1368     1.0  0.69903  0.37328  0.75959  1.0000
  C   C805      1.0  0.68916  0.40012  0.74082  1.0000
  H   H1369     1.0  0.68752  0.40524  0.76323  1.0000
  S   S233      1.0  0.85032  0.12485  0.50802  1.0000
  C   C806      1.0  0.68794  0.37393  0.74106  1.0000
  H   H1370     1.0  0.67490  0.11831  0.71826  1.0000
  H   H1371     1.0  0.68055  0.41646  0.58057  1.0000
  C   C807      1.0  0.67931  0.19013  0.74004  1.0000
  H   H1372     1.0  0.68526  0.19963  0.71908  1.0000
  H   H1373     1.0  0.67416  0.20171  0.75398  1.0000
  C   C808      1.0  0.67256  0.14662  0.82021  1.0000
  H   H1374     1.0  0.00375  0.33837  0.99441  1.0000
  H   H1375     1.0  0.71768  0.66058  0.25729  1.0000
  H   H1376     1.0  0.81580  0.70814  0.34968  1.0000
  Fe  Fe119     1.0  0.73561  0.86186  0.46659  1.0000
  S   S234      1.0  0.72404  0.85531  0.41940  1.0000
  S   S235      1.0  0.77664  0.87632  0.47814  1.0000
  Fe  Fe120     1.0  0.86070  0.70865  0.48217  1.0000
  S   S236      1.0  0.83322  0.67324  0.45571  1.0000
  S   S237      1.0  0.88732  0.74852  0.46763  1.0000
  H   H1377     1.0  0.84172  0.70250  0.30918  1.0000
  Fe  Fe121     1.0  0.99097  0.61609  0.16058  1.0000
  H   H1378     1.0  0.72131  0.54778  0.29784  1.0000
  S   S238      1.0  0.96096  0.62583  0.17530  1.0000
  C   C809      1.0  0.79243  0.68458  0.29906  1.0000
  C   C810      1.0  0.93158  0.61932  0.27501  1.0000
  H   H1379     1.0  0.72645  0.53479  0.16998  1.0000
  H   H1380     1.0  0.78502  0.65837  0.34961  1.0000
  Fe  Fe122     1.0  0.82337  0.60291  0.30589  1.0000
  S   S239      1.0  0.83036  0.61053  0.25896  1.0000
  S   S240      1.0  0.85073  0.63637  0.33449  1.0000
  Fe  Fe123     1.0  0.78115  0.54777  0.29430  1.0000
  S   S241      1.0  0.78526  0.55174  0.24681  1.0000
  C   C811      1.0  0.68757  0.52817  0.21993  1.0000
  Fe  Fe124     1.0  0.82727  0.57198  0.25583  1.0000
  S   S242      1.0  0.85299  0.56037  0.23296  1.0000
  Fe  Fe125     1.0  0.78791  0.59003  0.25390  1.0000
  S   S243      1.0  0.77087  0.60722  0.22368  1.0000
  S   S244      1.0  0.82284  0.56540  0.30320  1.0000
  S   S245      1.0  0.78130  0.58504  0.30089  1.0000
  C   C812      1.0  0.74007  0.60330  0.22065  1.0000
  C   C813      1.0  0.72330  0.59514  0.24336  1.0000
  C   C814      1.0  0.69905  0.59226  0.23985  1.0000
  C   C815      1.0  0.69122  0.59752  0.21367  1.0000
  C   C816      1.0  0.70815  0.60609  0.19115  1.0000
  C   C817      1.0  0.73243  0.60906  0.19470  1.0000
  H   H1381     1.0  0.72899  0.59104  0.26358  1.0000
  C   C818      1.0  0.79592  0.97668  0.49514  1.0000
  H   H1382     1.0  0.70072  0.54839  0.21436  1.0000
  H   H1383     1.0  0.74527  0.61559  0.17702  1.0000
  C   C819      1.0  0.77451  0.67437  0.27271  1.0000
  H   H1384     1.0  0.83958  0.67639  0.32831  1.0000
  H   H1385     1.0  0.72966  0.50572  0.21888  1.0000
  C   C820      1.0  0.93086  0.60705  0.19099  1.0000
  C   C821      1.0  0.92125  0.58133  0.19780  1.0000
  C   C822      1.0  0.89730  0.56733  0.21033  1.0000
  C   C823      1.0  0.88271  0.57883  0.21638  1.0000
  C   C824      1.0  0.89225  0.60452  0.20943  1.0000
  C   C825      1.0  0.91619  0.61853  0.19690  1.0000
  H   H1386     1.0  0.93222  0.57218  0.19335  1.0000
  H   H1387     1.0  0.89008  0.54743  0.21546  1.0000
  H   H1388     1.0  0.88105  0.61348  0.21343  1.0000
  H   H1389     1.0  0.92336  0.63837  0.19159  1.0000
  C   C826      1.0  0.82920  0.68669  0.32350  1.0000
  H   H1390     1.0  0.90494  0.62563  0.35720  1.0000
  C   C827      1.0  0.83872  0.66310  0.42228  1.0000
  C   C828      1.0  0.86142  0.67719  0.40790  1.0000
  C   C829      1.0  0.86484  0.66851  0.38125  1.0000
  C   C830      1.0  0.84566  0.64569  0.36867  1.0000
  C   C831      1.0  0.82300  0.63152  0.38309  1.0000
  C   C832      1.0  0.81956  0.64024  0.40970  1.0000
  H   H1391     1.0  0.87633  0.69478  0.41733  1.0000
  H   H1392     1.0  0.88245  0.67963  0.37031  1.0000
  H   H1393     1.0  0.80815  0.61382  0.37381  1.0000
  H   H1394     1.0  0.80194  0.62918  0.42068  1.0000
  C   C833      1.0  0.69272  0.84199  0.40564  1.0000
  H   H1395     1.0  0.70249  0.61029  0.17090  1.0000
  H   H1396     1.0  0.93527  0.67559  0.10096  1.0000
  H   H1397     1.0  0.70552  0.92201  0.33171  1.0000
  C   C834      1.0  0.94190  0.81977  0.48872  1.0000
  H   H1398     1.0  0.94823  0.59559  0.28736  1.0000
  H   H1399     1.0  0.83019  0.88301  0.47783  1.0000
  H   H1400     1.0  0.89419  0.58971  0.33303  1.0000
  C   C835      1.0  0.97861  0.54024  0.05676  1.0000
  H   H1401     1.0  0.98115  0.69880  0.06426  1.0000
  H   H1402     1.0  0.93932  0.61069  0.08516  1.0000
  H   H1403     1.0  0.84900  0.82994  0.46837  1.0000
  H   H1404     1.0  0.69191  0.90756  0.38167  1.0000
  C   C836      1.0  0.00257  0.60993  0.03130  1.0000
  H   H1405     1.0  0.71042  0.89288  0.30425  1.0000
  C   C837      1.0  0.93918  0.62551  0.09919  1.0000
  N   N57       1.0  0.70162  0.51556  0.23178  1.0000
  C   C838      1.0  0.78707  0.58966  0.48901  1.0000
  H   H1406     1.0  0.75303  0.53776  0.18887  1.0000
  H   H1407     1.0  0.84748  0.71536  0.35726  1.0000
  C   C839      1.0  0.96905  0.82463  0.44828  1.0000
  H   H1408     1.0  0.96082  0.63817  0.04943  1.0000
  H   H1409     1.0  0.73149  0.52465  0.26286  1.0000
  H   H1410     1.0  0.77039  0.57171  0.49611  1.0000
  H   H1411     1.0  0.81455  0.83873  0.48062  1.0000
  C   C840      1.0  0.98027  0.65085  0.05801  1.0000
  C   C841      1.0  0.83642  0.81967  0.48553  1.0000
  H   H1412     1.0  0.98259  0.83805  0.43249  1.0000
  C   C842      1.0  0.96628  0.64679  0.10687  1.0000
  H   H1413     1.0  0.69304  0.87645  0.25741  1.0000
  H   H1414     1.0  0.92787  0.63307  0.08905  1.0000
  H   H1415     1.0  0.96498  0.65607  0.12664  1.0000
  H   H1416     1.0  0.95784  0.70795  0.09474  1.0000
  H   H1417     1.0  0.97725  0.51906  0.01932  1.0000
  H   H1418     1.0  0.75903  0.65440  0.27476  1.0000
  S   S246      1.0  0.72165  0.82973  0.49778  1.0000
  H   H1419     1.0  0.80724  0.70438  0.29355  1.0000
  H   H1420     1.0  0.78295  0.59315  0.46690  1.0000
  H   H1421     1.0  0.73825  0.55469  0.20164  1.0000
  C   C843      1.0  0.68552  0.90733  0.33586  1.0000
  C   C844      1.0  0.73439  0.53639  0.19177  1.0000
  H   H1422     1.0  0.98040  0.81954  0.46263  1.0000
  C   C845      1.0  0.94012  0.84129  0.44458  1.0000
  H   H1423     1.0  0.79173  0.64289  0.27237  1.0000
  N   N58       1.0  0.98005  0.66585  0.08379  1.0000
  H   H1424     1.0  0.99217  0.60123  0.05037  1.0000
  H   H1425     1.0  0.69362  0.85111  0.27615  1.0000
  H   H1426     1.0  0.92949  0.61567  0.11900  1.0000
  H   H1427     1.0  0.70465  0.69422  0.27269  1.0000
  H   H1428     1.0  0.76015  0.61988  0.29997  1.0000
  H   H1429     1.0  0.71229  0.71358  0.22822  1.0000
  H   H1430     1.0  0.69572  0.54552  0.27699  1.0000
  C   C846      1.0  0.68552  0.89367  0.36355  1.0000
  H   H1431     1.0  0.93965  0.87432  0.46517  1.0000
  H   H1432     1.0  0.82214  0.68612  0.36952  1.0000
  H   H1433     1.0  0.95174  0.81001  0.49765  1.0000
  H   H1434     1.0  0.84854  0.67986  0.27226  1.0000
  H   H1435     1.0  0.97703  0.63719  0.11340  1.0000
  H   H1436     1.0  0.77882  0.96046  0.48673  1.0000
  C   C847      1.0  0.68468  0.86323  0.27552  1.0000
  H   H1437     1.0  0.67766  0.68329  0.17706  1.0000
  H   H1438     1.0  0.95182  0.66986  0.06011  1.0000
  H   H1439     1.0  0.69538  0.92062  0.28062  1.0000
  C   C848      1.0  0.71914  0.53216  0.25546  1.0000
  H   H1440     1.0  0.69601  0.99090  0.09954  1.0000
  C   C849      1.0  0.71471  0.66621  0.23576  1.0000
  N   N59       1.0  0.91599  0.61700  0.30062  1.0000
  H   H1441     1.0  0.83958  0.62688  0.48695  1.0000
  C   C850      1.0  0.93211  0.63802  0.32179  1.0000
  Fe  Fe126     1.0  0.91458  0.74959  0.50133  1.0000
  C   C851      1.0  0.89348  0.61887  0.29070  1.0000
  H   H1442     1.0  0.95865  0.53505  0.05298  1.0000
  C   C852      1.0  0.91769  0.64313  0.34535  1.0000
  C   C853      1.0  0.95425  0.61533  0.28047  1.0000
  C   C854      1.0  0.89940  0.64439  0.27676  1.0000
  H   H1443     1.0  0.76571  0.68642  0.26959  1.0000
  H   H1444     1.0  0.80364  0.58689  0.48836  1.0000
  H   H1445     1.0  0.94430  0.65648  0.31104  1.0000
  H   H1446     1.0  0.94574  0.63373  0.33285  1.0000
  H   H1447     1.0  0.93920  0.63851  0.26526  1.0000
  H   H1448     1.0  0.93147  0.65720  0.36101  1.0000
  H   H1449     1.0  0.88231  0.60375  0.27444  1.0000
  H   H1450     1.0  0.87978  0.61460  0.30811  1.0000
  H   H1451     1.0  0.97835  0.52660  0.07261  1.0000
  S   S247      1.0  0.98974  0.59538  0.11988  1.0000
  C   C855      1.0  0.71719  0.51228  0.20922  1.0000
  C   C856      1.0  0.90676  0.59168  0.31511  1.0000
  H   H1452     1.0  0.90665  0.65165  0.33666  1.0000
  H   H1453     1.0  0.69896  0.88640  0.36261  1.0000
  H   H1454     1.0  0.70310  0.83654  0.36356  1.0000
  H   H1455     1.0  0.96790  0.62941  0.29613  1.0000
  H   H1456     1.0  0.96444  0.61815  0.26015  1.0000
  H   H1457     1.0  0.90083  0.64325  0.25332  1.0000
  H   H1458     1.0  0.91698  0.66111  0.28484  1.0000
  H   H1459     1.0  0.88413  0.64863  0.28159  1.0000
  C   C857      1.0  0.69307  0.70065  0.21924  1.0000
  H   H1460     1.0  0.78180  0.68714  0.31666  1.0000
  H   H1461     1.0  0.96152  0.79030  0.42471  1.0000
  C   C858      1.0  0.89170  0.56751  0.29626  1.0000
  H   H1462     1.0  0.68617  0.58577  0.25748  1.0000
  N   N60       1.0  0.95702  0.83722  0.46489  1.0000
  C   C859      1.0  0.92653  0.85490  0.45661  1.0000
  S   S248      1.0  0.73213  0.88921  0.49667  1.0000
  H   H1463     1.0  0.79693  0.63845  0.33787  1.0000
  C   C860      1.0  0.95090  0.79979  0.43181  1.0000
  H   H1464     1.0  0.72082  0.65695  0.21962  1.0000
  C   C861      1.0  0.70639  0.53562  0.28197  1.0000
  H   H1465     1.0  0.92463  0.82265  0.43615  1.0000
  S   S249      1.0  0.74927  0.51322  0.31592  1.0000
  H   H1466     1.0  0.90220  0.56713  0.27737  1.0000
  H   H1467     1.0  0.95099  0.85227  0.42576  1.0000
  H   H1468     1.0  0.91979  0.60567  0.25789  1.0000
  C   C862      1.0  0.81696  0.82485  0.49254  1.0000
  N   N61       1.0  0.67874  0.67697  0.23696  1.0000
  H   H1469     1.0  0.92271  0.59049  0.32508  1.0000
  H   H1470     1.0  0.91558  0.85729  0.43905  1.0000
  H   H1471     1.0  0.78480  0.67572  0.25291  1.0000
  H   H1472     1.0  0.68094  0.64942  0.20861  1.0000
  H   H1473     1.0  0.70868  0.68789  0.18467  1.0000
  C   C863      1.0  0.95591  0.68911  0.09986  1.0000
  C   C864      1.0  0.80913  0.65558  0.28485  1.0000
  N   N62       1.0  0.80414  0.66900  0.30897  1.0000
  H   H1474     1.0  0.87322  0.56509  0.28952  1.0000
  C   C865      1.0  0.97826  0.86278  0.47531  1.0000
  H   H1475     1.0  0.81554  0.64257  0.29340  1.0000
  H   H1476     1.0  0.93548  0.78598  0.44530  1.0000
  C   C866      1.0  0.67486  0.70267  0.27875  1.0000
  C   C867      1.0  0.78766  0.64926  0.33031  1.0000
  H   H1477     1.0  0.97142  0.87429  0.48643  1.0000
  C   C868      1.0  0.68997  0.87811  0.30401  1.0000
  H   H1478     1.0  0.75206  0.61435  0.33651  1.0000
  H   H1479     1.0  0.74866  0.63842  0.31874  1.0000
  H   H1480     1.0  0.94298  0.80371  0.41239  1.0000
  S   S250      1.0  0.86481  0.79572  0.49074  1.0000
  H   H1481     1.0  0.88748  0.55040  0.30893  1.0000
  C   C869      1.0  0.82818  0.69967  0.35152  1.0000
  H   H1482     1.0  0.82747  0.69002  0.25786  1.0000
  C   C870      1.0  0.76072  0.62955  0.32028  1.0000
  H   H1483     1.0  0.67630  0.84495  0.44473  1.0000
  C   C871      1.0  0.69607  0.69598  0.18758  1.0000
  C   C872      1.0  0.68786  0.83464  0.37670  1.0000
  H   H1484     1.0  0.96460  0.69129  0.12117  1.0000
  H   H1485     1.0  0.92352  0.80401  0.48036  1.0000
  H   H1486     1.0  0.72732  0.68705  0.23352  1.0000
  C   C873      1.0  0.96760  0.68112  0.07557  1.0000
  C   C874      1.0  0.98995  0.53856  0.02832  1.0000
  C   C875      1.0  0.68401  0.68448  0.26800  1.0000
  H   H1487     1.0  0.82721  0.66219  0.24363  1.0000
  H   H1488     1.0  0.98752  0.63787  0.06405  1.0000
  C   C876      1.0  0.82925  0.67321  0.26354  1.0000
  H   H1489     1.0  0.98883  0.87479  0.45690  1.0000
  H   H1490     1.0  0.73241  0.55170  0.24780  1.0000
  H   H1491     1.0  0.67603  0.64032  0.24422  1.0000
  H   H1492     1.0  0.91247  0.84308  0.47272  1.0000
  H   H1493     1.0  0.70465  0.71448  0.17625  1.0000
  H   H1494     1.0  0.98827  0.55988  0.06572  1.0000
  H   H1495     1.0  0.67571  0.66729  0.28172  1.0000
  C   C877      1.0  0.68652  0.65740  0.23067  1.0000
  H   H1496     1.0  0.69395  0.51727  0.29258  1.0000
  H   H1497     1.0  0.68785  0.86442  0.32098  1.0000
  N   N63       1.0  0.67388  0.89012  0.31004  1.0000
  H   H1498     1.0  0.67446  0.00003  0.08574  1.0000
  C   C878      1.0  0.67535  0.90602  0.28469  1.0000
  S   S251      1.0  0.00022  0.53967  0.13109  1.0000
  H   H1499     1.0  0.69502  0.99537  0.06214  1.0000
  H   H1500     1.0  0.99190  0.65363  0.01393  1.0000
  H   H1501     1.0  0.67655  0.91884  0.34078  1.0000
  C   C879      1.0  0.99579  0.66670  0.03249  1.0000
  C   C880      1.0  0.99774  0.86165  0.49549  1.0000
  S   S252      1.0  0.95529  0.76303  0.48732  1.0000
  H   H1502     1.0  0.68017  0.70728  0.30162  1.0000
  H   H1503     1.0  0.68383  0.72104  0.26723  1.0000
  C   C881      1.0  0.67284  0.83933  0.42246  1.0000
  H   H1504     1.0  0.80230  0.62999  0.49554  1.0000
  H   H1505     1.0  0.00346  0.77605  0.46432  1.0000
  Fe  Fe127     1.0  0.87142  0.76238  0.50225  1.0000
  H   H1506     1.0  0.86087  0.90586  0.49063  1.0000
  H   H1507     1.0  0.00232  0.68705  0.13935  1.0000
  C   C882      1.0  0.98666  0.78614  0.49849  1.0000
  H   H1508     1.0  0.68148  0.51424  0.17515  1.0000
  H   H1509     1.0  0.99077  0.68121  0.02592  1.0000
  H   H1510     1.0  0.67498  0.52913  0.23619  1.0000
  H   H1511     1.0  0.68363  0.71238  0.21954  1.0000
  H   H1512     1.0  0.98785  0.55181  0.01373  1.0000
  H   H1513     1.0  0.83781  0.91528  0.48319  1.0000
  C   C883      1.0  0.83944  0.80099  0.50010  1.0000
  C   C884      1.0  0.84068  0.89990  0.49217  1.0000
  H   H1514     1.0  0.67093  0.61257  0.01045  1.0000
  C   C885      1.0  0.91193  0.52828  0.82262  1.0000
  H   H1515     1.0  0.68558  0.72997  0.62497  1.0000
  N   N64       1.0  0.80486  0.61454  0.53643  1.0000
  H   H1516     1.0  0.72662  0.79481  0.63405  1.0000
  Fe  Fe128     1.0  0.72037  0.85769  0.52887  1.0000
  H   H1517     1.0  0.95274  0.58518  0.76027  1.0000
  S   S253      1.0  0.75987  0.87163  0.54493  1.0000
  H   H1518     1.0  0.71296  0.73181  0.60863  1.0000
  S   S254      1.0  0.68397  0.84378  0.55381  1.0000
  S   S255      1.0  0.99870  0.54037  0.82794  1.0000
  H   H1519     1.0  0.80775  0.59965  0.84411  1.0000
  H   H1520     1.0  0.81972  0.59501  0.58304  1.0000
  H   H1521     1.0  0.91779  0.51252  0.86143  1.0000
  Fe  Fe129     1.0  0.87241  0.72436  0.54505  1.0000
  S   S256      1.0  0.85998  0.71105  0.59055  1.0000
  S   S257      1.0  0.90030  0.76573  0.53508  1.0000
  S   S258      1.0  0.77644  0.81851  0.52582  1.0000
  S   S259      1.0  0.97674  0.58180  0.86662  1.0000
  H   H1522     1.0  0.81163  0.67373  0.55740  1.0000
  H   H1523     1.0  0.68723  0.95836  0.95815  1.0000
  H   H1524     1.0  0.98871  0.84891  0.51373  1.0000
  S   S260      1.0  0.96936  0.62805  0.80740  1.0000
  H   H1525     1.0  0.91627  0.51997  0.75126  1.0000
  H   H1526     1.0  0.94987  0.57391  0.80997  1.0000
  Fe  Fe130     1.0  0.81809  0.58857  0.68995  1.0000
  S   S261      1.0  0.81871  0.61027  0.72943  1.0000
  S   S262      1.0  0.83762  0.60600  0.64790  1.0000
  Fe  Fe131     1.0  0.78794  0.53623  0.71861  1.0000
  S   S263      1.0  0.78620  0.55451  0.75983  1.0000
  C   C886      1.0  0.86547  0.94617  0.54292  1.0000
  Fe  Fe132     1.0  0.77759  0.57994  0.73322  1.0000
  S   S264      1.0  0.74687  0.59053  0.74028  1.0000
  Fe  Fe133     1.0  0.82737  0.58308  0.75325  1.0000
  S   S265      1.0  0.85209  0.59252  0.79360  1.0000
  S   S266      1.0  0.77647  0.55974  0.69202  1.0000
  S   S267      1.0  0.82960  0.56331  0.71366  1.0000
  H   H1527     1.0  0.72397  0.81915  0.61700  1.0000
  C   C887      1.0  0.72883  0.58885  0.77049  1.0000
  C   C888      1.0  0.73022  0.57780  0.79603  1.0000
  C   C889      1.0  0.71628  0.57788  0.81975  1.0000
  H   H1528     1.0  0.80601  0.86773  0.60205  1.0000
  C   C890      1.0  0.69858  0.59904  0.79237  1.0000
  C   C891      1.0  0.71285  0.59935  0.76881  1.0000
  H   H1529     1.0  0.74201  0.56920  0.79746  1.0000
  H   H1530     1.0  0.79864  0.86021  0.56529  1.0000
  H   H1531     1.0  0.81334  0.63673  0.57579  1.0000
  H   H1532     1.0  0.71157  0.60790  0.74914  1.0000
  H   H1533     1.0  0.69240  0.79423  0.65545  1.0000
  S   S268      1.0  0.80524  0.94129  0.52292  1.0000
  C   C892      1.0  0.93650  0.61709  0.80390  1.0000
  C   C893      1.0  0.92658  0.61827  0.77712  1.0000
  C   C894      1.0  0.90068  0.61007  0.77337  1.0000
  C   C895      1.0  0.88447  0.60117  0.79656  1.0000
  C   C896      1.0  0.89441  0.59996  0.82334  1.0000
  C   C897      1.0  0.92019  0.60761  0.82697  1.0000
  H   H1534     1.0  0.93899  0.62562  0.75913  1.0000
  H   H1535     1.0  0.89340  0.61127  0.75269  1.0000
  H   H1536     1.0  0.88209  0.59323  0.84147  1.0000
  H   H1537     1.0  0.92753  0.60672  0.84773  1.0000
  H   H1538     1.0  0.84667  0.99116  0.53764  1.0000
  H   H1539     1.0  0.68639  0.60720  0.79068  1.0000
  H   H1540     1.0  0.97640  0.80087  0.53465  1.0000
  C   C898      1.0  0.85445  0.68208  0.60655  1.0000
  C   C899      1.0  0.86444  0.66748  0.59552  1.0000
  C   C900      1.0  0.85949  0.64455  0.60882  1.0000
  C   C901      1.0  0.84443  0.63584  0.63318  1.0000
  C   C902      1.0  0.83460  0.65055  0.64434  1.0000
  C   C903      1.0  0.83970  0.67357  0.63116  1.0000
  H   H1541     1.0  0.87614  0.67397  0.57688  1.0000
  H   H1542     1.0  0.86741  0.63347  0.60020  1.0000
  H   H1543     1.0  0.82298  0.64413  0.66305  1.0000
  H   H1544     1.0  0.83200  0.68479  0.63999  1.0000
  C   C904      1.0  0.93884  0.50839  0.77492  1.0000
  C   C905      1.0  0.69865  0.84765  0.61084  1.0000
  H   H1545     1.0  0.87883  0.86254  0.56080  1.0000
  C   C906      1.0  0.81601  0.66181  0.54298  1.0000
  H   H1546     1.0  0.71793  0.85787  0.60366  1.0000
  H   H1547     1.0  0.78386  0.62873  0.55970  1.0000
  H   H1548     1.0  0.71766  0.56946  0.83947  1.0000
  C   C907      1.0  0.70032  0.58842  0.81806  1.0000
  C   C908      1.0  0.90569  0.54831  0.78088  1.0000
  H   H1549     1.0  0.76976  0.58367  0.55263  1.0000
  H   H1550     1.0  0.70903  0.84898  0.65523  1.0000
  H   H1551     1.0  0.79114  0.78308  0.54666  1.0000
  H   H1552     1.0  0.79073  0.67831  0.81387  1.0000
  H   H1553     1.0  0.68415  0.76097  0.65293  1.0000
  H   H1554     1.0  0.82023  0.90457  0.52690  1.0000
  H   H1555     1.0  0.78445  0.65795  0.76884  1.0000
  C   C909      1.0  0.95982  0.57217  0.76656  1.0000
  Fe  Fe134     1.0  0.77205  0.90150  0.51059  1.0000
  H   H1556     1.0  0.68868  0.96294  0.90939  1.0000
  H   H1557     1.0  0.89165  0.51332  0.82219  1.0000
  C   C910      1.0  0.75022  0.80990  0.59778  1.0000
  C   C911      1.0  0.72500  0.80152  0.61267  1.0000
  H   H1558     1.0  0.84012  0.85825  0.54092  1.0000
  H   H1559     1.0  0.79274  0.63566  0.75363  1.0000
  H   H1560     1.0  0.68049  0.68658  0.90844  1.0000
  H   H1561     1.0  0.83253  0.60228  0.53056  1.0000
  H   H1562     1.0  0.96105  0.55271  0.80394  1.0000
  H   H1563     1.0  0.84945  0.90080  0.59243  1.0000
  C   C912      1.0  0.87479  0.87821  0.56555  1.0000
  H   H1564     1.0  0.95635  0.55839  0.74902  1.0000
  C   C913      1.0  0.70433  0.74322  0.61593  1.0000
  C   C914      1.0  0.67610  0.77970  0.55097  1.0000
  H   H1565     1.0  0.71611  0.79506  0.55415  1.0000
  H   H1566     1.0  0.89311  0.89638  0.56576  1.0000
  H   H1567     1.0  0.80878  0.66277  0.52159  1.0000
  C   C915      1.0  0.69355  0.84263  0.64005  1.0000
  N   N65       1.0  0.84835  0.89747  0.54619  1.0000
  H   H1568     1.0  0.82082  0.85323  0.58307  1.0000
  H   H1569     1.0  0.94694  0.83216  0.53365  1.0000
  C   C916      1.0  0.81417  0.86721  0.58121  1.0000
  H   H1570     1.0  0.98058  0.58435  0.76957  1.0000
  C   C917      1.0  0.94821  0.55884  0.79485  1.0000
  C   C918      1.0  0.87682  0.53029  0.77941  1.0000
  H   H1571     1.0  0.90907  0.56541  0.79345  1.0000
  H   H1572     1.0  0.85703  0.94605  0.52187  1.0000
  C   C919      1.0  0.79008  0.58929  0.55140  1.0000
  H   H1573     1.0  0.91137  0.55506  0.75876  1.0000
  C   C920      1.0  0.79922  0.58822  0.58191  1.0000
  H   H1574     1.0  0.95189  0.51705  0.75687  1.0000
  H   H1575     1.0  0.84307  0.62962  0.55254  1.0000
  C   C921      1.0  0.99178  0.80264  0.52187  1.0000
  H   H1576     1.0  0.78931  0.56810  0.58921  1.0000
  H   H1577     1.0  0.97300  0.58313  0.00285  1.0000
  H   H1578     1.0  0.79465  0.59922  0.59743  1.0000
  C   C922      1.0  0.83558  0.89439  0.57439  1.0000
  H   H1579     1.0  0.88278  0.92803  0.56536  1.0000
  C   C923      1.0  0.70169  0.75766  0.59038  1.0000
  N   N66       1.0  0.92119  0.53730  0.79296  1.0000
  H   H1580     1.0  0.77508  0.58987  0.83615  1.0000
  C   C924      1.0  0.83411  0.99403  0.52377  1.0000
  H   H1581     1.0  0.84775  0.63193  0.83081  1.0000
  H   H1582     1.0  0.86095  0.66329  0.81550  1.0000
  H   H1583     1.0  0.91338  0.54444  0.83584  1.0000
  Fe  Fe135     1.0  0.99001  0.61720  0.84064  1.0000
  H   H1584     1.0  0.76372  0.65971  0.83505  1.0000
  C   C925      1.0  0.83172  0.62024  0.53298  1.0000
  H   H1585     1.0  0.79062  0.57366  0.53928  1.0000
  H   H1586     1.0  0.94992  0.51320  0.79499  1.0000
  H   H1587     1.0  0.86832  0.52719  0.80080  1.0000
  C   C926      1.0  0.87113  0.92402  0.54559  1.0000
  H   H1588     1.0  0.82705  0.90691  0.57561  1.0000
  C   C927      1.0  0.80382  0.63460  0.55483  1.0000
  H   H1589     1.0  0.68267  0.00005  0.90826  1.0000
  C   C928      1.0  0.82281  0.78778  0.52208  1.0000
  H   H1590     1.0  0.79073  0.57634  0.81724  1.0000
  H   H1591     1.0  0.79433  0.67198  0.85082  1.0000
  H   H1592     1.0  0.81423  0.87315  0.52187  1.0000
  H   H1593     1.0  0.82483  0.77344  0.53363  1.0000
  H   H1594     1.0  0.81112  0.66884  0.74643  1.0000
  H   H1595     1.0  0.86825  0.53958  0.76670  1.0000
  H   H1596     1.0  0.75220  0.82141  0.57867  1.0000
  H   H1597     1.0  0.93918  0.85153  0.51132  1.0000
  C   C929      1.0  0.67826  0.77690  0.61283  1.0000
  S   S269      1.0  0.84282  0.72237  0.51441  1.0000
  H   H1598     1.0  0.86627  0.88051  0.52167  1.0000
  H   H1599     1.0  0.83683  0.67098  0.54319  1.0000
  H   H1600     1.0  0.76600  0.82242  0.61255  1.0000
  H   H1601     1.0  0.84630  0.65514  0.50681  1.0000
  H   H1602     1.0  0.86248  0.65978  0.85306  1.0000
  N   N67       1.0  0.80680  0.64088  0.81317  1.0000
  C   C930      1.0  0.78216  0.63859  0.82211  1.0000
  C   C931      1.0  0.80186  0.61485  0.80358  1.0000
  C   C932      1.0  0.81814  0.65918  0.78882  1.0000
  C   C933      1.0  0.82509  0.65084  0.83809  1.0000
  C   C934      1.0  0.78324  0.66382  0.83083  1.0000
  C   C935      1.0  0.79340  0.59437  0.82692  1.0000
  C   C936      1.0  0.80032  0.65491  0.76327  1.0000
  C   C937      1.0  0.85034  0.65135  0.83375  1.0000
  H   H1603     1.0  0.76753  0.62933  0.80500  1.0000
  H   H1604     1.0  0.77434  0.62580  0.84070  1.0000
  H   H1605     1.0  0.81884  0.61616  0.79350  1.0000
  H   H1606     1.0  0.78694  0.60678  0.78665  1.0000
  H   H1607     1.0  0.82611  0.67938  0.79620  1.0000
  H   H1608     1.0  0.83440  0.65815  0.77990  1.0000
  H   H1609     1.0  0.83018  0.67083  0.84362  1.0000
  H   H1610     1.0  0.81626  0.63962  0.85756  1.0000
  C   C938      1.0  0.85666  0.87797  0.54235  1.0000
  H   H1611     1.0  0.75272  0.79348  0.59193  1.0000
  H   H1612     1.0  0.86645  0.87461  0.58702  1.0000
  C   C939      1.0  0.80367  0.79333  0.52945  1.0000
  C   C940      1.0  0.82980  0.89340  0.52259  1.0000
  C   C941      1.0  0.67878  0.83942  0.59102  1.0000
  N   N68       1.0  0.70158  0.78213  0.59665  1.0000
  H   H1613     1.0  0.88405  0.92593  0.52813  1.0000
  C   C942      1.0  0.91773  0.51545  0.77394  1.0000
  S   S270      1.0  0.99032  0.59656  0.94589  1.0000
  C   C943      1.0  0.99177  0.59967  0.00431  1.0000
  H   H1614     1.0  0.94578  0.52911  0.84153  1.0000
  H   H1615     1.0  0.87136  0.51171  0.76885  1.0000
  H   H1616     1.0  0.70535  0.81384  0.57152  1.0000
  H   H1617     1.0  0.91589  0.82009  0.51999  1.0000
  C   C944      1.0  0.70108  0.79377  0.56840  1.0000
  C   C945      1.0  0.80053  0.81186  0.51476  1.0000
  H   H1618     1.0  0.85294  0.94599  0.55988  1.0000
  C   C946      1.0  0.81195  0.97259  0.51306  1.0000
  H   H1619     1.0  0.77303  0.61096  0.51187  1.0000
  C   C947      1.0  0.93610  0.83211  0.51449  1.0000
  H   H1620     1.0  0.88341  0.96471  0.54484  1.0000
  Fe  Fe136     1.0  0.76230  0.84584  0.51149  1.0000
  H   H1621     1.0  0.67766  0.71299  0.92055  1.0000
  C   C948      1.0  0.92512  0.51632  0.83940  1.0000
  S   S271      1.0  0.88865  0.70841  0.51367  1.0000
  C   C949      1.0  0.79172  0.61246  0.50834  1.0000
  C   C950      1.0  0.67924  0.77529  0.64558  1.0000
  H   H1622     1.0  0.71632  0.76053  0.57459  1.0000
  H   H1623     1.0  0.67152  0.68695  0.94433  1.0000
  H   H1624     1.0  0.67849  0.78979  0.53057  1.0000
  C   C951      1.0  0.84658  0.63706  0.50770  1.0000
  H   H1625     1.0  0.71719  0.75581  0.63299  1.0000
  H   H1626     1.0  0.67364  0.79227  0.60899  1.0000
  S   S272      1.0  0.68256  0.58721  0.84838  1.0000
  H   H1627     1.0  0.68382  0.74363  0.57936  1.0000
  H   H1628     1.0  0.86667  0.64221  0.50989  1.0000
  H   H1629     1.0  0.00256  0.55028  0.97101  1.0000
  H   H1630     1.0  0.67727  0.92083  0.90920  1.0000
  H   H1631     1.0  0.67860  0.92491  0.95792  1.0000
  H   H1632     1.0  0.78501  0.00074  0.55187  1.0000
  C   C952      1.0  0.67196  0.93862  0.96246  1.0000
