data_image0
_chemical_formula_structural       FeS2FeS2FeSFeS2FeSFeS2FeSFeS4H2SH3C2HC4HCHCHCHFeHC5H3C7H4CH4NH2CH2CH3CHFeCNH7C2FeH2CH4C2H2C2H3C2HS2HCH2CNHC2HCH5C3HCH2CH2SH8CHCHC3SH2SHCHFeS2FeS2FeSFeS3FeS2FeS2FeSFeS3CSHCH4C2HC6H4C2H2C6H4C7H4C6H6C6H12CH2CH2C6H5CH3C2HCH3SH8CHCH4SH12FeH6CH4NHNC8H4CHCH5CHFeH2CHSNC5H9FeCH4CH3CHCHC2HCHNC2H2CHC2H2CFeHSC3H7CNH4C2H4CH2CHNH2C2H3CH4CH3CHSCHCH4CH3C2HCH4CH3N2CH6SH4CH2C2FeHCH3SCH3CHNSHCH2S2HFeSFeS2FeSFeS3FeSFeS2FeSFeS3HC2SCSCH5CH3C2H3CHCHC2H2C7H7CH3C2HNH2CHC3NCSCHCHCNC2H2CH2CH2CH2CHCHCH2C2H2CH5CH2C2HC4H2CHFeH5C2H6CH3CHCH3CH4CHCH2NH4NCHC2H7CSH6C3HSHFeHSFeS2HFeS3FeS2FeS2CFeS3HSFeS2FeSFeHS2FeS2CSFeSFeS3HCHSH4C3HC2H2CHC6H4C4HCH3C6H4C6H3FeC6H6C2H2FeH3FeC4HC3H3C2HCH2C2H3SH2CHC2H2C3H4C3HC2H3C2H5CH3C2H2CNH4SH3NC3FeH6CH4NH8CH9SHCHNHCH2FeNC8H12Fe2HC2H4CSH10CH3CSFeS2FeS2FeSFeS3FeHS2HFeHS2FeS2FeS2FeSFeS4HSCH2CH2SFeHSH2C7H4C6H4C6H4C6H4C6H8C6H4C6H4C6H4C6H7CHC3H11CH3C4HC3FeH2SNHCH2FeC3H2CH3C4HC2FeH7CH9C2NC8H20NC8H19CSH6CHCH2NHCH4C3H4NH4CH2NCH2C2H2CH2CH3Fe2CH2C2HCSHNH3NHCSH6NHCHCH2CH3CH4C2H2CH2CH4C2H3SH2CH2C2H6SHSCH2C4NH5C4H2CH4SCHSHCH5FeHCH3CSCH3CH4CFeH3CH5CH3FeS2FeS2FeSFeS3FeS2FeS2FeSFeS5CHCSHSHNC7H4C6H4C3H2C6H4C6H4C6H5C2H3CH3CHCH3CH4CH3CH3NC8H9CH12CH3CH4CHC2NCHCH3CH2CHCNC5H15SHSH5NH3CH2FeH2NHCH3CHCH2C2HFeH3C3HCH2CH4C2H6CHNCH5CHCH4CH2CH4CH2C2H3NH3SH2CH2CHC2H3CHC2H2CHC2H4CHCH3CH3CH3C2H2FeCHSH2SH10SC2HSCHNSHFeS2FeS2FeSFeS3FeS2FeS2FeSFeS7HC6H4CHC6H4C6H4CH5CHC6H4CHC6H7CH2CH2CFeHCH5CH5CH3NC2HCH3SC2FeH3CH4CHCH2FeCH2NC6HCH24CHC2HNH4CHCH5FeH8CH4C2H2CSHCH6SCNC6HCH10CH2CH5CH5CH4C2H3CFeHNC2HC2NC2HCHCHCH5CH3SHSCFeHC2H3FeSCH3SH2SH2SHSCSHSH4SHSFeS2FeS2FeSFeS3NSHCH2FeS2FeS2FeSFeS3H2SHSC6H4C6H4C6H2CHC6H4C6H4C6H4C6H5C6H2FeHC6H2CH3CH10SHCH5CHFeH3CH3C2HC2HC3H2CHFeCSH2FeH2CH3CH3NHC3NCHC2H4CHCHC2H3CH4CH4CH2NC8H10NH5CH3NC5H7S2H6SH9CHCHNCH4SC2H7NHSHCHNHFeHCHFeH2CH9C3HC2H5CHC4SHC2HC4NHCH7CHCH5NCHC2HC2HCH7CH2NCH5C2FeCH2CH9CFeHC3H2FeH2CH6CH2CH2C3H4CHCH4CH2CH7C2H8CHC4H4C2H2SNCH2SH2SFeSFeSH2FeCSFeS2FeSCS2FeCSFeS2FeSHS2FeSH2SFeSFeSH2C6H4C6H4C6H4C6H4SH3CNH2CH3SHSH2SH5CH2SC2FeCH3CNH3C2H5CHC2SHCH2FeH8CHC3HSC3HCH2CH3CH3CH2CNH4FeH2CHCSHC5H3CHC5H3C2H4C2H3C4H2CH10CNC2HNC5H9C2HCHCSH6SFeHNH7S3FeS2FeSFeSHSHSFeS2FeSFeCS2C3HCH3C6H3C4H2CH2CHCHC2H4NSCHC4H2CHNCH2C2H2CH5SH7CH2CH2CSCHFeH2NH3CHFeCH3CHCH3C3HCH3SHCH2C2FeH2SH2SCH2CHSC2SCH4CFeS2FeS2FeSFeS3FeS2FeS2FeSFeS3H3SHCS3HCHCHC6H4C6H4SCH2C6H4C6H4C2HC6H5NC8H20CFeH2SH4CH4SH3C2H4SHNC2H2C3HNH3SCNC8H21C2H7CHCHC3H3NCHFeH3C4H6CH2CHC3HFeHFeSCH2CHNH2C2H5C2H4CH5CHCH3C2SH2CHC2H4NHSH5CH3C2HC2HCFeCH9CH2NHCHC2H4CHCH3CHFeH4CH4C2HCH2CHCHFeS2HSFeSFeHSCFeS2HSFeSFeSHSCH2CHCHC6HCH5NCH2NHFeC3H2CH2CHCHC2H2C2H2CH2SCH6CHSH6CSH2FeCHC2H6SCHC2HSNCFeH4CSHCH4CHC3H2C
_chemical_formula_sum              "Fe160 S320 H1920 C1120 N80"
_cell_length_a       84.7779
_cell_length_b       84.7501
_cell_length_c       37.5814
_cell_angle_alpha    90.853
_cell_angle_beta     90.9581
_cell_angle_gamma    115.411

_space_group_name_H-M_alt    "P 1"
_space_group_IT_number       1

loop_
  _space_group_symop_operation_xyz
  'x, y, z'

loop_
  _atom_site_type_symbol
  _atom_site_label
  _atom_site_symmetry_multiplicity
  _atom_site_fract_x
  _atom_site_fract_y
  _atom_site_fract_z
  _atom_site_occupancy
  Fe  Fe1       1.0  0.03264  0.42716  0.54587  1.0000
  S   S1        1.0  0.02927  0.44096  0.59471  1.0000
  S   S2        1.0  0.00959  0.40216  0.52359  1.0000
  Fe  Fe2       1.0  0.07301  0.45216  0.54269  1.0000
  S   S3        1.0  0.07120  0.46740  0.59102  1.0000
  S   S4        1.0  0.10065  0.46589  0.51867  1.0000
  Fe  Fe3       1.0  0.05464  0.44159  0.61511  1.0000
  S   S5        1.0  0.06159  0.43416  0.66951  1.0000
  Fe  Fe4       1.0  0.04614  0.46545  0.56638  1.0000
  S   S6        1.0  0.05734  0.42614  0.56799  1.0000
  S   S7        1.0  0.04855  0.45178  0.51649  1.0000
  Fe  Fe5       1.0  0.05188  0.47152  0.94780  1.0000
  S   S8        1.0  0.05210  0.45190  0.98648  1.0000
  Fe  Fe6       1.0  0.04651  0.44705  0.88456  1.0000
  S   S9        1.0  0.04608  0.42525  0.91968  1.0000
  S   S10       1.0  0.03941  0.44751  0.82532  1.0000
  Fe  Fe7       1.0  0.02872  0.43217  0.95595  1.0000
  S   S11       1.0  0.00763  0.41474  0.99449  1.0000
  Fe  Fe8       1.0  0.06954  0.44663  0.94851  1.0000
  S   S12       1.0  0.09153  0.44272  0.97877  1.0000
  S   S13       1.0  0.02767  0.45243  0.91945  1.0000
  S   S14       1.0  0.07087  0.46788  0.91143  1.0000
  S   S15       1.0  0.21499  0.46747  0.41794  1.0000
  H   H1        1.0  0.98870  0.40250  0.67507  1.0000
  H   H2        1.0  0.05866  0.41200  0.98042  1.0000
  S   S16       1.0  0.16963  0.45816  0.46750  1.0000
  H   H3        1.0  0.07218  0.40831  0.01265  1.0000
  H   H4        1.0  0.03909  0.38878  0.60526  1.0000
  H   H5        1.0  0.09503  0.43361  0.67106  1.0000
  C   C1        1.0  0.11841  0.44618  0.70370  1.0000
  C   C2        1.0  0.15213  0.47026  0.99214  1.0000
  H   H6        1.0  0.11191  0.42725  0.66126  1.0000
  C   C3        1.0  0.12526  0.46563  0.95821  1.0000
  C   C4        1.0  0.11492  0.45358  0.98293  1.0000
  C   C5        1.0  0.12336  0.44988  0.01211  1.0000
  C   C6        1.0  0.14177  0.45819  0.01682  1.0000
  H   H7        1.0  0.11911  0.46850  0.93534  1.0000
  C   C7        1.0  0.20629  0.47863  0.27312  1.0000
  H   H8        1.0  0.13647  0.47155  0.58005  1.0000
  C   C8        1.0  0.05971  0.40168  0.99696  1.0000
  H   H9        1.0  0.00910  0.41783  0.65927  1.0000
  C   C9        1.0  0.06252  0.38882  0.97121  1.0000
  H   H10       1.0  0.04055  0.41761  0.02118  1.0000
  Fe  Fe9       1.0  0.19748  0.47673  0.44939  1.0000
  H   H11       1.0  0.06436  0.41363  0.08021  1.0000
  C   C10       1.0  0.15064  0.46068  0.48189  1.0000
  C   C11       1.0  0.13552  0.44575  0.49098  1.0000
  C   C12       1.0  0.12019  0.44701  0.50221  1.0000
  C   C13       1.0  0.11965  0.46328  0.50463  1.0000
  C   C14       1.0  0.99278  0.37296  0.65812  1.0000
  H   H12       1.0  0.11572  0.43516  0.72191  1.0000
  H   H13       1.0  0.10875  0.43532  0.50851  1.0000
  H   H14       1.0  0.00868  0.41421  0.72450  1.0000
  C   C15       1.0  0.02474  0.38351  0.60863  1.0000
  C   C16       1.0  0.05620  0.43906  0.71268  1.0000
  C   C17       1.0  0.04458  0.44661  0.71752  1.0000
  C   C18       1.0  0.03978  0.44920  0.75217  1.0000
  C   C19       1.0  0.04669  0.44455  0.78250  1.0000
  C   C20       1.0  0.05856  0.43728  0.77765  1.0000
  C   C21       1.0  0.06318  0.43446  0.74295  1.0000
  H   H15       1.0  0.03904  0.45019  0.69462  1.0000
  H   H16       1.0  0.03057  0.45481  0.75554  1.0000
  H   H17       1.0  0.06393  0.43356  0.80062  1.0000
  H   H18       1.0  0.07210  0.42852  0.73960  1.0000
  C   C22       1.0  0.02119  0.39502  0.63644  1.0000
  H   H19       1.0  0.98143  0.44629  0.01309  1.0000
  H   H20       1.0  0.98752  0.36718  0.50286  1.0000
  H   H21       1.0  0.98500  0.39904  0.05277  1.0000
  H   H22       1.0  0.00410  0.39167  0.71993  1.0000
  N   N1        1.0  0.00231  0.39092  0.64299  1.0000
  H   H23       1.0  0.02906  0.37388  0.98205  1.0000
  H   H24       1.0  0.11561  0.44053  0.03137  1.0000
  C   C23       1.0  0.10938  0.43885  0.66722  1.0000
  H   H25       1.0  0.02795  0.39392  0.66120  1.0000
  H   H26       1.0  0.00164  0.40640  0.59820  1.0000
  C   C24       1.0  0.98698  0.39221  0.50892  1.0000
  H   H27       1.0  0.02545  0.37983  0.08161  1.0000
  H   H28       1.0  0.99369  0.38412  0.58750  1.0000
  H   H29       1.0  0.13758  0.44562  0.63606  1.0000
  C   C25       1.0  0.03742  0.37771  0.08143  1.0000
  H   H30       1.0  0.99157  0.35935  0.60528  1.0000
  Fe  Fe10      1.0  0.21545  0.48209  0.10705  1.0000
  C   C26       1.0  0.05937  0.42108  0.06304  1.0000
  N   N2        1.0  0.04434  0.39398  0.02124  1.0000
  H   H31       1.0  0.02044  0.36996  0.61782  1.0000
  H   H32       1.0  0.99990  0.37080  0.99662  1.0000
  H   H33       1.0  0.10294  0.48030  0.98689  1.0000
  H   H34       1.0  0.07550  0.39572  0.95895  1.0000
  H   H35       1.0  0.13564  0.43305  0.48898  1.0000
  H   H36       1.0  0.18741  0.46672  0.23003  1.0000
  H   H37       1.0  0.00791  0.38491  0.03444  1.0000
  C   C27       1.0  0.10297  0.44246  0.60531  1.0000
  C   C28       1.0  0.01065  0.37578  0.01706  1.0000
  Fe  Fe11      1.0  0.19856  0.48361  0.03368  1.0000
  H   H38       1.0  0.02684  0.39372  0.97839  1.0000
  H   H39       1.0  0.03336  0.36377  0.08787  1.0000
  C   C29       1.0  0.98427  0.40416  0.99685  1.0000
  H   H40       1.0  0.13492  0.44991  0.57271  1.0000
  H   H41       1.0  0.04395  0.36879  0.03197  1.0000
  H   H42       1.0  0.02838  0.40881  0.62816  1.0000
  H   H43       1.0  0.09585  0.42068  0.56734  1.0000
  C   C30       1.0  0.14368  0.47382  0.96275  1.0000
  C   C31       1.0  0.04728  0.38155  0.04593  1.0000
  H   H44       1.0  0.04629  0.38534  0.10378  1.0000
  H   H45       1.0  0.09295  0.41416  0.61261  1.0000
  C   C32       1.0  0.14003  0.46146  0.59106  1.0000
  C   C33       1.0  0.02816  0.38458  0.99802  1.0000
  H   H46       1.0  0.19657  0.47476  0.29353  1.0000
  H   H47       1.0  0.11055  0.47715  0.59412  1.0000
  H   H48       1.0  0.06254  0.37735  0.98493  1.0000
  C   C34       1.0  0.11205  0.46718  0.64781  1.0000
  C   C35       1.0  0.99386  0.39324  0.60901  1.0000
  H   H49       1.0  0.11990  0.47368  0.67216  1.0000
  S   S17       1.0  0.20588  0.47386  0.16423  1.0000
  S   S18       1.0  0.20580  0.46342  0.05888  1.0000
  H   H50       1.0  0.08945  0.44073  0.61066  1.0000
  C   C36       1.0  0.10171  0.42430  0.59462  1.0000
  H   H51       1.0  0.05595  0.42976  0.08057  1.0000
  H   H52       1.0  0.03179  0.40490  0.05832  1.0000
  C   C37       1.0  0.21345  0.47903  0.20970  1.0000
  N   N3        1.0  0.11490  0.45141  0.63680  1.0000
  H   H53       1.0  0.14249  0.46756  0.64734  1.0000
  C   C38       1.0  0.11682  0.48184  0.62063  1.0000
  C   C39       1.0  0.04307  0.40912  0.04058  1.0000
  H   H54       1.0  0.01907  0.38367  0.58196  1.0000
  C   C40       1.0  0.15011  0.47696  0.48454  1.0000
  H   H55       1.0  0.02472  0.40857  0.70601  1.0000
  H   H56       1.0  0.06142  0.38674  0.05354  1.0000
  H   H57       1.0  0.00983  0.36431  0.03211  1.0000
  H   H58       1.0  0.06998  0.42976  0.04584  1.0000
  H   H59       1.0  0.13278  0.45342  0.70181  1.0000
  C   C41       1.0  0.13479  0.47821  0.49573  1.0000
  C   C42       1.0  0.13394  0.45644  0.62954  1.0000
  C   C43       1.0  0.00226  0.40438  0.66981  1.0000
  H   H60       1.0  0.10675  0.45052  0.58130  1.0000
  C   C44       1.0  0.01045  0.40446  0.70691  1.0000
  H   H61       1.0  0.05274  0.38455  0.94891  1.0000
  H   H62       1.0  0.14796  0.45522  0.03950  1.0000
  C   C45       1.0  0.20112  0.47405  0.23697  1.0000
  H   H63       1.0  0.11465  0.42399  0.59464  1.0000
  H   H64       1.0  0.00143  0.37032  0.67742  1.0000
  S   S19       1.0  0.17547  0.48167  0.99687  1.0000
  H   H65       1.0  0.98165  0.41490  0.51171  1.0000
  H   H66       1.0  0.11296  0.45463  0.71640  1.0000
  H   H67       1.0  0.98634  0.34591  0.64305  1.0000
  H   H68       1.0  0.15149  0.48303  0.94331  1.0000
  H   H69       1.0  0.15450  0.46678  0.59060  1.0000
  H   H70       1.0  0.09811  0.46312  0.65485  1.0000
  H   H71       1.0  0.98774  0.47995  0.96883  1.0000
  H   H72       1.0  0.22696  0.42848  0.42610  1.0000
  C   C46       1.0  0.09722  0.48473  0.04113  1.0000
  H   H73       1.0  0.08972  0.47031  0.04249  1.0000
  C   C47       1.0  0.98515  0.35730  0.63122  1.0000
  H   H74       1.0  0.98148  0.37241  0.67369  1.0000
  C   C48       1.0  0.97956  0.37426  0.50055  1.0000
  C   C49       1.0  0.06947  0.64790  0.41874  1.0000
  C   C50       1.0  0.10579  0.51231  0.95808  1.0000
  S   S20       1.0  0.18178  0.71231  0.01172  1.0000
  H   H75       1.0  0.07288  0.61726  0.40857  1.0000
  H   H76       1.0  0.98623  0.50251  0.93255  1.0000
  S   S21       1.0  0.18679  0.70788  0.48841  1.0000
  H   H77       1.0  0.00281  0.57505  0.56129  1.0000
  C   C51       1.0  0.08924  0.57680  0.70965  1.0000
  H   H78       1.0  0.20578  0.66802  0.02753  1.0000
  Fe  Fe12      1.0  0.06496  0.61254  0.87694  1.0000
  S   S22       1.0  0.06440  0.62326  0.93259  1.0000
  S   S23       1.0  0.05316  0.61717  0.82537  1.0000
  Fe  Fe13      1.0  0.07707  0.58627  0.90377  1.0000
  S   S24       1.0  0.07747  0.59460  0.96065  1.0000
  S   S25       1.0  0.08297  0.56466  0.88081  1.0000
  Fe  Fe14      1.0  0.05142  0.59495  0.94864  1.0000
  S   S26       1.0  0.03079  0.58167  0.99146  1.0000
  Fe  Fe15      1.0  0.09065  0.62238  0.94172  1.0000
  S   S27       1.0  0.11461  0.63874  0.97892  1.0000
  S   S28       1.0  0.05038  0.58460  0.89295  1.0000
  S   S29       1.0  0.09178  0.61364  0.88489  1.0000
  Fe  Fe16      1.0  0.09509  0.62113  0.54358  1.0000
  S   S30       1.0  0.09965  0.61317  0.59795  1.0000
  S   S31       1.0  0.11709  0.63573  0.50373  1.0000
  Fe  Fe17      1.0  0.05446  0.59845  0.54826  1.0000
  S   S32       1.0  0.05668  0.58939  0.60383  1.0000
  S   S33       1.0  0.03076  0.58926  0.50822  1.0000
  Fe  Fe18      1.0  0.07637  0.61713  0.61561  1.0000
  S   S34       1.0  0.08302  0.63237  0.66863  1.0000
  Fe  Fe19      1.0  0.07988  0.58608  0.58351  1.0000
  S   S35       1.0  0.08717  0.56491  0.60283  1.0000
  S   S36       1.0  0.07269  0.62692  0.56156  1.0000
  S   S37       1.0  0.07677  0.59328  0.52754  1.0000
  C   C52       1.0  0.19226  0.51739  0.18447  1.0000
  S   S38       1.0  0.20682  0.50136  0.08244  1.0000
  H   H79       1.0  0.05444  0.63943  0.36901  1.0000
  C   C53       1.0  0.99678  0.57203  0.53495  1.0000
  H   H80       1.0  0.00275  0.58287  0.94496  1.0000
  H   H81       1.0  0.11075  0.67538  0.48451  1.0000
  H   H82       1.0  0.08394  0.51128  0.01907  1.0000
  H   H83       1.0  0.06647  0.60020  0.44011  1.0000
  C   C54       1.0  0.00732  0.57733  0.50508  1.0000
  C   C55       1.0  0.99900  0.57324  0.47111  1.0000
  H   H84       1.0  0.00687  0.57724  0.44768  1.0000
  C   C56       1.0  0.06207  0.61954  0.78219  1.0000
  C   C57       1.0  0.05077  0.61236  0.75241  1.0000
  C   C58       1.0  0.05712  0.61534  0.71748  1.0000
  C   C59       1.0  0.07479  0.62597  0.71190  1.0000
  C   C60       1.0  0.08611  0.63301  0.74169  1.0000
  C   C61       1.0  0.07986  0.62959  0.77663  1.0000
  H   H85       1.0  0.03695  0.60481  0.75639  1.0000
  H   H86       1.0  0.04819  0.61016  0.69487  1.0000
  H   H87       1.0  0.09974  0.64148  0.73769  1.0000
  H   H88       1.0  0.08865  0.63545  0.79920  1.0000
  C   C62       1.0  0.00752  0.57355  0.99508  1.0000
  C   C63       1.0  0.99943  0.56426  0.02557  1.0000
  H   H89       1.0  0.00740  0.56254  0.04654  1.0000
  H   H90       1.0  0.03705  0.62541  0.49799  1.0000
  C   C64       1.0  0.06279  0.51547  0.94692  1.0000
  C   C65       1.0  0.06630  0.53170  0.96294  1.0000
  C   C66       1.0  0.07263  0.54685  0.94281  1.0000
  C   C67       1.0  0.07594  0.54593  0.90675  1.0000
  C   C68       1.0  0.07311  0.52979  0.89098  1.0000
  C   C69       1.0  0.06638  0.51452  0.91098  1.0000
  H   H91       1.0  0.06384  0.53252  0.99091  1.0000
  H   H92       1.0  0.07498  0.55926  0.95522  1.0000
  H   H93       1.0  0.07567  0.52904  0.86305  1.0000
  H   H94       1.0  0.06378  0.50203  0.89849  1.0000
  C   C70       1.0  0.03958  0.63720  0.48228  1.0000
  C   C71       1.0  0.05068  0.50829  0.57291  1.0000
  C   C72       1.0  0.04673  0.52187  0.56125  1.0000
  C   C73       1.0  0.05772  0.53932  0.57074  1.0000
  C   C74       1.0  0.07264  0.54321  0.59208  1.0000
  C   C75       1.0  0.07637  0.52962  0.60441  1.0000
  C   C76       1.0  0.06545  0.51217  0.59475  1.0000
  H   H95       1.0  0.03527  0.51890  0.54446  1.0000
  H   H96       1.0  0.05475  0.54976  0.56124  1.0000
  H   H97       1.0  0.08784  0.53261  0.62119  1.0000
  H   H98       1.0  0.06843  0.50176  0.60420  1.0000
  C   C77       1.0  0.13635  0.65599  0.50019  1.0000
  C   C78       1.0  0.14663  0.65876  0.46971  1.0000
  C   C79       1.0  0.16196  0.67444  0.46550  1.0000
  C   C80       1.0  0.16728  0.68779  0.49167  1.0000
  C   C81       1.0  0.15695  0.68504  0.52208  1.0000
  C   C82       1.0  0.14169  0.66930  0.52642  1.0000
  H   H99       1.0  0.14272  0.64866  0.44911  1.0000
  H   H100      1.0  0.16960  0.67624  0.44187  1.0000
  H   H101      1.0  0.16082  0.69519  0.54258  1.0000
  H   H102      1.0  0.13404  0.66753  0.55003  1.0000
  H   H103      1.0  0.08680  0.61871  0.44710  1.0000
  H   H104      1.0  0.07331  0.66219  0.41783  1.0000
  C   C83       1.0  0.13303  0.65944  0.98780  1.0000
  C   C84       1.0  0.14573  0.66053  0.01374  1.0000
  C   C85       1.0  0.16061  0.67645  0.02151  1.0000
  C   C86       1.0  0.16302  0.69172  0.00376  1.0000
  C   C87       1.0  0.15017  0.69069  0.97827  1.0000
  C   C88       1.0  0.13540  0.67472  0.97017  1.0000
  H   H105      1.0  0.14410  0.64892  0.02783  1.0000
  H   H106      1.0  0.17015  0.67691  0.04147  1.0000
  H   H107      1.0  0.15174  0.70234  0.96436  1.0000
  H   H108      1.0  0.12584  0.67428  0.95027  1.0000
  H   H109      1.0  0.00840  0.49405  0.98850  1.0000
  H   H110      1.0  0.16305  0.66322  0.94585  1.0000
  H   H111      1.0  0.10467  0.59580  0.67109  1.0000
  H   H112      1.0  0.09502  0.60465  0.70285  1.0000
  H   H113      1.0  0.98634  0.52346  0.45151  1.0000
  H   H114      1.0  0.13477  0.49092  0.49741  1.0000
  H   H115      1.0  0.04419  0.62533  0.40365  1.0000
  H   H116      1.0  0.10156  0.57989  0.72513  1.0000
  C   C89       1.0  0.99229  0.52605  0.51970  1.0000
  H   H117      1.0  0.09164  0.52865  0.45769  1.0000
  H   H118      1.0  0.03684  0.54165  0.96732  1.0000
  C   C90       1.0  0.05796  0.57092  0.71486  1.0000
  H   H119      1.0  0.16153  0.48860  0.47777  1.0000
  H   H120      1.0  0.13961  0.52318  0.98292  1.0000
  C   C91       1.0  0.02064  0.53130  0.01178  1.0000
  C   C92       1.0  0.22249  0.70890  0.91048  1.0000
  C   C93       1.0  0.07889  0.58510  0.76401  1.0000
  C   C94       1.0  0.18675  0.68520  0.92628  1.0000
  C   C95       1.0  0.05188  0.63929  0.39794  1.0000
  C   C96       1.0  0.99689  0.57576  0.96856  1.0000
  H   H121      1.0  0.21618  0.52497  0.25328  1.0000
  H   H122      1.0  0.09190  0.58776  0.77606  1.0000
  H   H123      1.0  0.13118  0.48899  0.02163  1.0000
  H   H124      1.0  0.12326  0.53454  0.01551  1.0000
  H   H125      1.0  0.13883  0.51033  0.04388  1.0000
  C   C97       1.0  0.08098  0.50016  0.50465  1.0000
  H   H126      1.0  0.98895  0.50946  0.97764  1.0000
  H   H127      1.0  0.08764  0.65303  0.97625  1.0000
  H   H128      1.0  0.04384  0.64653  0.40273  1.0000
  C   C98       1.0  0.08422  0.55241  0.77196  1.0000
  C   C99       1.0  0.11639  0.53069  0.94336  1.0000
  H   H129      1.0  0.07967  0.53870  0.78059  1.0000
  C   C100      1.0  0.10292  0.50453  0.46015  1.0000
  H   H130      1.0  0.05312  0.58024  0.78586  1.0000
  H   H131      1.0  0.21461  0.54674  0.14609  1.0000
  H   H132      1.0  0.07938  0.53148  0.51762  1.0000
  S   S39       1.0  0.21584  0.70683  0.40484  1.0000
  H   H133      1.0  0.04236  0.54475  0.69097  1.0000
  H   H134      1.0  0.08952  0.49061  0.05502  1.0000
  H   H135      1.0  0.18179  0.67252  0.54956  1.0000
  H   H136      1.0  0.99599  0.53119  0.54746  1.0000
  H   H137      1.0  0.13119  0.48901  0.61831  1.0000
  H   H138      1.0  0.07727  0.50501  0.52919  1.0000
  H   H139      1.0  0.08790  0.56581  0.69134  1.0000
  H   H140      1.0  0.18961  0.65282  0.92430  1.0000
  C   C101      1.0  0.06984  0.55374  0.74813  1.0000
  H   H141      1.0  0.18997  0.69146  0.90008  1.0000
  C   C102      1.0  0.09272  0.59281  0.68661  1.0000
  H   H142      1.0  0.09816  0.50044  0.56708  1.0000
  H   H143      1.0  0.15925  0.67531  0.91123  1.0000
  H   H144      1.0  0.11648  0.54119  0.96141  1.0000
  H   H145      1.0  0.06471  0.50799  0.46871  1.0000
  S   S40       1.0  0.20349  0.50016  0.41500  1.0000
  H   H146      1.0  0.09979  0.66096  0.01714  1.0000
  H   H147      1.0  0.03205  0.53417  0.02999  1.0000
  H   H148      1.0  0.12305  0.50668  0.42291  1.0000
  H   H149      1.0  0.06184  0.55727  0.66690  1.0000
  H   H150      1.0  0.17088  0.63280  0.55228  1.0000
  H   H151      1.0  0.09040  0.67617  0.49185  1.0000
  H   H152      1.0  0.12439  0.52750  0.51826  1.0000
  H   H153      1.0  0.19718  0.63760  0.52225  1.0000
  H   H154      1.0  0.21479  0.71666  0.91273  1.0000
  H   H155      1.0  0.04014  0.54779  0.91146  1.0000
  H   H156      1.0  0.11692  0.51829  0.04784  1.0000
  H   H157      1.0  0.99744  0.53764  0.50250  1.0000
  Fe  Fe20      1.0  0.21098  0.72029  0.45238  1.0000
  H   H158      1.0  0.20139  0.64309  0.56835  1.0000
  H   H159      1.0  0.03294  0.63319  0.45596  1.0000
  H   H160      1.0  0.22033  0.70403  0.96574  1.0000
  H   H161      1.0  0.20405  0.69754  0.56564  1.0000
  H   H162      1.0  0.21968  0.69512  0.28377  1.0000
  H   H163      1.0  0.11216  0.49150  0.63037  1.0000
  C   C103      1.0  0.22441  0.65068  0.53821  1.0000
  H   H164      1.0  0.09210  0.51061  0.95964  1.0000
  H   H165      1.0  0.10532  0.50264  0.93710  1.0000
  H   H166      1.0  0.11727  0.50456  0.51852  1.0000
  H   H167      1.0  0.10107  0.49094  0.46555  1.0000
  N   N4        1.0  0.20201  0.66431  0.53588  1.0000
  H   H168      1.0  0.09857  0.67723  0.44707  1.0000
  N   N5        1.0  0.06910  0.63917  0.04844  1.0000
  C   C104      1.0  0.05210  0.63447  0.06716  1.0000
  C   C105      1.0  0.08379  0.64609  0.07598  1.0000
  C   C106      1.0  0.06937  0.62345  0.02978  1.0000
  C   C107      1.0  0.07098  0.65261  0.02095  1.0000
  C   C108      1.0  0.03524  0.62452  0.04444  1.0000
  C   C109      1.0  0.08819  0.66450  0.09155  1.0000
  C   C110      1.0  0.06676  0.60794  0.05373  1.0000
  C   C111      1.0  0.21417  0.72993  0.24656  1.0000
  H   H169      1.0  0.05122  0.62644  0.09087  1.0000
  H   H170      1.0  0.05134  0.64642  0.07786  1.0000
  H   H171      1.0  0.09603  0.64615  0.06546  1.0000
  H   H172      1.0  0.08075  0.63725  0.09904  1.0000
  C   C112      1.0  0.21055  0.51771  0.18313  1.0000
  H   H173      1.0  0.08200  0.62706  0.01634  1.0000
  C   C113      1.0  0.20995  0.67062  0.99950  1.0000
  H   H174      1.0  0.06852  0.66354  0.03232  1.0000
  H   H175      1.0  0.03358  0.61128  0.03623  1.0000
  H   H176      1.0  0.21344  0.70058  0.52193  1.0000
  H   H177      1.0  0.00764  0.51391  0.89100  1.0000
  H   H178      1.0  0.09840  0.66768  0.11289  1.0000
  C   C114      1.0  0.08849  0.66046  0.00131  1.0000
  H   H179      1.0  0.09366  0.67470  0.07128  1.0000
  Fe  Fe21      1.0  0.22567  0.51403  0.45473  1.0000
  H   H180      1.0  0.09380  0.50333  0.43757  1.0000
  H   H181      1.0  0.05403  0.60278  0.06709  1.0000
  C   C115      1.0  0.98058  0.56409  0.46699  1.0000
  H   H182      1.0  0.20041  0.72554  0.25145  1.0000
  S   S41       1.0  0.22365  0.71059  0.06498  1.0000
  N   N6        1.0  0.06984  0.64247  0.45664  1.0000
  C   C116      1.0  0.08858  0.65092  0.47018  1.0000
  C   C117      1.0  0.06350  0.62296  0.45961  1.0000
  C   C118      1.0  0.05938  0.64887  0.48021  1.0000
  C   C119      1.0  0.09726  0.67108  0.47333  1.0000
  C   C120      1.0  0.07316  0.61461  0.43729  1.0000
  H   H183      1.0  0.08966  0.64608  0.49707  1.0000
  H   H184      1.0  0.09716  0.64743  0.45281  1.0000
  H   H185      1.0  0.04945  0.61566  0.45237  1.0000
  H   H186      1.0  0.06441  0.61956  0.48777  1.0000
  H   H187      1.0  0.06435  0.65053  0.50835  1.0000
  H   H188      1.0  0.06094  0.66205  0.47218  1.0000
  H   H189      1.0  0.03335  0.64451  0.49665  1.0000
  H   H190      1.0  0.07961  0.64625  0.40267  1.0000
  H   H191      1.0  0.99576  0.53360  0.88628  1.0000
  Fe  Fe22      1.0  0.20968  0.72479  0.03790  1.0000
  C   C121      1.0  0.20535  0.64834  0.54126  1.0000
  H   H192      1.0  0.16485  0.64400  0.51759  1.0000
  H   H193      1.0  0.99975  0.53979  0.96768  1.0000
  H   H194      1.0  0.08198  0.59024  0.66688  1.0000
  H   H195      1.0  0.08039  0.59784  0.75358  1.0000
  C   C122      1.0  0.19647  0.67491  0.97858  1.0000
  H   H196      1.0  0.22584  0.53549  0.12700  1.0000
  H   H197      1.0  0.09461  0.52642  0.05478  1.0000
  H   H198      1.0  0.22670  0.57860  0.77444  1.0000
  C   C123      1.0  0.00559  0.53817  0.94242  1.0000
  H   H199      1.0  0.21850  0.67420  0.87410  1.0000
  C   C124      1.0  0.21845  0.69592  0.94107  1.0000
  H   H200      1.0  0.18777  0.66206  0.58449  1.0000
  C   C125      1.0  0.01854  0.52069  0.91066  1.0000
  C   C126      1.0  0.18557  0.66172  0.55509  1.0000
  H   H201      1.0  0.11000  0.53179  0.91801  1.0000
  C   C127      1.0  0.22275  0.53940  0.25244  1.0000
  H   H202      1.0  0.21142  0.50937  0.20480  1.0000
  N   N7        1.0  0.01147  0.52378  0.94537  1.0000
  C   C128      1.0  0.16841  0.66998  0.92089  1.0000
  C   C129      1.0  0.03181  0.53723  0.89264  1.0000
  H   H203      1.0  0.10168  0.54349  0.53447  1.0000
  H   H204      1.0  0.21231  0.66240  0.93034  1.0000
  C   C130      1.0  0.13013  0.50948  0.98771  1.0000
  H   H205      1.0  0.04075  0.53366  0.87664  1.0000
  C   C131      1.0  0.16914  0.64468  0.54581  1.0000
  C   C132      1.0  0.10722  0.51399  0.56045  1.0000
  H   H206      1.0  0.22683  0.68051  0.48384  1.0000
  H   H207      1.0  0.09178  0.67423  0.99465  1.0000
  C   C133      1.0  0.11259  0.51494  0.52125  1.0000
  Fe  Fe23      1.0  0.22208  0.49186  0.38595  1.0000
  H   H208      1.0  0.21600  0.67810  0.31627  1.0000
  S   S42       1.0  0.05396  0.49671  0.97270  1.0000
  C   C134      1.0  0.21978  0.73056  0.21108  1.0000
  C   C135      1.0  0.99603  0.50716  0.95492  1.0000
  C   C136      1.0  0.05126  0.55809  0.68252  1.0000
  H   H209      1.0  0.06725  0.54413  0.72569  1.0000
  H   H210      1.0  0.18381  0.66315  0.98016  1.0000
  H   H211      1.0  0.02522  0.54225  0.87312  1.0000
  H   H212      1.0  0.13025  0.50177  0.96348  1.0000
  H   H213      1.0  0.09592  0.53452  0.01116  1.0000
  H   H214      1.0  0.11304  0.53945  0.47637  1.0000
  H   H215      1.0  0.09354  0.55159  0.49885  1.0000
  C   C137      1.0  0.09311  0.53941  0.51035  1.0000
  N   N8        1.0  0.07397  0.57161  0.73416  1.0000
  H   H216      1.0  0.09646  0.55575  0.75740  1.0000
  H   H217      1.0  0.10116  0.52279  0.56718  1.0000
  H   H218      1.0  0.15181  0.50596  0.01184  1.0000
  H   H219      1.0  0.07133  0.59169  0.81501  1.0000
  C   C138      1.0  0.06593  0.58090  0.79474  1.0000
  C   C139      1.0  0.09945  0.48979  0.00158  1.0000
  H   H220      1.0  0.18560  0.69529  0.94405  1.0000
  H   H221      1.0  0.05754  0.54867  0.76329  1.0000
  H   H222      1.0  0.11900  0.51774  0.57801  1.0000
  H   H223      1.0  0.12357  0.52732  0.43504  1.0000
  C   C140      1.0  0.09949  0.53006  0.48258  1.0000
  H   H224      1.0  0.08700  0.56064  0.79658  1.0000
  H   H225      1.0  0.04409  0.56278  0.66360  1.0000
  C   C141      1.0  0.02579  0.52900  0.97355  1.0000
  H   H226      1.0  0.06406  0.56882  0.80864  1.0000
  N   N9        1.0  0.09886  0.51264  0.49275  1.0000
  H   H227      1.0  0.06673  0.59705  0.03686  1.0000
  H   H228      1.0  0.04678  0.56688  0.73310  1.0000
  C   C142      1.0  0.11290  0.52141  0.02161  1.0000
  C   C143      1.0  0.13817  0.50331  0.01841  1.0000
  H   H229      1.0  0.18836  0.65437  0.48541  1.0000
  H   H230      1.0  0.22458  0.63764  0.53830  1.0000
  H   H231      1.0  0.19865  0.65448  0.86610  1.0000
  C   C144      1.0  0.22636  0.54424  0.14985  1.0000
  H   H232      1.0  0.01741  0.54261  0.01419  1.0000
  H   H233      1.0  0.05967  0.58408  0.70645  1.0000
  H   H234      1.0  0.99887  0.51750  0.51399  1.0000
  H   H235      1.0  0.21579  0.65870  0.46400  1.0000
  C   C145      1.0  0.20143  0.66522  0.91999  1.0000
  H   H236      1.0  0.19756  0.67471  0.86711  1.0000
  H   H237      1.0  0.06071  0.64688  0.99964  1.0000
  H   H238      1.0  0.16825  0.66036  0.90041  1.0000
  C   C146      1.0  0.22613  0.73481  0.27574  1.0000
  H   H239      1.0  0.15813  0.64440  0.56188  1.0000
  S   S43       1.0  0.21811  0.73345  0.32008  1.0000
  C   C147      1.0  0.21443  0.67068  0.47225  1.0000
  H   H240      1.0  0.22912  0.69157  0.94190  1.0000
  C   C148      1.0  0.19898  0.66649  0.49698  1.0000
  H   H241      1.0  0.02510  0.51189  0.91442  1.0000
  H   H242      1.0  0.03146  0.51936  0.97436  1.0000
  H   H243      1.0  0.00653  0.48797  0.94173  1.0000
  H   H244      1.0  0.21068  0.51048  0.15833  1.0000
  C   C149      1.0  0.20433  0.66754  0.87967  1.0000
  H   H245      1.0  0.01687  0.55104  0.93837  1.0000
  H   H246      1.0  0.18994  0.52490  0.16277  1.0000
  H   H247      1.0  0.13189  0.51610  0.46546  1.0000
  C   C150      1.0  0.12147  0.51443  0.44553  1.0000
  C   C151      1.0  0.06577  0.49607  0.47752  1.0000
  H   H248      1.0  0.07758  0.61134  0.07365  1.0000
  C   C152      1.0  0.21678  0.68025  0.55249  1.0000
  H   H249      1.0  0.03451  0.63177  0.02065  1.0000
  H   H250      1.0  0.00975  0.51941  0.02152  1.0000
  H   H251      1.0  0.02377  0.62262  0.06073  1.0000
  H   H252      1.0  0.12991  0.53302  0.93695  1.0000
  C   C153      1.0  0.21498  0.69752  0.54988  1.0000
  H   H253      1.0  0.18233  0.50362  0.18088  1.0000
  H   H254      1.0  0.22317  0.68164  0.00050  1.0000
  H   H255      1.0  0.19394  0.67647  0.49298  1.0000
  N   N10       1.0  0.11207  0.50833  0.99323  1.0000
  N   N11       1.0  0.20080  0.68033  0.94051  1.0000
  C   C154      1.0  0.09575  0.52331  0.02639  1.0000
  H   H256      1.0  0.21225  0.69663  0.32683  1.0000
  H   H257      1.0  0.18993  0.52209  0.21068  1.0000
  H   H258      1.0  0.21844  0.67812  0.58124  1.0000
  H   H259      1.0  0.05928  0.61849  0.00803  1.0000
  H   H260      1.0  0.07671  0.66527  0.10368  1.0000
  H   H261      1.0  0.98929  0.54745  0.91235  1.0000
  S   S44       1.0  0.21906  0.49103  0.49008  1.0000
  H   H262      1.0  0.19492  0.68544  0.99415  1.0000
  H   H263      1.0  0.21290  0.57236  0.81173  1.0000
  H   H264      1.0  0.10966  0.48829  0.05602  1.0000
  H   H265      1.0  0.21034  0.72663  0.18918  1.0000
  C   C155      1.0  0.99164  0.53552  0.91315  1.0000
  H   H266      1.0  0.21284  0.55005  0.20950  1.0000
  H   H267      1.0  0.21227  0.67687  0.44801  1.0000
  C   C156      1.0  0.22101  0.69231  0.31212  1.0000
  C   C157      1.0  0.22655  0.57619  0.80338  1.0000
  Fe  Fe24      1.0  0.22721  0.73308  0.37851  1.0000
  H   H268      1.0  0.21065  0.65868  0.98887  1.0000
  C   C158      1.0  0.98108  0.55714  0.02937  1.0000
  H   H269      1.0  0.22039  0.70253  0.88386  1.0000
  H   H270      1.0  0.98424  0.49577  0.47177  1.0000
  H   H271      1.0  0.08596  0.48666  0.99151  1.0000
  S   S45       1.0  0.22520  0.49732  0.00951  1.0000
  C   C159      1.0  0.00016  0.49157  0.96394  1.0000
  H   H272      1.0  0.06658  0.48825  0.45430  1.0000
  H   H273      1.0  0.21478  0.54400  0.26909  1.0000
  H   H274      1.0  0.08099  0.48748  0.51191  1.0000
  C   C160      1.0  0.22401  0.54669  0.21453  1.0000
  H   H275      1.0  0.22711  0.70839  0.56073  1.0000
  N   N12       1.0  0.22583  0.53552  0.18481  1.0000
  S   S46       1.0  0.03711  0.48670  0.55900  1.0000
  H   H276      1.0  0.05329  0.48792  0.49045  1.0000
  C   C161      1.0  0.22394  0.48830  0.28268  1.0000
  H   H277      1.0  0.22952  0.68275  0.54077  1.0000
  H   H278      1.0  0.22946  0.56488  0.80873  1.0000
  S   S47       1.0  0.22148  0.74850  0.07578  1.0000
  S   S48       1.0  0.22079  0.74656  0.42528  1.0000
  H   H279      1.0  0.22478  0.78082  0.16997  1.0000
  Fe  Fe25      1.0  0.46186  0.05960  0.46010  1.0000
  S   S49       1.0  0.43780  0.05799  0.48749  1.0000
  Fe  Fe26      1.0  0.44864  0.06378  0.38595  1.0000
  S   S50       1.0  0.42357  0.06204  0.40840  1.0000
  S   S51       1.0  0.45860  0.06756  0.32892  1.0000
  Fe  Fe27      1.0  0.44064  0.08064  0.45235  1.0000
  S   S52       1.0  0.43652  0.10547  0.46580  1.0000
  Fe  Fe28      1.0  0.42321  0.03966  0.44169  1.0000
  S   S53       1.0  0.40062  0.01176  0.43968  1.0000
  S   S54       1.0  0.46563  0.08303  0.42805  1.0000
  S   S55       1.0  0.44735  0.04063  0.41615  1.0000
  Fe  Fe29      1.0  0.46650  0.06043  0.08926  1.0000
  S   S56       1.0  0.45817  0.06309  0.03367  1.0000
  Fe  Fe30      1.0  0.43604  0.06392  0.12226  1.0000
  S   S57       1.0  0.42480  0.06642  0.06830  1.0000
  S   S58       1.0  0.42315  0.06418  0.17538  1.0000
  Fe  Fe31      1.0  0.43113  0.04418  0.04938  1.0000
  S   S59       1.0  0.41562  0.02299  0.00620  1.0000
  Fe  Fe32      1.0  0.45253  0.08520  0.05566  1.0000
  S   S60       1.0  0.46180  0.10994  0.02056  1.0000
  S   S61       1.0  0.43992  0.04045  0.10403  1.0000
  S   S62       1.0  0.46326  0.08378  0.11058  1.0000
  H   H280      1.0  0.42831  0.16923  0.61896  1.0000
  C   C162      1.0  0.44849  0.10658  0.36670  1.0000
  C   C163      1.0  0.39413  0.99403  0.47021  1.0000
  S   S63       1.0  0.46033  0.21696  0.91491  1.0000
  C   C164      1.0  0.38742  0.03411  0.33969  1.0000
  S   S64       1.0  0.46495  0.22052  0.56484  1.0000
  C   C165      1.0  0.46151  0.13090  0.01415  1.0000
  H   H281      1.0  0.46533  0.12173  0.26817  1.0000
  H   H282      1.0  0.42781  0.02761  0.26549  1.0000
  H   H283      1.0  0.44311  0.13623  0.37191  1.0000
  H   H284      1.0  0.47083  0.12035  0.42811  1.0000
  H   H285      1.0  0.43164  0.01018  0.30736  1.0000
  C   C166      1.0  0.43761  0.16694  0.69675  1.0000
  H   H286      1.0  0.44961  0.13077  0.31349  1.0000
  H   H287      1.0  0.43838  0.21481  0.07875  1.0000
  H   H288      1.0  0.38278  0.03717  0.31404  1.0000
  C   C167      1.0  0.41013  0.07345  0.91711  1.0000
  C   C168      1.0  0.40612  0.99951  0.00195  1.0000
  H   H289      1.0  0.41706  0.04866  0.94935  1.0000
  H   H290      1.0  0.42146  0.08475  0.90624  1.0000
  H   H291      1.0  0.39171  0.08588  0.91906  1.0000
  C   C169      1.0  0.44953  0.12701  0.48448  1.0000
  H   H292      1.0  0.44765  0.06031  0.94773  1.0000
  C   C170      1.0  0.43758  0.20840  0.05233  1.0000
  H   H293      1.0  0.45252  0.10367  0.29457  1.0000
  C   C171      1.0  0.45228  0.15664  0.49884  1.0000
  C   C172      1.0  0.44255  0.13943  0.48489  1.0000
  H   H294      1.0  0.44659  0.16587  0.49897  1.0000
  H   H295      1.0  0.42945  0.13571  0.47435  1.0000
  C   C173      1.0  0.44831  0.06654  0.28671  1.0000
  C   C174      1.0  0.45725  0.06616  0.25574  1.0000
  C   C175      1.0  0.44975  0.06545  0.22160  1.0000
  C   C176      1.0  0.43321  0.06524  0.21793  1.0000
  C   C177      1.0  0.42431  0.06577  0.24895  1.0000
  C   C178      1.0  0.43179  0.06640  0.28315  1.0000
  C   C179      1.0  0.41438  0.01846  0.25658  1.0000
  H   H296      1.0  0.45678  0.06508  0.19806  1.0000
  H   H297      1.0  0.41156  0.06571  0.24641  1.0000
  H   H298      1.0  0.42483  0.06692  0.30664  1.0000
  H   H299      1.0  0.42868  0.17042  0.68047  1.0000
  H   H300      1.0  0.47217  0.12291  0.49851  1.0000
  H   H301      1.0  0.42256  0.19081  0.99149  1.0000
  H   H302      1.0  0.40736  0.00956  0.51656  1.0000
  C   C180      1.0  0.47624  0.14938  0.51236  1.0000
  H   H303      1.0  0.40075  0.04418  0.34629  1.0000
  H   H304      1.0  0.46394  0.17092  0.70348  1.0000
  H   H305      1.0  0.40315  0.03339  0.28215  1.0000
  C   C181      1.0  0.43839  0.18278  0.61718  1.0000
  C   C182      1.0  0.39342  0.07518  0.90513  1.0000
  H   H306      1.0  0.44399  0.12914  0.05621  1.0000
  N   N13       1.0  0.41287  0.07208  0.95659  1.0000
  H   H307      1.0  0.38153  0.06284  0.90841  1.0000
  H   H308      1.0  0.42826  0.10436  0.32598  1.0000
  C   C183      1.0  0.45727  0.18478  0.62183  1.0000
  H   H309      1.0  0.46930  0.16219  0.35421  1.0000
  C   C184      1.0  0.43252  0.01741  0.33251  1.0000
  C   C185      1.0  0.43502  0.23280  0.02378  1.0000
  C   C186      1.0  0.44968  0.15361  0.63555  1.0000
  N   N14       1.0  0.46136  0.12520  0.36066  1.0000
  C   C187      1.0  0.47132  0.14160  0.98661  1.0000
  S   S65       1.0  0.46058  0.18487  0.99333  1.0000
  C   C188      1.0  0.45162  0.13705  0.03492  1.0000
  H   H310      1.0  0.40973  0.06180  0.90221  1.0000
  C   C189      1.0  0.41437  0.10266  0.97230  1.0000
  H   H311      1.0  0.44697  0.99969  0.52320  1.0000
  C   C190      1.0  0.41807  0.20864  0.95867  1.0000
  N   N15       1.0  0.40055  0.01300  0.31902  1.0000
  C   C191      1.0  0.47849  0.22951  0.71368  1.0000
  C   C192      1.0  0.47215  0.22802  0.77768  1.0000
  H   H312      1.0  0.44174  0.20987  0.98298  1.0000
  H   H313      1.0  0.40829  0.99448  0.05730  1.0000
  C   C193      1.0  0.46146  0.16422  0.00073  1.0000
  H   H314      1.0  0.42571  0.08859  0.00249  1.0000
  H   H315      1.0  0.47253  0.14254  0.31686  1.0000
  C   C194      1.0  0.40809  0.20580  0.03828  1.0000
  H   H316      1.0  0.38713  0.06907  0.97222  1.0000
  H   H317      1.0  0.37317  0.00660  0.32758  1.0000
  C   C195      1.0  0.40065  0.01942  0.28173  1.0000
  H   H318      1.0  0.40170  0.99959  0.94529  1.0000
  H   H319      1.0  0.42236  0.11437  0.98917  1.0000
  C   C196      1.0  0.42783  0.20526  0.99041  1.0000
  H   H320      1.0  0.38536  0.04058  0.93645  1.0000
  C   C197      1.0  0.38549  0.04318  0.96545  1.0000
  H   H321      1.0  0.43356  0.00971  0.35535  1.0000
  C   C198      1.0  0.45671  0.17569  0.68471  1.0000
  H   H322      1.0  0.45133  0.21324  0.04339  1.0000
  H   H323      1.0  0.44525  0.02915  0.33239  1.0000
  C   C199      1.0  0.45213  0.14871  0.59700  1.0000
  C   C200      1.0  0.46855  0.15686  0.38121  1.0000
  H   H324      1.0  0.40436  0.99205  0.37266  1.0000
  H   H325      1.0  0.44237  0.07408  0.91893  1.0000
  C   C201      1.0  0.46168  0.12952  0.32180  1.0000
  H   H326      1.0  0.43712  0.17154  0.72438  1.0000
  H   H327      1.0  0.40120  0.19158  0.03130  1.0000
  H   H328      1.0  0.46162  0.18998  0.69060  1.0000
  H   H329      1.0  0.46581  0.15113  0.59186  1.0000
  H   H330      1.0  0.39083  0.03505  0.97957  1.0000
  C   C202      1.0  0.46733  0.22874  0.74168  1.0000
  H   H331      1.0  0.41458  0.10749  0.94498  1.0000
  H   H332      1.0  0.43582  0.09698  0.96152  1.0000
  C   C203      1.0  0.44223  0.07014  0.94694  1.0000
  C   C204      1.0  0.38634  0.01545  0.33884  1.0000
  H   H333      1.0  0.42501  0.05982  0.99077  1.0000
  C   C205      1.0  0.42290  0.08991  0.97387  1.0000
  C   C206      1.0  0.45596  0.13726  0.38181  1.0000
  C   C207      1.0  0.39602  0.06268  0.97588  1.0000
  C   C208      1.0  0.40020  0.99148  0.96808  1.0000
  H   H334      1.0  0.43655  0.18674  0.58995  1.0000
  H   H335      1.0  0.42248  0.22272  0.95356  1.0000
  C   C209      1.0  0.39900  0.99655  0.50640  1.0000
  H   H336      1.0  0.47007  0.06637  0.25808  1.0000
  Fe  Fe33      1.0  0.47417  0.20988  0.95996  1.0000
  H   H337      1.0  0.43126  0.18092  0.03648  1.0000
  H   H338      1.0  0.45481  0.22871  0.73549  1.0000
  H   H339      1.0  0.43267  0.15252  0.69764  1.0000
  H   H340      1.0  0.39551  0.22358  0.04512  1.0000
  H   H341      1.0  0.39417  0.07801  0.87627  1.0000
  C   C210      1.0  0.42364  0.06195  0.96195  1.0000
  C   C211      1.0  0.46403  0.11655  0.29550  1.0000
  H   H342      1.0  0.37176  0.03868  0.97387  1.0000
  H   H343      1.0  0.43548  0.14951  0.63816  1.0000
  H   H344      1.0  0.39861  0.06333  0.00520  1.0000
  H   H345      1.0  0.43999  0.18722  0.08023  1.0000
  H   H346      1.0  0.45274  0.14493  0.65364  1.0000
  H   H347      1.0  0.40064  0.22166  0.99929  1.0000
  C   C212      1.0  0.46652  0.13219  0.49834  1.0000
  H   H348      1.0  0.43585  0.19137  0.63667  1.0000
  H   H349      1.0  0.37869  0.03504  0.36055  1.0000
  H   H350      1.0  0.44794  0.10355  0.39537  1.0000
  C   C213      1.0  0.45155  0.15346  0.02813  1.0000
  H   H351      1.0  0.44772  0.15571  0.57736  1.0000
  C   C214      1.0  0.39558  0.99364  0.31737  1.0000
  H   H352      1.0  0.40373  0.20202  0.96172  1.0000
  H   H353      1.0  0.45273  0.09720  0.35381  1.0000
  H   H354      1.0  0.46349  0.16415  0.39897  1.0000
  C   C215      1.0  0.42945  0.10166  0.35438  1.0000
  H   H355      1.0  0.38629  0.01183  0.36722  1.0000
  H   H356      1.0  0.40799  0.20675  0.06789  1.0000
  H   H357      1.0  0.47905  0.13715  0.97025  1.0000
  H   H358      1.0  0.41238  0.02291  0.22988  1.0000
  C   C216      1.0  0.41780  0.02335  0.33837  1.0000
  H   H359      1.0  0.47595  0.11470  0.30160  1.0000
  C   C217      1.0  0.39657  0.21460  0.02442  1.0000
  H   H360      1.0  0.42164  0.08741  0.35740  1.0000
  H   H361      1.0  0.40104  0.09722  0.98297  1.0000
  N   N16       1.0  0.42670  0.21313  0.02602  1.0000
  H   H362      1.0  0.44397  0.13452  0.59203  1.0000
  H   H363      1.0  0.45122  0.08144  0.96363  1.0000
  H   H364      1.0  0.42332  0.10822  0.37130  1.0000
  H   H365      1.0  0.41779  0.18311  0.07137  1.0000
  N   N17       1.0  0.46032  0.17249  0.64662  1.0000
  C   C218      1.0  0.47139  0.15810  0.98005  1.0000
  H   H366      1.0  0.38303  0.20440  0.01955  1.0000
  C   C219      1.0  0.43103  0.18876  0.06010  1.0000
  C   C220      1.0  0.46925  0.16179  0.51285  1.0000
  H   H367      1.0  0.45384  0.13341  0.41011  1.0000
  H   H368      1.0  0.42086  0.20285  0.93421  1.0000
  H   H369      1.0  0.41584  0.02293  0.36764  1.0000
  H   H370      1.0  0.44380  0.15788  0.04448  1.0000
  H   H371      1.0  0.42304  0.03739  0.33167  1.0000
  H   H372      1.0  0.46516  0.19852  0.63072  1.0000
  H   H373      1.0  0.38758  0.01220  0.26842  1.0000
  C   C221      1.0  0.40395  0.98867  0.03103  1.0000
  S   S66       1.0  0.47126  0.22978  0.66863  1.0000
  H   H374      1.0  0.40507  0.99050  0.30253  1.0000
  H   H375      1.0  0.41324  0.00503  0.25278  1.0000
  H   H376      1.0  0.46232  0.18438  0.59485  1.0000
  H   H377      1.0  0.46334  0.22740  0.79867  1.0000
  H   H378      1.0  0.47908  0.16602  0.95883  1.0000
  H   H379      1.0  0.38303  0.98663  0.30202  1.0000
  C   C222      1.0  0.47940  0.17614  0.64460  1.0000
  C   C223      1.0  0.47934  0.12732  0.37211  1.0000
  C   C224      1.0  0.44140  0.98643  0.51044  1.0000
  H   H380      1.0  0.34538  0.48223  0.77701  1.0000
  S   S67       1.0  0.45193  0.25859  0.94771  1.0000
  H   H381      1.0  0.27492  0.46459  0.32298  1.0000
  Fe  Fe34      1.0  0.44587  0.34292  0.05649  1.0000
  H   H382      1.0  0.47106  0.27412  0.01528  1.0000
  S   S68       1.0  0.45114  0.31825  0.05502  1.0000
  Fe  Fe35      1.0  0.42650  0.36634  0.04020  1.0000
  S   S69       1.0  0.44678  0.38928  0.07012  1.0000
  S   S70       1.0  0.40181  0.36780  0.01689  1.0000
  H   H383      1.0  0.39918  0.41194  0.07290  1.0000
  Fe  Fe36      1.0  0.44529  0.37007  0.11244  1.0000
  S   S71       1.0  0.44396  0.38043  0.16847  1.0000
  S   S72       1.0  0.44629  0.36005  0.01081  1.0000
  S   S73       1.0  0.42413  0.34711  0.08357  1.0000
  Fe  Fe37      1.0  0.36877  0.44429  0.94493  1.0000
  S   S74       1.0  0.36790  0.46833  0.97009  1.0000
  S   S75       1.0  0.38711  0.43307  0.96895  1.0000
  Fe  Fe38      1.0  0.34722  0.44600  0.87956  1.0000
  S   S76       1.0  0.34459  0.46975  0.90057  1.0000
  S   S77       1.0  0.33449  0.43420  0.82544  1.0000
  C   C225      1.0  0.43606  0.24294  0.05890  1.0000
  Fe  Fe39      1.0  0.33921  0.45680  0.95363  1.0000
  S   S78       1.0  0.32096  0.45992  0.99556  1.0000
  S   S79       1.0  0.37598  0.45679  0.89114  1.0000
  S   S80       1.0  0.33974  0.43187  0.93190  1.0000
  H   H384      1.0  0.29043  0.44642  0.41038  1.0000
  S   S81       1.0  0.46781  0.37920  0.46255  1.0000
  Fe  Fe40      1.0  0.44367  0.35786  0.37419  1.0000
  S   S82       1.0  0.43186  0.34859  0.42815  1.0000
  S   S83       1.0  0.43284  0.34440  0.32012  1.0000
  Fe  Fe41      1.0  0.44167  0.37738  0.44280  1.0000
  S   S84       1.0  0.42912  0.38926  0.48326  1.0000
  Fe  Fe42      1.0  0.45852  0.35084  0.44525  1.0000
  H   H385      1.0  0.39567  0.41934  0.90084  1.0000
  S   S85       1.0  0.45139  0.38620  0.38763  1.0000
  S   S86       1.0  0.46941  0.35812  0.39071  1.0000
  Fe  Fe43      1.0  0.35992  0.44895  0.61477  1.0000
  S   S87       1.0  0.34228  0.42774  0.57603  1.0000
  S   S88       1.0  0.36886  0.44691  0.67190  1.0000
  C   C226      1.0  0.47263  0.29221  0.52353  1.0000
  S   S89       1.0  0.35538  0.45681  0.51415  1.0000
  Fe  Fe44      1.0  0.33428  0.44840  0.55471  1.0000
  S   S90       1.0  0.30530  0.44203  0.54169  1.0000
  Fe  Fe45      1.0  0.36482  0.43793  0.53809  1.0000
  S   S91       1.0  0.37398  0.42280  0.49770  1.0000
  S   S92       1.0  0.35061  0.46878  0.59606  1.0000
  S   S93       1.0  0.38275  0.45786  0.57773  1.0000
  H   H386      1.0  0.24318  0.42901  0.37154  1.0000
  C   C227      1.0  0.25557  0.47312  0.37497  1.0000
  H   H387      1.0  0.32808  0.37221  0.91354  1.0000
  S   S94       1.0  0.24871  0.46792  0.00177  1.0000
  H   H388      1.0  0.42013  0.47795  0.56628  1.0000
  H   H389      1.0  0.47625  0.28869  0.54890  1.0000
  H   H390      1.0  0.39220  0.31652  0.60777  1.0000
  H   H391      1.0  0.42400  0.23704  0.07439  1.0000
  C   C228      1.0  0.29381  0.45366  0.52314  1.0000
  C   C229      1.0  0.27538  0.44553  0.52145  1.0000
  C   C230      1.0  0.26565  0.45409  0.50709  1.0000
  H   H392      1.0  0.39054  0.42274  0.85631  1.0000
  C   C231      1.0  0.27421  0.47096  0.49389  1.0000
  C   C232      1.0  0.30236  0.47052  0.50979  1.0000
  H   H393      1.0  0.26855  0.43250  0.53159  1.0000
  H   H394      1.0  0.25153  0.44762  0.50643  1.0000
  C   C233      1.0  0.27952  0.46810  0.03134  1.0000
  H   H395      1.0  0.37394  0.39619  0.13513  1.0000
  C   C234      1.0  0.41379  0.39866  0.48632  1.0000
  C   C235      1.0  0.40363  0.39942  0.45722  1.0000
  C   C236      1.0  0.39151  0.40670  0.46140  1.0000
  C   C237      1.0  0.38932  0.41340  0.49461  1.0000
  C   C238      1.0  0.39955  0.41271  0.52368  1.0000
  C   C239      1.0  0.41165  0.40541  0.51952  1.0000
  H   H396      1.0  0.40500  0.39430  0.43152  1.0000
  H   H397      1.0  0.38372  0.40711  0.43865  1.0000
  H   H398      1.0  0.39804  0.41768  0.54945  1.0000
  H   H399      1.0  0.41938  0.40495  0.54232  1.0000
  C   C240      1.0  0.30062  0.46170  0.99662  1.0000
  C   C241      1.0  0.28963  0.45867  0.96654  1.0000
  C   C242      1.0  0.27367  0.46017  0.96899  1.0000
  C   C243      1.0  0.26851  0.46505  0.00128  1.0000
  H   H400      1.0  0.24302  0.47132  0.36190  1.0000
  C   C244      1.0  0.38682  0.40829  0.08716  1.0000
  H   H401      1.0  0.29334  0.45500  0.94145  1.0000
  H   H402      1.0  0.37769  0.34710  0.12700  1.0000
  H   H403      1.0  0.39671  0.30707  0.56885  1.0000
  C   C245      1.0  0.34429  0.43827  0.78289  1.0000
  C   C246      1.0  0.33381  0.43633  0.75220  1.0000
  C   C247      1.0  0.34102  0.43902  0.71794  1.0000
  C   C248      1.0  0.35874  0.44320  0.71396  1.0000
  C   C249      1.0  0.36913  0.44479  0.74461  1.0000
  C   C250      1.0  0.36204  0.44259  0.77883  1.0000
  H   H404      1.0  0.32002  0.43282  0.75489  1.0000
  H   H405      1.0  0.33283  0.43766  0.69462  1.0000
  H   H406      1.0  0.38283  0.44795  0.74179  1.0000
  H   H407      1.0  0.37037  0.44423  0.80201  1.0000
  C   C251      1.0  0.43957  0.36968  0.20989  1.0000
  C   C252      1.0  0.43670  0.35224  0.21302  1.0000
  C   C253      1.0  0.43441  0.34465  0.24688  1.0000
  C   C254      1.0  0.43538  0.35449  0.27805  1.0000
  C   C255      1.0  0.43812  0.37191  0.27486  1.0000
  C   C256      1.0  0.43994  0.37936  0.24095  1.0000
  H   H408      1.0  0.43634  0.34460  0.18944  1.0000
  H   H409      1.0  0.43212  0.33112  0.24899  1.0000
  H   H410      1.0  0.43867  0.37958  0.29853  1.0000
  Fe  Fe46      1.0  0.23316  0.47841  0.03775  1.0000
  C   C257      1.0  0.39802  0.38622  0.00426  1.0000
  C   C258      1.0  0.38092  0.38366  0.99472  1.0000
  C   C259      1.0  0.37725  0.39778  0.98454  1.0000
  C   C260      1.0  0.39070  0.41473  0.98319  1.0000
  C   C261      1.0  0.40776  0.41730  0.99317  1.0000
  C   C262      1.0  0.41141  0.40322  0.00373  1.0000
  H   H411      1.0  0.37040  0.37064  0.99530  1.0000
  H   H412      1.0  0.36399  0.39554  0.97791  1.0000
  H   H413      1.0  0.41830  0.43031  0.99242  1.0000
  H   H414      1.0  0.42463  0.40550  0.01099  1.0000
  H   H415      1.0  0.44857  0.23755  0.01394  1.0000
  H   H416      1.0  0.47177  0.37462  0.30488  1.0000
  C   C263      1.0  0.46314  0.30179  0.45810  1.0000
  C   C264      1.0  0.46622  0.31306  0.48770  1.0000
  H   H417      1.0  0.25389  0.47530  0.40348  1.0000
  H   H418      1.0  0.42642  0.44229  0.42690  1.0000
  Fe  Fe47      1.0  0.37205  0.47595  0.55651  1.0000
  H   H419      1.0  0.26849  0.43140  0.39966  1.0000
  H   H420      1.0  0.41820  0.39654  0.18567  1.0000
  H   H421      1.0  0.41098  0.34604  0.59121  1.0000
  Fe  Fe48      1.0  0.47661  0.38603  0.40664  1.0000
  C   C265      1.0  0.42525  0.41007  0.12012  1.0000
  C   C266      1.0  0.29265  0.47903  0.49517  1.0000
  C   C267      1.0  0.45321  0.27626  0.97640  1.0000
  C   C268      1.0  0.46320  0.28089  0.00815  1.0000
  H   H422      1.0  0.25134  0.45198  0.27702  1.0000
  C   C269      1.0  0.45225  0.30277  0.02318  1.0000
  C   C270      1.0  0.44279  0.29862  0.99078  1.0000
  C   C271      1.0  0.44311  0.28533  0.96788  1.0000
  H   H423      1.0  0.45889  0.35154  0.92844  1.0000
  H   H424      1.0  0.40401  0.44712  0.46266  1.0000
  H   H425      1.0  0.47083  0.37769  0.24269  1.0000
  C   C272      1.0  0.39686  0.35650  0.53621  1.0000
  C   C273      1.0  0.24806  0.45478  0.30418  1.0000
  H   H426      1.0  0.47671  0.40163  0.31964  1.0000
  C   C274      1.0  0.47098  0.30809  0.52039  1.0000
  H   H427      1.0  0.46148  0.37055  0.55473  1.0000
  H   H428      1.0  0.45340  0.34755  0.54784  1.0000
  C   C275      1.0  0.27475  0.45939  0.39157  1.0000
  C   C276      1.0  0.46251  0.29383  0.03152  1.0000
  H   H429      1.0  0.38071  0.37519  0.07357  1.0000
  H   H430      1.0  0.45966  0.33830  0.96395  1.0000
  H   H431      1.0  0.41030  0.39079  0.08038  1.0000
  S   S95       1.0  0.46692  0.36488  0.08887  1.0000
  H   H432      1.0  0.43527  0.28189  0.94352  1.0000
  H   H433      1.0  0.38476  0.42032  0.09037  1.0000
  C   C277      1.0  0.42220  0.32802  0.51838  1.0000
  H   H434      1.0  0.42808  0.43894  0.47296  1.0000
  C   C278      1.0  0.46468  0.28586  0.46129  1.0000
  C   C279      1.0  0.38201  0.35416  0.10178  1.0000
  H   H435      1.0  0.39553  0.35625  0.09633  1.0000
  H   H436      1.0  0.46988  0.29685  0.05645  1.0000
  C   C280      1.0  0.40370  0.34428  0.51792  1.0000
  C   C281      1.0  0.27937  0.44364  0.39121  1.0000
  C   C282      1.0  0.40764  0.31349  0.49586  1.0000
  H   H437      1.0  0.36641  0.36822  0.10997  1.0000
  H   H438      1.0  0.40173  0.40461  0.19373  1.0000
  H   H439      1.0  0.39544  0.41197  0.14184  1.0000
  H   H440      1.0  0.42255  0.33288  0.58982  1.0000
  C   C283      1.0  0.38729  0.40078  0.12419  1.0000
  C   C284      1.0  0.46718  0.34596  0.94139  1.0000
  C   C285      1.0  0.41227  0.33541  0.57559  1.0000
  H   H441      1.0  0.39189  0.33195  0.51222  1.0000
  C   C286      1.0  0.41736  0.45784  0.46011  1.0000
  C   C287      1.0  0.42979  0.44916  0.45330  1.0000
  H   H442      1.0  0.39268  0.48192  0.71474  1.0000
  H   H443      1.0  0.39609  0.36870  0.16293  1.0000
  H   H444      1.0  0.46212  0.27727  0.43818  1.0000
  C   C288      1.0  0.46941  0.28087  0.49399  1.0000
  C   C289      1.0  0.45003  0.35787  0.55890  1.0000
  H   H445      1.0  0.24776  0.46773  0.30330  1.0000
  H   H446      1.0  0.26531  0.45768  0.94551  1.0000
  H   H447      1.0  0.41628  0.38201  0.11784  1.0000
  H   H448      1.0  0.37286  0.37304  0.89407  1.0000
  H   H449      1.0  0.39473  0.46374  0.50086  1.0000
  C   C290      1.0  0.43381  0.35827  0.54033  1.0000
  H   H450      1.0  0.42790  0.32156  0.53685  1.0000
  H   H451      1.0  0.38979  0.35087  0.56081  1.0000
  H   H452      1.0  0.41049  0.44958  0.52855  1.0000
  C   C291      1.0  0.39229  0.37974  0.16217  1.0000
  C   C292      1.0  0.40422  0.39287  0.19067  1.0000
  H   H453      1.0  0.41689  0.46439  0.43495  1.0000
  H   H454      1.0  0.37356  0.34540  0.08007  1.0000
  C   C293      1.0  0.38003  0.37142  0.10193  1.0000
  N   N18       1.0  0.39311  0.38626  0.12478  1.0000
  H   H455      1.0  0.47301  0.40372  0.27256  1.0000
  H   H456      1.0  0.37864  0.37453  0.17175  1.0000
  H   H457      1.0  0.35516  0.37425  0.91823  1.0000
  H   H458      1.0  0.39563  0.30614  0.51069  1.0000
  S   S96       1.0  0.46430  0.33337  0.48574  1.0000
  H   H459      1.0  0.28376  0.44153  0.36466  1.0000
  H   H460      1.0  0.44844  0.35643  0.58807  1.0000
  H   H461      1.0  0.42784  0.46275  0.58142  1.0000
  N   N19       1.0  0.25882  0.45711  0.36969  1.0000
  C   C294      1.0  0.26196  0.45458  0.33110  1.0000
  C   C295      1.0  0.42324  0.46098  0.52424  1.0000
  C   C296      1.0  0.29534  0.46633  0.02902  1.0000
  Fe  Fe49      1.0  0.46886  0.24339  0.94326  1.0000
  H   H462      1.0  0.36556  0.47681  0.74318  1.0000
  H   H463      1.0  0.45944  0.30527  0.43276  1.0000
  H   H464      1.0  0.43471  0.30518  0.98393  1.0000
  H   H465      1.0  0.27579  0.47171  0.05647  1.0000
  H   H466      1.0  0.38738  0.35826  0.51775  1.0000
  H   H467      1.0  0.42854  0.41851  0.09648  1.0000
  C   C297      1.0  0.24285  0.44137  0.38103  1.0000
  H   H468      1.0  0.23895  0.45144  0.43334  1.0000
  H   H469      1.0  0.35168  0.35568  0.89114  1.0000
  H   H470      1.0  0.43776  0.36325  0.51310  1.0000
  H   H471      1.0  0.37579  0.39905  0.07019  1.0000
  N   N20       1.0  0.42199  0.47053  0.49152  1.0000
  H   H472      1.0  0.43262  0.33471  0.49899  1.0000
  H   H473      1.0  0.43813  0.25647  0.05279  1.0000
  H   H474      1.0  0.42221  0.41686  0.14231  1.0000
  H   H475      1.0  0.40721  0.36976  0.54213  1.0000
  H   H476      1.0  0.44367  0.45877  0.45288  1.0000
  H   H477      1.0  0.24979  0.43728  0.43620  1.0000
  H   H478      1.0  0.43750  0.40916  0.12826  1.0000
  H   H479      1.0  0.33987  0.39410  0.93342  1.0000
  C   C298      1.0  0.41107  0.39152  0.11000  1.0000
  H   H480      1.0  0.40857  0.34973  0.49134  1.0000
  H   H481      1.0  0.44208  0.39284  0.23887  1.0000
  H   H482      1.0  0.40427  0.31895  0.47173  1.0000
  H   H483      1.0  0.41258  0.30400  0.48635  1.0000
  H   H484      1.0  0.43299  0.45558  0.52107  1.0000
  H   H485      1.0  0.31793  0.38660  0.91784  1.0000
  H   H486      1.0  0.42833  0.23747  0.00389  1.0000
  H   H487      1.0  0.43147  0.36858  0.55469  1.0000
  H   H488      1.0  0.46898  0.33728  0.92113  1.0000
  S   S97       1.0  0.26268  0.48250  0.47509  1.0000
  H   H489      1.0  0.40163  0.38641  0.21685  1.0000
  C   C299      1.0  0.40702  0.47553  0.49548  1.0000
  H   H490      1.0  0.26257  0.44184  0.32675  1.0000
  N   N21       1.0  0.41760  0.34114  0.53820  1.0000
  H   H491      1.0  0.27353  0.46280  0.41978  1.0000
  C   C300      1.0  0.39525  0.31868  0.57912  1.0000
  H   H492      1.0  0.28656  0.47060  0.38218  1.0000
  H   H493      1.0  0.38393  0.31959  0.56578  1.0000
  Fe  Fe50      1.0  0.46634  0.38192  0.04436  1.0000
  N   N22       1.0  0.35383  0.39533  0.86299  1.0000
  C   C301      1.0  0.35701  0.40397  0.82728  1.0000
  C   C302      1.0  0.36772  0.40765  0.88855  1.0000
  C   C303      1.0  0.33611  0.39324  0.87469  1.0000
  C   C304      1.0  0.35440  0.37783  0.85888  1.0000
  C   C305      1.0  0.34295  0.39485  0.79781  1.0000
  C   C306      1.0  0.38677  0.41296  0.87764  1.0000
  C   C307      1.0  0.33055  0.38612  0.91213  1.0000
  C   C308      1.0  0.35878  0.37016  0.89282  1.0000
  H   H494      1.0  0.35835  0.41756  0.83034  1.0000
  H   H495      1.0  0.36954  0.40515  0.81614  1.0000
  H   H496      1.0  0.36657  0.40237  0.91550  1.0000
  H   H497      1.0  0.36607  0.41987  0.89250  1.0000
  H   H498      1.0  0.33525  0.40599  0.87340  1.0000
  H   H499      1.0  0.32559  0.38417  0.85634  1.0000
  H   H500      1.0  0.34178  0.36789  0.84740  1.0000
  H   H501      1.0  0.36452  0.37875  0.83942  1.0000
  H   H502      1.0  0.34792  0.40114  0.77203  1.0000
  H   H503      1.0  0.33977  0.38079  0.79452  1.0000
  H   H504      1.0  0.33090  0.39660  0.80269  1.0000
  H   H505      1.0  0.38909  0.40159  0.86907  1.0000
  Fe  Fe51      1.0  0.37304  0.47966  0.91565  1.0000
  Fe  Fe52      1.0  0.23701  0.48387  0.45660  1.0000
  H   H506      1.0  0.31649  0.47695  0.51059  1.0000
  C   C309      1.0  0.23968  0.43977  0.42146  1.0000
  C   C310      1.0  0.42876  0.47169  0.55941  1.0000
  H   H507      1.0  0.30361  0.46860  0.05257  1.0000
  H   H508      1.0  0.36641  0.47282  0.80792  1.0000
  H   H509      1.0  0.23481  0.44462  0.30962  1.0000
  H   H510      1.0  0.44742  0.24410  0.07570  1.0000
  C   C311      1.0  0.40308  0.48435  0.46309  1.0000
  S   S98       1.0  0.47135  0.26058  0.49592  1.0000
  H   H511      1.0  0.23080  0.44127  0.36851  1.0000
  H   H512      1.0  0.39250  0.47575  0.78192  1.0000
  H   H513      1.0  0.34344  0.48134  0.82396  1.0000
  H   H514      1.0  0.46913  0.34910  0.27119  1.0000
  H   H515      1.0  0.47646  0.32019  0.95470  1.0000
  H   H516      1.0  0.40884  0.48425  0.51885  1.0000
  H   H517      1.0  0.47341  0.31661  0.54356  1.0000
  H   H518      1.0  0.39661  0.47476  0.44105  1.0000
  H   H519      1.0  0.47242  0.34671  0.31689  1.0000
  H   H520      1.0  0.45024  0.48252  0.49045  1.0000
  C   C312      1.0  0.43917  0.48593  0.48464  1.0000
  H   H521      1.0  0.44255  0.48159  0.55910  1.0000
  H   H522      1.0  0.47654  0.33701  0.00672  1.0000
  H   H523      1.0  0.47731  0.36691  0.18895  1.0000
  C   C313      1.0  0.47900  0.35417  0.29321  1.0000
  S   S99       1.0  0.25713  0.71295  0.98733  1.0000
  Fe  Fe53      1.0  0.30529  0.65415  0.96848  1.0000
  S   S100      1.0  0.28740  0.63908  0.92301  1.0000
  S   S101      1.0  0.29850  0.66697  0.01542  1.0000
  Fe  Fe54      1.0  0.33489  0.64575  0.94389  1.0000
  S   S102      1.0  0.31936  0.62957  0.89670  1.0000
  S   S103      1.0  0.36216  0.64811  0.95519  1.0000
  Fe  Fe55      1.0  0.31105  0.65102  0.88883  1.0000
  S   S104      1.0  0.31068  0.66259  0.83479  1.0000
  Fe  Fe56      1.0  0.29690  0.61856  0.93412  1.0000
  S   S105      1.0  0.27779  0.58995  0.92805  1.0000
  S   S106      1.0  0.32820  0.66818  0.93363  1.0000
  S   S107      1.0  0.31322  0.63274  0.98206  1.0000
  Fe  Fe57      1.0  0.44580  0.72326  0.04902  1.0000
  H   H524      1.0  0.29652  0.57797  0.58254  1.0000
  S   S108      1.0  0.42036  0.71910  0.02052  1.0000
  S   S109      1.0  0.45253  0.70503  0.08244  1.0000
  H   H525      1.0  0.41310  0.50871  0.82954  1.0000
  Fe  Fe58      1.0  0.44206  0.71747  0.45213  1.0000
  H   H526      1.0  0.28043  0.49468  0.96003  1.0000
  S   S110      1.0  0.41235  0.70333  0.44902  1.0000
  S   S111      1.0  0.45653  0.70405  0.42421  1.0000
  Fe  Fe59      1.0  0.30470  0.62802  0.55017  1.0000
  S   S112      1.0  0.31385  0.65600  0.53319  1.0000
  S   S113      1.0  0.30207  0.60656  0.51020  1.0000
  Fe  Fe60      1.0  0.30671  0.63746  0.62985  1.0000
  S   S114      1.0  0.31570  0.66589  0.61908  1.0000
  S   S115      1.0  0.30462  0.62481  0.68387  1.0000
  Fe  Fe61      1.0  0.29546  0.65720  0.57446  1.0000
  S   S116      1.0  0.27972  0.67310  0.57017  1.0000
  Fe  Fe62      1.0  0.33333  0.66262  0.57856  1.0000
  S   S117      1.0  0.36159  0.68285  0.58031  1.0000
  S   S118      1.0  0.28484  0.62871  0.58842  1.0000
  S   S119      1.0  0.32583  0.63471  0.59235  1.0000
  S   S120      1.0  0.24303  0.49555  0.08727  1.0000
  H   H527      1.0  0.40366  0.69124  0.87303  1.0000
  S   S121      1.0  0.46495  0.54764  0.97402  1.0000
  C   C314      1.0  0.29126  0.50804  0.95891  1.0000
  H   H528      1.0  0.29118  0.51204  0.93088  1.0000
  H   H529      1.0  0.23701  0.51088  0.15517  1.0000
  C   C315      1.0  0.45900  0.58817  0.00665  1.0000
  H   H530      1.0  0.39372  0.69984  0.09699  1.0000
  H   H531      1.0  0.27552  0.53526  0.93034  1.0000
  S   S122      1.0  0.24457  0.50788  0.42356  1.0000
  Fe  Fe63      1.0  0.24544  0.72485  0.02753  1.0000
  H   H532      1.0  0.27411  0.59164  0.74735  1.0000
  S   S123      1.0  0.25036  0.54282  0.06413  1.0000
  H   H533      1.0  0.26554  0.50092  0.36561  1.0000
  H   H534      1.0  0.31008  0.49857  0.94147  1.0000
  C   C316      1.0  0.40978  0.51464  0.55804  1.0000
  C   C317      1.0  0.41529  0.50775  0.58665  1.0000
  C   C318      1.0  0.43257  0.51629  0.59990  1.0000
  C   C319      1.0  0.44440  0.53185  0.58487  1.0000
  C   C320      1.0  0.43885  0.53890  0.55654  1.0000
  C   C321      1.0  0.42155  0.53028  0.54316  1.0000
  C   C322      1.0  0.46263  0.72576  0.22635  1.0000
  H   H535      1.0  0.43680  0.51082  0.62188  1.0000
  H   H536      1.0  0.44791  0.55088  0.54481  1.0000
  H   H537      1.0  0.41733  0.53568  0.52104  1.0000
  H   H538      1.0  0.31449  0.54076  0.99173  1.0000
  C   C323      1.0  0.41160  0.51756  0.91868  1.0000
  C   C324      1.0  0.41592  0.51139  0.94990  1.0000
  C   C325      1.0  0.43249  0.52056  0.96621  1.0000
  C   C326      1.0  0.44492  0.53574  0.95106  1.0000
  C   C327      1.0  0.44080  0.54161  0.91921  1.0000
  C   C328      1.0  0.42409  0.53265  0.90328  1.0000
  H   H539      1.0  0.40636  0.49978  0.96194  1.0000
  H   H540      1.0  0.43562  0.51595  0.99082  1.0000
  H   H541      1.0  0.45039  0.55319  0.90715  1.0000
  H   H542      1.0  0.42083  0.53743  0.87904  1.0000
  C   C329      1.0  0.28173  0.58838  0.50183  1.0000
  C   C330      1.0  0.26698  0.58600  0.52117  1.0000
  C   C331      1.0  0.25118  0.57103  0.51487  1.0000
  C   C332      1.0  0.25002  0.55819  0.48955  1.0000
  C   C333      1.0  0.26476  0.56059  0.47002  1.0000
  C   C334      1.0  0.28051  0.57572  0.47597  1.0000
  H   H543      1.0  0.26771  0.59565  0.54106  1.0000
  H   H544      1.0  0.23666  0.69010  0.22573  1.0000
  H   H545      1.0  0.26396  0.55086  0.45021  1.0000
  H   H546      1.0  0.29182  0.57754  0.46064  1.0000
  C   C335      1.0  0.27312  0.67911  0.52971  1.0000
  C   C336      1.0  0.27337  0.67106  0.49709  1.0000
  C   C337      1.0  0.26778  0.67621  0.46561  1.0000
  C   C338      1.0  0.26215  0.68959  0.46647  1.0000
  C   C339      1.0  0.26220  0.69779  0.49906  1.0000
  C   C340      1.0  0.26750  0.69246  0.53052  1.0000
  H   H547      1.0  0.27765  0.66073  0.49617  1.0000
  H   H548      1.0  0.25807  0.70820  0.50010  1.0000
  H   H549      1.0  0.26735  0.69882  0.55562  1.0000
  H   H550      1.0  0.37995  0.48912  0.68728  1.0000
  C   C341      1.0  0.39853  0.69784  0.48596  1.0000
  C   C342      1.0  0.38039  0.68863  0.48000  1.0000
  C   C343      1.0  0.36891  0.68393  0.50863  1.0000
  C   C344      1.0  0.37549  0.68846  0.54351  1.0000
  C   C345      1.0  0.39359  0.69780  0.54948  1.0000
  C   C346      1.0  0.40510  0.70241  0.52084  1.0000
  H   H551      1.0  0.37523  0.68517  0.45303  1.0000
  H   H552      1.0  0.35498  0.67702  0.50370  1.0000
  H   H553      1.0  0.39878  0.70141  0.57640  1.0000
  H   H554      1.0  0.41903  0.70954  0.52573  1.0000
  H   H555      1.0  0.30470  0.54061  0.94949  1.0000
  H   H556      1.0  0.42966  0.56277  0.04219  1.0000
  H   H557      1.0  0.37964  0.70427  0.12776  1.0000
  H   H558      1.0  0.23071  0.65707  0.51355  1.0000
  C   C347      1.0  0.26972  0.57726  0.96628  1.0000
  C   C348      1.0  0.27591  0.58399  0.00054  1.0000
  C   C349      1.0  0.26964  0.57337  0.03030  1.0000
  C   C350      1.0  0.25714  0.55594  0.02612  1.0000
  C   C351      1.0  0.25072  0.54930  0.99193  1.0000
  C   C352      1.0  0.25706  0.55989  0.96214  1.0000
  H   H559      1.0  0.28561  0.59734  0.00413  1.0000
  H   H560      1.0  0.27464  0.57864  0.05665  1.0000
  H   H561      1.0  0.40797  0.53780  0.01118  1.0000
  H   H562      1.0  0.25211  0.55460  0.93578  1.0000
  C   C353      1.0  0.30958  0.65209  0.79305  1.0000
  C   C354      1.0  0.31051  0.63604  0.79027  1.0000
  C   C355      1.0  0.30932  0.62802  0.75656  1.0000
  C   C356      1.0  0.30724  0.63597  0.72536  1.0000
  C   C357      1.0  0.30670  0.65220  0.72813  1.0000
  C   C358      1.0  0.30785  0.66020  0.76183  1.0000
  H   H563      1.0  0.31213  0.62980  0.81402  1.0000
  H   H564      1.0  0.30993  0.61555  0.75457  1.0000
  H   H565      1.0  0.30510  0.65847  0.70434  1.0000
  H   H566      1.0  0.30723  0.67268  0.76369  1.0000
  C   C359      1.0  0.37882  0.66800  0.97165  1.0000
  C   C360      1.0  0.37735  0.68371  0.96837  1.0000
  C   C361      1.0  0.39055  0.69933  0.98234  1.0000
  C   C362      1.0  0.40523  0.69937  0.00027  1.0000
  C   C363      1.0  0.40696  0.68374  0.00288  1.0000
  C   C364      1.0  0.39383  0.66811  0.98830  1.0000
  H   H567      1.0  0.36597  0.68386  0.95532  1.0000
  H   H568      1.0  0.38923  0.71142  0.97996  1.0000
  H   H569      1.0  0.41827  0.68366  0.01655  1.0000
  H   H570      1.0  0.39514  0.65602  0.99068  1.0000
  C   C365      1.0  0.26832  0.69999  0.99624  1.0000
  C   C366      1.0  0.27212  0.69670  0.03093  1.0000
  C   C367      1.0  0.28136  0.68650  0.03655  1.0000
  C   C368      1.0  0.28671  0.67946  0.00757  1.0000
  C   C369      1.0  0.28276  0.68264  0.97294  1.0000
  C   C370      1.0  0.27363  0.69290  0.96734  1.0000
  H   H571      1.0  0.28438  0.68407  0.06340  1.0000
  H   H572      1.0  0.28688  0.67734  0.95047  1.0000
  H   H573      1.0  0.35254  0.67557  0.80973  1.0000
  H   H574      1.0  0.39372  0.48970  0.47091  1.0000
  H   H575      1.0  0.35406  0.50220  0.80428  1.0000
  H   H576      1.0  0.27135  0.64235  0.85283  1.0000
  H   H577      1.0  0.27914  0.50121  0.54696  1.0000
  C   C371      1.0  0.38761  0.49199  0.71280  1.0000
  H   H578      1.0  0.25364  0.54618  0.19733  1.0000
  C   C372      1.0  0.35229  0.48848  0.80235  1.0000
  C   C373      1.0  0.25101  0.51622  0.56613  1.0000
  C   C374      1.0  0.44425  0.59920  0.94237  1.0000
  H   H579      1.0  0.40824  0.49554  0.76628  1.0000
  H   H580      1.0  0.43999  0.48912  0.45587  1.0000
  H   H581      1.0  0.41555  0.52275  0.76063  1.0000
  H   H582      1.0  0.43818  0.60750  0.95299  1.0000
  H   H583      1.0  0.44129  0.59744  0.91328  1.0000
  H   H584      1.0  0.40112  0.70874  0.85037  1.0000
  H   H585      1.0  0.45709  0.50982  0.51295  1.0000
  H   H586      1.0  0.30258  0.51512  0.02737  1.0000
  H   H587      1.0  0.27810  0.73240  0.29131  1.0000
  H   H588      1.0  0.24120  0.52571  0.21613  1.0000
  H   H589      1.0  0.46043  0.65535  0.41468  1.0000
  C   C375      1.0  0.34429  0.69870  0.02118  1.0000
  H   H590      1.0  0.25769  0.57376  0.81385  1.0000
  H   H591      1.0  0.35123  0.67786  0.01211  1.0000
  H   H592      1.0  0.34027  0.70560  0.04175  1.0000
  C   C376      1.0  0.36575  0.67234  0.06577  1.0000
  C   C377      1.0  0.26207  0.60502  0.78017  1.0000
  C   C378      1.0  0.26587  0.52234  0.93902  1.0000
  C   C379      1.0  0.24149  0.68469  0.24800  1.0000
  H   H593      1.0  0.28154  0.62121  0.83919  1.0000
  C   C380      1.0  0.28951  0.51472  0.02168  1.0000
  C   C381      1.0  0.26091  0.59076  0.75266  1.0000
  C   C382      1.0  0.47284  0.66274  0.49964  1.0000
  Fe  Fe64      1.0  0.46321  0.72730  0.12346  1.0000
  H   H594      1.0  0.26309  0.63483  0.80902  1.0000
  H   H595      1.0  0.37918  0.70627  0.04567  1.0000
  S   S124      1.0  0.23765  0.72713  0.47744  1.0000
  N   N23       1.0  0.28221  0.53548  0.54542  1.0000
  H   H596      1.0  0.37677  0.72335  0.51328  1.0000
  C   C383      1.0  0.38553  0.70697  0.10117  1.0000
  H   H597      1.0  0.46046  0.57294  0.05291  1.0000
  H   H598      1.0  0.28220  0.49458  0.37857  1.0000
  Fe  Fe65      1.0  0.23362  0.51350  0.05968  1.0000
  C   C384      1.0  0.23865  0.59281  0.82456  1.0000
  C   C385      1.0  0.39787  0.49015  0.78615  1.0000
  C   C386      1.0  0.30856  0.50631  0.96418  1.0000
  H   H599      1.0  0.46025  0.59375  0.06475  1.0000
  H   H600      1.0  0.26507  0.51200  0.91963  1.0000
  C   C387      1.0  0.34610  0.68244  0.03503  1.0000
  H   H601      1.0  0.45950  0.67148  0.38588  1.0000
  H   H602      1.0  0.38954  0.66309  0.90043  1.0000
  H   H603      1.0  0.46730  0.61193  0.64621  1.0000
  C   C388      1.0  0.26371  0.52290  0.53508  1.0000
  C   C389      1.0  0.29324  0.54132  0.51276  1.0000
  C   C390      1.0  0.29043  0.52799  0.57219  1.0000
  C   C391      1.0  0.26351  0.67307  0.31136  1.0000
  H   H604      1.0  0.30793  0.56460  0.58717  1.0000
  C   C392      1.0  0.29053  0.52744  0.48346  1.0000
  C   C393      1.0  0.29074  0.51037  0.56240  1.0000
  Fe  Fe66      1.0  0.47158  0.73004  0.39907  1.0000
  H   H605      1.0  0.35664  0.70803  0.00940  1.0000
  H   H606      1.0  0.23709  0.66996  0.31332  1.0000
  H   H607      1.0  0.30563  0.57302  0.54415  1.0000
  H   H608      1.0  0.29080  0.55161  0.49909  1.0000
  H   H609      1.0  0.30740  0.54742  0.52029  1.0000
  H   H610      1.0  0.30430  0.53723  0.57765  1.0000
  H   H611      1.0  0.30938  0.70538  0.59628  1.0000
  C   C394      1.0  0.46473  0.58673  0.04523  1.0000
  H   H612      1.0  0.26786  0.70231  0.26249  1.0000
  H   H613      1.0  0.32452  0.70630  0.63032  1.0000
  H   H614      1.0  0.35323  0.64124  0.78608  1.0000
  H   H615      1.0  0.33409  0.69747  0.57681  1.0000
  H   H616      1.0  0.28161  0.70691  0.31932  1.0000
  H   H617      1.0  0.30047  0.53327  0.46279  1.0000
  H   H618      1.0  0.27759  0.52311  0.46983  1.0000
  H   H619      1.0  0.29205  0.51602  0.49352  1.0000
  H   H620      1.0  0.30271  0.51237  0.54779  1.0000
  C   C395      1.0  0.25461  0.70005  0.27147  1.0000
  C   C396      1.0  0.45099  0.72095  0.25486  1.0000
  N   N24       1.0  0.36606  0.63141  0.51346  1.0000
  C   C397      1.0  0.36869  0.64546  0.54122  1.0000
  C   C398      1.0  0.36334  0.63824  0.47809  1.0000
  C   C399      1.0  0.38253  0.62858  0.51369  1.0000
  C   C400      1.0  0.35047  0.61504  0.52348  1.0000
  C   C401      1.0  0.37289  0.64190  0.57959  1.0000
  C   C402      1.0  0.34568  0.63924  0.47265  1.0000
  C   C403      1.0  0.38650  0.62060  0.47977  1.0000
  C   C404      1.0  0.34411  0.59954  0.49649  1.0000
  H   H621      1.0  0.37959  0.65805  0.53375  1.0000
  H   H622      1.0  0.35698  0.64809  0.54307  1.0000
  H   H623      1.0  0.36407  0.63016  0.45530  1.0000
  H   H624      1.0  0.37404  0.65147  0.47373  1.0000
  H   H625      1.0  0.39431  0.64123  0.51850  1.0000
  H   H626      1.0  0.38254  0.62013  0.53611  1.0000
  H   H627      1.0  0.35318  0.60987  0.54871  1.0000
  H   H628      1.0  0.33914  0.61786  0.52995  1.0000
  H   H629      1.0  0.38508  0.64010  0.58154  1.0000
  H   H630      1.0  0.37496  0.65347  0.59673  1.0000
  H   H631      1.0  0.36190  0.63062  0.59105  1.0000
  H   H632      1.0  0.34267  0.64636  0.49435  1.0000
  H   H633      1.0  0.34601  0.64623  0.44770  1.0000
  H   H634      1.0  0.33473  0.62602  0.46954  1.0000
  H   H635      1.0  0.39072  0.63020  0.45806  1.0000
  H   H636      1.0  0.37545  0.60841  0.47030  1.0000
  H   H637      1.0  0.39764  0.61735  0.48561  1.0000
  H   H638      1.0  0.35057  0.59083  0.50190  1.0000
  H   H639      1.0  0.34597  0.60349  0.46843  1.0000
  H   H640      1.0  0.32976  0.59187  0.49874  1.0000
  N   N25       1.0  0.37103  0.66994  0.84181  1.0000
  C   C405      1.0  0.35509  0.66422  0.81739  1.0000
  C   C406      1.0  0.36696  0.67715  0.87555  1.0000
  C   C407      1.0  0.37360  0.65385  0.85046  1.0000
  C   C408      1.0  0.38660  0.68320  0.82306  1.0000
  C   C409      1.0  0.35578  0.65506  0.78198  1.0000
  C   C410      1.0  0.36197  0.69251  0.87090  1.0000
  C   C411      1.0  0.38945  0.65658  0.87464  1.0000
  C   C412      1.0  0.40200  0.69611  0.84680  1.0000
  H   H641      1.0  0.34317  0.65525  0.83135  1.0000
  H   H642      1.0  0.37793  0.68155  0.89516  1.0000
  H   H643      1.0  0.35600  0.66666  0.88930  1.0000
  H   H644      1.0  0.36175  0.64401  0.86330  1.0000
  H   H645      1.0  0.37533  0.64738  0.82588  1.0000
  H   H646      1.0  0.39198  0.67651  0.80444  1.0000
  H   H647      1.0  0.38241  0.69154  0.80626  1.0000
  H   H648      1.0  0.25109  0.53174  0.13716  1.0000
  H   H649      1.0  0.36824  0.66196  0.76814  1.0000
  H   H650      1.0  0.40190  0.66377  0.86088  1.0000
  H   H651      1.0  0.36263  0.69892  0.89726  1.0000
  H   H652      1.0  0.37082  0.70258  0.85305  1.0000
  H   H653      1.0  0.32012  0.51913  0.96501  1.0000
  H   H654      1.0  0.38886  0.64359  0.88115  1.0000
  H   H655      1.0  0.25916  0.52219  0.17051  1.0000
  H   H656      1.0  0.41439  0.69936  0.83271  1.0000
  H   H657      1.0  0.28941  0.59765  0.80291  1.0000
  H   H658      1.0  0.26305  0.51114  0.52062  1.0000
  H   H659      1.0  0.26809  0.70213  0.05333  1.0000
  C   C413      1.0  0.23113  0.48842  0.21939  1.0000
  S   S125      1.0  0.25490  0.69555  0.42658  1.0000
  H   H660      1.0  0.27079  0.69546  0.94044  1.0000
  H   H661      1.0  0.26603  0.52616  0.99556  1.0000
  H   H662      1.0  0.34921  0.71873  0.59118  1.0000
  H   H663      1.0  0.37073  0.72012  0.55845  1.0000
  H   H664      1.0  0.45862  0.60618  0.94543  1.0000
  H   H665      1.0  0.34600  0.70101  0.51827  1.0000
  C   C414      1.0  0.43310  0.59278  0.01874  1.0000
  H   H666      1.0  0.34829  0.68782  0.86072  1.0000
  C   C415      1.0  0.29903  0.56748  0.56927  1.0000
  H   H667      1.0  0.25621  0.59347  0.72668  1.0000
  H   H668      1.0  0.27987  0.50091  0.02488  1.0000
  N   N26       1.0  0.25796  0.59961  0.81831  1.0000
  H   H669      1.0  0.29392  0.55974  0.96708  1.0000
  C   C416      1.0  0.37540  0.49073  0.74374  1.0000
  H   H670      1.0  0.26779  0.66979  0.44053  1.0000
  H   H671      1.0  0.28743  0.55077  0.01049  1.0000
  H   H672      1.0  0.24089  0.53599  0.98843  1.0000
  H   H673      1.0  0.25803  0.52902  0.51575  1.0000
  C   C417      1.0  0.45710  0.72342  0.29072  1.0000
  C   C418      1.0  0.28673  0.52543  0.05233  1.0000
  C   C419      1.0  0.26210  0.63077  0.83711  1.0000
  H   H674      1.0  0.34875  0.71923  0.49196  1.0000
  H   H675      1.0  0.31493  0.69254  0.52553  1.0000
  H   H676      1.0  0.39842  0.48716  0.84430  1.0000
  H   H677      1.0  0.30955  0.56471  0.00222  1.0000
  N   N27       1.0  0.43956  0.58109  0.99927  1.0000
  H   H678      1.0  0.44155  0.60686  0.01409  1.0000
  H   H679      1.0  0.25300  0.71196  0.26405  1.0000
  H   H680      1.0  0.44080  0.51263  0.48746  1.0000
  H   H681      1.0  0.46575  0.60224  0.00035  1.0000
  C   C420      1.0  0.32319  0.71253  0.60534  1.0000
  H   H682      1.0  0.34585  0.70586  0.11296  1.0000
  H   H683      1.0  0.24891  0.62776  0.84714  1.0000
  N   N28       1.0  0.33535  0.71785  0.54147  1.0000
  C   C421      1.0  0.43695  0.58108  0.95943  1.0000
  H   H684      1.0  0.46486  0.58147  0.98920  1.0000
  H   H685      1.0  0.42300  0.57449  0.95103  1.0000
  C   C422      1.0  0.47504  0.73067  0.29873  1.0000
  C   C423      1.0  0.27098  0.71028  0.32825  1.0000
  H   H686      1.0  0.29088  0.60071  0.85087  1.0000
  H   H687      1.0  0.35421  0.68075  0.12500  1.0000
  C   C424      1.0  0.47880  0.67031  0.00947  1.0000
  H   H688      1.0  0.37273  0.67235  0.09112  1.0000
  H   H689      1.0  0.43438  0.59174  0.04800  1.0000
  C   C425      1.0  0.24750  0.52402  0.16165  1.0000
  H   H690      1.0  0.40518  0.57987  0.03068  1.0000
  H   H691      1.0  0.27388  0.52585  0.05059  1.0000
  H   H692      1.0  0.23981  0.56931  0.52996  1.0000
  Fe  Fe67      1.0  0.24284  0.71495  0.42850  1.0000
  Fe  Fe68      1.0  0.47893  0.71768  0.05697  1.0000
  C   C426      1.0  0.39008  0.51551  0.78710  1.0000
  H   H693      1.0  0.41275  0.60190  0.01521  1.0000
  H   H694      1.0  0.33271  0.67191  0.03844  1.0000
  C   C427      1.0  0.28139  0.55139  0.56247  1.0000
  C   C428      1.0  0.24227  0.56191  0.14467  1.0000
  H   H695      1.0  0.41276  0.54022  0.78024  1.0000
  C   C429      1.0  0.40724  0.49452  0.82295  1.0000
  S   S126      1.0  0.46008  0.72594  0.50072  1.0000
  H   H696      1.0  0.27560  0.61545  0.77875  1.0000
  N   N29       1.0  0.38362  0.49612  0.78062  1.0000
  H   H697      1.0  0.25483  0.56082  0.14615  1.0000
  H   H698      1.0  0.28445  0.52674  0.59877  1.0000
  H   H699      1.0  0.46683  0.67169  0.01315  1.0000
  N   N30       1.0  0.35733  0.68481  0.06828  1.0000
  H   H700      1.0  0.37588  0.67661  0.04510  1.0000
  C   C430      1.0  0.41393  0.58940  0.01168  1.0000
  S   S127      1.0  0.46607  0.54167  0.60169  1.0000
  H   H701      1.0  0.43954  0.55584  0.00800  1.0000
  H   H702      1.0  0.32684  0.69033  0.08772  1.0000
  H   H703      1.0  0.24132  0.56649  0.11749  1.0000
  H   H704      1.0  0.37448  0.49191  0.83490  1.0000
  H   H705      1.0  0.27499  0.54826  0.58870  1.0000
  H   H706      1.0  0.33413  0.69456  0.99954  1.0000
  N   N31       1.0  0.25363  0.69799  0.31134  1.0000
  H   H707      1.0  0.34398  0.64695  0.07859  1.0000
  C   C431      1.0  0.47826  0.65457  0.99461  1.0000
  H   H708      1.0  0.40914  0.58493  0.98418  1.0000
  C   C432      1.0  0.26982  0.51821  0.97708  1.0000
  H   H709      1.0  0.26503  0.61175  0.87102  1.0000
  H   H710      1.0  0.27316  0.55586  0.54586  1.0000
  C   C433      1.0  0.27001  0.49046  0.36224  1.0000
  H   H711      1.0  0.25355  0.61107  0.77008  1.0000
  H   H712      1.0  0.29746  0.53881  0.05439  1.0000
  H   H713      1.0  0.34625  0.65109  0.03136  1.0000
  C   C434      1.0  0.26716  0.61548  0.84254  1.0000
  H   H714      1.0  0.34528  0.65482  0.76357  1.0000
  H   H715      1.0  0.27275  0.48999  0.33364  1.0000
  H   H716      1.0  0.45939  0.63463  0.50393  1.0000
  H   H717      1.0  0.26007  0.58212  0.85757  1.0000
  C   C435      1.0  0.34893  0.71516  0.51990  1.0000
  C   C436      1.0  0.26402  0.58606  0.82972  1.0000
  H   H718      1.0  0.25564  0.50975  0.58649  1.0000
  H   H719      1.0  0.26697  0.67553  0.28305  1.0000
  C   C437      1.0  0.31777  0.70664  0.52427  1.0000
  H   H720      1.0  0.26032  0.50451  0.98214  1.0000
  H   H721      1.0  0.46128  0.66410  0.49082  1.0000
  C   C438      1.0  0.43107  0.56265  0.01280  1.0000
  H   H722      1.0  0.39469  0.72109  0.10113  1.0000
  H   H723      1.0  0.40323  0.55552  0.99838  1.0000
  H   H724      1.0  0.31331  0.73248  0.56472  1.0000
  H   H725      1.0  0.33584  0.66682  0.09870  1.0000
  C   C439      1.0  0.28386  0.59162  0.82839  1.0000
  C   C440      1.0  0.41305  0.55025  0.99656  1.0000
  H   H726      1.0  0.39331  0.51921  0.81581  1.0000
  H   H727      1.0  0.47027  0.67756  0.42940  1.0000
  H   H728      1.0  0.36662  0.71307  0.07359  1.0000
  S   S128      1.0  0.38846  0.50368  0.53971  1.0000
  H   H729      1.0  0.24835  0.52677  0.57847  1.0000
  H   H730      1.0  0.32949  0.68757  0.13390  1.0000
  C   C441      1.0  0.30190  0.53873  0.97839  1.0000
  H   H731      1.0  0.30694  0.70755  0.53878  1.0000
  H   H732      1.0  0.25195  0.57723  0.75917  1.0000
  C   C442      1.0  0.34627  0.68041  0.10090  1.0000
  C   C443      1.0  0.47179  0.64598  0.50725  1.0000
  H   H733      1.0  0.46821  0.66926  0.32572  1.0000
  H   H734      1.0  0.27071  0.70908  0.35778  1.0000
  H   H735      1.0  0.28698  0.51905  0.07782  1.0000
  H   H736      1.0  0.43576  0.50202  0.52965  1.0000
  H   H737      1.0  0.40625  0.49584  0.59859  1.0000
  H   H738      1.0  0.24282  0.71662  0.32136  1.0000
  S   S129      1.0  0.45391  0.72223  0.18160  1.0000
  H   H739      1.0  0.28646  0.57993  0.83152  1.0000
  S   S130      1.0  0.39048  0.50726  0.89934  1.0000
  C   C444      1.0  0.29759  0.55398  0.99037  1.0000
  H   H740      1.0  0.29064  0.50333  0.58717  1.0000
  H   H741      1.0  0.41411  0.54668  0.96846  1.0000
  C   C445      1.0  0.33673  0.69190  0.10885  1.0000
  C   C446      1.0  0.27745  0.72988  0.32023  1.0000
  C   C447      1.0  0.44301  0.50330  0.50501  1.0000
  C   C448      1.0  0.46793  0.66892  0.40561  1.0000
  N   N32       1.0  0.28821  0.52041  0.98431  1.0000
  H   H742      1.0  0.23551  0.55964  0.21584  1.0000
  H   H743      1.0  0.32629  0.72629  0.61256  1.0000
  H   H744      1.0  0.37944  0.51954  0.78139  1.0000
  H   H745      1.0  0.23387  0.60274  0.81762  1.0000
  H   H746      1.0  0.39859  0.50505  0.71073  1.0000
  C   C449      1.0  0.40561  0.52769  0.76513  1.0000
  C   C450      1.0  0.35339  0.65297  0.05720  1.0000
  C   C451      1.0  0.37181  0.70314  0.07079  1.0000
  C   C452      1.0  0.47850  0.68192  0.31734  1.0000
  H   H747      1.0  0.36137  0.64550  0.05488  1.0000
  H   H748      1.0  0.40104  0.53051  0.73915  1.0000
  C   C453      1.0  0.36811  0.72523  0.53314  1.0000
  H   H749      1.0  0.32149  0.70419  0.46700  1.0000
  H   H750      1.0  0.44302  0.57332  0.94605  1.0000
  H   H751      1.0  0.44790  0.71970  0.31209  1.0000
  H   H752      1.0  0.46578  0.64402  0.98705  1.0000
  S   S131      1.0  0.47143  0.73467  0.02081  1.0000
  C   C454      1.0  0.33612  0.71136  0.57833  1.0000
  H   H753      1.0  0.23598  0.59016  0.85338  1.0000
  S   S132      1.0  0.22998  0.53938  0.48373  1.0000
  H   H754      1.0  0.25283  0.52249  0.93833  1.0000
  C   C455      1.0  0.25005  0.67980  0.32283  1.0000
  H   H755      1.0  0.25792  0.65872  0.31504  1.0000
  H   H756      1.0  0.25000  0.50040  0.26241  1.0000
  H   H757      1.0  0.43708  0.71530  0.24910  1.0000
  H   H758      1.0  0.46821  0.63274  0.63543  1.0000
  H   H759      1.0  0.24256  0.57217  0.16362  1.0000
  Fe  Fe69      1.0  0.23659  0.73488  0.10088  1.0000
  H   H760      1.0  0.24937  0.67905  0.35244  1.0000
  C   C456      1.0  0.24233  0.53334  0.19166  1.0000
  H   H761      1.0  0.24087  0.49192  0.19913  1.0000
  H   H762      1.0  0.22979  0.67543  0.26147  1.0000
  H   H763      1.0  0.23825  0.50625  0.55569  1.0000
  C   C457      1.0  0.47596  0.62501  0.63611  1.0000
  S   S133      1.0  0.23144  0.49502  0.32770  1.0000
  C   C458      1.0  0.23752  0.73608  0.20414  1.0000
  H   H764      1.0  0.29955  0.49193  0.48466  1.0000
  H   H765      1.0  0.23594  0.54381  0.26512  1.0000
  H   H766      1.0  0.24815  0.67739  0.23517  1.0000
  C   C459      1.0  0.23987  0.70281  0.32643  1.0000
  H   H767      1.0  0.27554  0.67890  0.32845  1.0000
  H   H768      1.0  0.30846  0.49892  0.98835  1.0000
  H   H769      1.0  0.36800  0.49837  0.73621  1.0000
  H   H770      1.0  0.23972  0.70171  0.35593  1.0000
  C   C460      1.0  0.23629  0.49308  0.25548  1.0000
  Fe  Fe70      1.0  0.47539  0.71373  0.47112  1.0000
  H   H771      1.0  0.23648  0.71840  0.91287  1.0000
  H   H772      1.0  0.47752  0.69750  0.36254  1.0000
  H   H773      1.0  0.47201  0.68807  0.30011  1.0000
  C   C461      1.0  0.31550  0.71049  0.48496  1.0000
  H   H774      1.0  0.23261  0.65820  0.56146  1.0000
  H   H775      1.0  0.41810  0.49049  0.82295  1.0000
  H   H776      1.0  0.30138  0.70485  0.47765  1.0000
  H   H777      1.0  0.32096  0.72465  0.47976  1.0000
  H   H778      1.0  0.41490  0.49535  0.45345  1.0000
  C   C462      1.0  0.36971  0.48697  0.80746  1.0000
  H   H779      1.0  0.47924  0.59296  0.04707  1.0000
  H   H780      1.0  0.47931  0.62306  0.60856  1.0000
  H   H781      1.0  0.26947  0.73567  0.33314  1.0000
  Fe  Fe71      1.0  0.36122  0.91765  0.55100  1.0000
  S   S134      1.0  0.37852  0.90946  0.58493  1.0000
  S   S135      1.0  0.37351  0.94791  0.54903  1.0000
  Fe  Fe72      1.0  0.33522  0.87834  0.53568  1.0000
  S   S136      1.0  0.35183  0.86867  0.56727  1.0000
  S   S137      1.0  0.30885  0.85918  0.50945  1.0000
  Fe  Fe73      1.0  0.35425  0.88927  0.60872  1.0000
  S   S138      1.0  0.35282  0.87951  0.66599  1.0000
  Fe  Fe74      1.0  0.37446  0.88984  0.54122  1.0000
  S   S139      1.0  0.39737  0.88732  0.51669  1.0000
  S   S140      1.0  0.33675  0.89845  0.57811  1.0000
  S   S141      1.0  0.35800  0.89841  0.50627  1.0000
  Fe  Fe75      1.0  0.38048  0.89268  0.90414  1.0000
  S   S142      1.0  0.37196  0.89205  0.96042  1.0000
  S   S143      1.0  0.40384  0.88998  0.88221  1.0000
  Fe  Fe76      1.0  0.35064  0.89910  0.87384  1.0000
  S   S144      1.0  0.33972  0.89946  0.92857  1.0000
  S   S145      1.0  0.33918  0.90309  0.82097  1.0000
  Fe  Fe77      1.0  0.36798  0.91607  0.94644  1.0000
  S   S146      1.0  0.37961  0.93871  0.98858  1.0000
  Fe  Fe78      1.0  0.34446  0.87553  0.93913  1.0000
  S   S147      1.0  0.32725  0.84834  0.96265  1.0000
  S   S148      1.0  0.37807  0.91730  0.89108  1.0000
  S   S149      1.0  0.35377  0.87462  0.88336  1.0000
  S   S150      1.0  0.25964  0.74780  0.06472  1.0000
  S   S151      1.0  0.25535  0.78968  0.02374  1.0000
  C   C463      1.0  0.47104  0.86597  0.04611  1.0000
  H   H782      1.0  0.27584  0.80397  0.18871  1.0000
  C   C464      1.0  0.28691  0.83868  0.65409  1.0000
  S   S152      1.0  0.27069  0.77584  0.47641  1.0000
  H   H783      1.0  0.29518  0.84809  0.70885  1.0000
  S   S153      1.0  0.46318  0.90868  0.61907  1.0000
  H   H784      1.0  0.31036  0.87932  0.87053  1.0000
  N   N33       1.0  0.41179  0.90150  0.77466  1.0000
  C   C465      1.0  0.41560  0.90678  0.73645  1.0000
  C   C466      1.0  0.42043  0.89164  0.91277  1.0000
  C   C467      1.0  0.43700  0.89489  0.90023  1.0000
  C   C468      1.0  0.45066  0.89689  0.92411  1.0000
  C   C469      1.0  0.44778  0.89557  0.96065  1.0000
  C   C470      1.0  0.43113  0.89195  0.97323  1.0000
  C   C471      1.0  0.41747  0.89006  0.94932  1.0000
  H   H785      1.0  0.43942  0.89607  0.87205  1.0000
  H   H786      1.0  0.46348  0.89966  0.91419  1.0000
  H   H787      1.0  0.42881  0.89071  0.00149  1.0000
  H   H788      1.0  0.40467  0.88729  0.95913  1.0000
  C   C472      1.0  0.30719  0.83229  0.98016  1.0000
  C   C473      1.0  0.29281  0.83584  0.98714  1.0000
  C   C474      1.0  0.27719  0.82268  0.00020  1.0000
  C   C475      1.0  0.27552  0.80567  0.00665  1.0000
  C   C476      1.0  0.28990  0.80212  0.99977  1.0000
  C   C477      1.0  0.30553  0.81529  0.98667  1.0000
  H   H789      1.0  0.29376  0.84879  0.98279  1.0000
  H   H790      1.0  0.26628  0.82572  0.00546  1.0000
  H   H791      1.0  0.28899  0.78919  0.00449  1.0000
  H   H792      1.0  0.31645  0.81225  0.98146  1.0000
  C   C478      1.0  0.38983  0.96220  0.99250  1.0000
  C   C479      1.0  0.39584  0.97023  0.02632  1.0000
  C   C480      1.0  0.39224  0.97303  0.96332  1.0000
  H   H793      1.0  0.39409  0.96210  0.04920  1.0000
  H   H794      1.0  0.38774  0.96722  0.93712  1.0000
  C   C481      1.0  0.28121  0.79915  0.48432  1.0000
  C   C482      1.0  0.27392  0.81034  0.47311  1.0000
  C   C483      1.0  0.28264  0.82857  0.48066  1.0000
  C   C484      1.0  0.29891  0.83606  0.49915  1.0000
  C   C485      1.0  0.30625  0.82490  0.51025  1.0000
  C   C486      1.0  0.29743  0.80665  0.50309  1.0000
  H   H795      1.0  0.26150  0.80495  0.45875  1.0000
  H   H796      1.0  0.27671  0.83694  0.47197  1.0000
  H   H797      1.0  0.31872  0.83032  0.52442  1.0000
  H   H798      1.0  0.30329  0.79825  0.51193  1.0000
  C   C487      1.0  0.34918  0.88670  0.70861  1.0000
  C   C488      1.0  0.34436  0.90044  0.71321  1.0000
  C   C489      1.0  0.34145  0.90538  0.74772  1.0000
  C   C490      1.0  0.34373  0.89696  0.77810  1.0000
  C   C491      1.0  0.34857  0.88323  0.77343  1.0000
  C   C492      1.0  0.35104  0.87802  0.73892  1.0000
  H   H799      1.0  0.34280  0.90723  0.69023  1.0000
  H   H800      1.0  0.33757  0.91592  0.75091  1.0000
  H   H801      1.0  0.35016  0.87645  0.79639  1.0000
  H   H802      1.0  0.35458  0.86725  0.73568  1.0000
  C   C493      1.0  0.41589  0.89500  0.54500  1.0000
  C   C494      1.0  0.41418  0.89540  0.58188  1.0000
  C   C495      1.0  0.42895  0.90031  0.60440  1.0000
  C   C496      1.0  0.44543  0.90476  0.59011  1.0000
  C   C497      1.0  0.44728  0.90517  0.55322  1.0000
  C   C498      1.0  0.43247  0.90015  0.53063  1.0000
  H   H803      1.0  0.40141  0.89130  0.59313  1.0000
  H   H804      1.0  0.42753  0.90011  0.63297  1.0000
  H   H805      1.0  0.46007  0.90901  0.54216  1.0000
  H   H806      1.0  0.43383  0.90005  0.50207  1.0000
  H   H807      1.0  0.40826  0.92695  0.95426  1.0000
  C   C499      1.0  0.38133  0.96528  0.51765  1.0000
  C   C500      1.0  0.37690  0.96265  0.48125  1.0000
  H   H808      1.0  0.27663  0.77050  0.13904  1.0000
  H   H809      1.0  0.36835  0.94968  0.47122  1.0000
  H   H810      1.0  0.42018  0.89809  0.72165  1.0000
  C   C501      1.0  0.24852  0.80129  0.11855  1.0000
  H   H811      1.0  0.28145  0.82414  0.65269  1.0000
  H   H812      1.0  0.43944  0.93968  0.58958  1.0000
  H   H813      1.0  0.42122  0.97385  0.54816  1.0000
  C   C502      1.0  0.39334  0.98479  0.35375  1.0000
  H   H814      1.0  0.45409  0.80253  0.00636  1.0000
  C   C503      1.0  0.24390  0.74068  0.26868  1.0000
  H   H815      1.0  0.39344  0.92851  0.81018  1.0000
  H   H816      1.0  0.46127  0.83258  0.05992  1.0000
  H   H817      1.0  0.44388  0.92488  0.81301  1.0000
  C   C504      1.0  0.46131  0.96084  0.53919  1.0000
  H   H818      1.0  0.27993  0.86323  0.61713  1.0000
  H   H819      1.0  0.38097  0.98320  0.36612  1.0000
  H   H820      1.0  0.41341  0.91494  0.82520  1.0000
  H   H821      1.0  0.38365  0.88578  0.77025  1.0000
  C   C505      1.0  0.39247  0.98236  0.52989  1.0000
  H   H822      1.0  0.30428  0.86938  0.93138  1.0000
  H   H823      1.0  0.47839  0.88032  0.04333  1.0000
  H   H824      1.0  0.27963  0.80224  0.09676  1.0000
  C   C506      1.0  0.41610  0.94978  0.49584  1.0000
  H   H825      1.0  0.32914  0.75453  0.56453  1.0000
  H   H826      1.0  0.40943  0.93297  0.01731  1.0000
  H   H827      1.0  0.34993  0.74415  0.56289  1.0000
  N   N34       1.0  0.43222  0.85089  0.53246  1.0000
  C   C507      1.0  0.44962  0.86464  0.52102  1.0000
  C   C508      1.0  0.42854  0.85657  0.56840  1.0000
  C   C509      1.0  0.41850  0.85013  0.50534  1.0000
  C   C510      1.0  0.43358  0.83375  0.53367  1.0000
  C   C511      1.0  0.45533  0.86226  0.48325  1.0000
  C   C512      1.0  0.44217  0.85925  0.59833  1.0000
  C   C513      1.0  0.39948  0.84314  0.51778  1.0000
  C   C514      1.0  0.41786  0.81789  0.54782  1.0000
  H   H828      1.0  0.44975  0.87778  0.52230  1.0000
  H   H829      1.0  0.46034  0.86539  0.53934  1.0000
  H   H830      1.0  0.41575  0.84740  0.57852  1.0000
  H   H831      1.0  0.42737  0.86906  0.56609  1.0000
  H   H832      1.0  0.42154  0.86347  0.49541  1.0000
  H   H833      1.0  0.41844  0.84216  0.48147  1.0000
  H   H834      1.0  0.43556  0.82964  0.50652  1.0000
  H   H835      1.0  0.44555  0.83506  0.54865  1.0000
  H   H836      1.0  0.45591  0.80304  0.05348  1.0000
  C   C515      1.0  0.44642  0.83876  0.94028  1.0000
  H   H837      1.0  0.28874  0.81571  0.86931  1.0000
  H   H838      1.0  0.45445  0.87104  0.59395  1.0000
  H   H839      1.0  0.43714  0.86172  0.62392  1.0000
  H   H840      1.0  0.44489  0.84769  0.60165  1.0000
  H   H841      1.0  0.39475  0.83014  0.52971  1.0000
  H   H842      1.0  0.39079  0.84197  0.49443  1.0000
  H   H843      1.0  0.39786  0.85248  0.53678  1.0000
  H   H844      1.0  0.40800  0.81129  0.52621  1.0000
  H   H845      1.0  0.41155  0.82103  0.57057  1.0000
  H   H846      1.0  0.42253  0.80843  0.55842  1.0000
  H   H847      1.0  0.26358  0.81595  0.17877  1.0000
  H   H848      1.0  0.25292  0.82089  0.57287  1.0000
  C   C516      1.0  0.41657  0.92486  0.02136  1.0000
  H   H849      1.0  0.43383  0.95725  0.60442  1.0000
  H   H850      1.0  0.29743  0.86892  0.58715  1.0000
  H   H851      1.0  0.43697  0.80378  0.03320  1.0000
  C   C517      1.0  0.24970  0.77952  0.15884  1.0000
  H   H852      1.0  0.31732  0.85256  0.89035  1.0000
  H   H853      1.0  0.44750  0.95494  0.48903  1.0000
  H   H854      1.0  0.44606  0.94731  0.92958  1.0000
  H   H855      1.0  0.43604  0.83520  0.04868  1.0000
  C   C518      1.0  0.38306  0.97692  0.45792  1.0000
  H   H856      1.0  0.42643  0.82255  0.00942  1.0000
  C   C519      1.0  0.39531  0.86882  0.75636  1.0000
  C   C520      1.0  0.44416  0.95099  0.51707  1.0000
  N   N35       1.0  0.29291  0.84602  0.61783  1.0000
  C   C521      1.0  0.47697  0.80293  0.40261  1.0000
  H   H857      1.0  0.39734  0.92221  0.50001  1.0000
  C   C522      1.0  0.26112  0.83168  0.59165  1.0000
  H   H858      1.0  0.46862  0.93909  0.95429  1.0000
  H   H859      1.0  0.38651  0.91581  0.76987  1.0000
  H   H860      1.0  0.44949  0.92118  0.76816  1.0000
  C   C523      1.0  0.30465  0.87808  0.64164  1.0000
  H   H861      1.0  0.40542  0.86475  0.76587  1.0000
  H   H862      1.0  0.30462  0.89071  0.63422  1.0000
  C   C524      1.0  0.41859  0.93476  0.93588  1.0000
  H   H863      1.0  0.25563  0.82804  0.61842  1.0000
  C   C525      1.0  0.29320  0.86386  0.61431  1.0000
  N   N36       1.0  0.29506  0.85153  0.86002  1.0000
  C   C526      1.0  0.30517  0.85490  0.82602  1.0000
  C   C527      1.0  0.30333  0.84355  0.88553  1.0000
  C   C528      1.0  0.29690  0.86897  0.87471  1.0000
  C   C529      1.0  0.27622  0.83954  0.85118  1.0000
  C   C530      1.0  0.29987  0.86452  0.79691  1.0000
  H   H864      1.0  0.44582  0.86186  0.46225  1.0000
  H   H865      1.0  0.46394  0.86521  0.99081  1.0000
  H   H866      1.0  0.44097  0.93680  0.51754  1.0000
  H   H867      1.0  0.31943  0.86273  0.83178  1.0000
  H   H868      1.0  0.30389  0.84248  0.81324  1.0000
  H   H869      1.0  0.46815  0.95225  0.54161  1.0000
  H   H870      1.0  0.37902  0.97468  0.43018  1.0000
  H   H871      1.0  0.29180  0.79237  0.15329  1.0000
  H   H872      1.0  0.28799  0.87334  0.86012  1.0000
  H   H873      1.0  0.27019  0.84640  0.83468  1.0000
  H   H874      1.0  0.46669  0.83247  0.96189  1.0000
  H   H875      1.0  0.28630  0.85683  0.78678  1.0000
  H   H876      1.0  0.30166  0.87771  0.80601  1.0000
  H   H877      1.0  0.30853  0.86653  0.77389  1.0000
  H   H878      1.0  0.46029  0.78853  0.49910  1.0000
  S   S154      1.0  0.45584  0.74293  0.42347  1.0000
  H   H879      1.0  0.25751  0.84078  0.88977  1.0000
  S   S155      1.0  0.46495  0.89889  0.99094  1.0000
  H   H880      1.0  0.47219  0.78684  0.34103  1.0000
  H   H881      1.0  0.40257  0.90578  0.68545  1.0000
  H   H882      1.0  0.40516  0.95325  0.50176  1.0000
  H   H883      1.0  0.25339  0.81909  0.87457  1.0000
  H   H884      1.0  0.24659  0.81963  0.08110  1.0000
  N   N37       1.0  0.45437  0.83816  0.00715  1.0000
  H   H885      1.0  0.47714  0.82361  0.60454  1.0000
  H   H886      1.0  0.39260  0.97146  0.34990  1.0000
  H   H887      1.0  0.29017  0.83743  0.16640  1.0000
  C   C531      1.0  0.43649  0.83552  0.01907  1.0000
  H   H888      1.0  0.45873  0.81610  0.51776  1.0000
  H   H889      1.0  0.23103  0.76880  0.20094  1.0000
  Fe  Fe79      1.0  0.24796  0.75240  0.44729  1.0000
  H   H890      1.0  0.39375  0.88076  0.80658  1.0000
  H   H891      1.0  0.46933  0.93550  0.00159  1.0000
  N   N38       1.0  0.26076  0.79596  0.13938  1.0000
  H   H892      1.0  0.42275  0.95774  0.47267  1.0000
  C   C532      1.0  0.44458  0.91508  0.79401  1.0000
  H   H893      1.0  0.45456  0.91113  0.80516  1.0000
  H   H894      1.0  0.28894  0.82721  0.12428  1.0000
  H   H895      1.0  0.41624  0.92691  0.91078  1.0000
  C   C533      1.0  0.25695  0.81818  0.09732  1.0000
  H   H896      1.0  0.42969  0.88924  0.77291  1.0000
  C   C534      1.0  0.28397  0.78418  0.13048  1.0000
  H   H897      1.0  0.41981  0.92892  0.78824  1.0000
  H   H898      1.0  0.41430  0.92092  0.04956  1.0000
  C   C535      1.0  0.42699  0.89867  0.78977  1.0000
  C   C536      1.0  0.41017  0.91582  0.79662  1.0000
  H   H899      1.0  0.46706  0.96799  0.96982  1.0000
  Fe  Fe80      1.0  0.24414  0.76037  0.03823  1.0000
  H   H900      1.0  0.42690  0.91982  0.73515  1.0000
  H   H901      1.0  0.27000  0.82966  0.90663  1.0000
  H   H902      1.0  0.42387  0.89272  0.81650  1.0000
  C   C537      1.0  0.30078  0.84474  0.68496  1.0000
  C   C538      1.0  0.43979  0.97148  0.02716  1.0000
  C   C539      1.0  0.40777  0.93060  0.48218  1.0000
  H   H903      1.0  0.30020  0.82307  0.16158  1.0000
  C   C540      1.0  0.40088  0.90820  0.71399  1.0000
  H   H904      1.0  0.29402  0.88320  0.92088  1.0000
  H   H905      1.0  0.40131  0.92980  0.45582  1.0000
  C   C541      1.0  0.46208  0.95699  0.98872  1.0000
  H   H906      1.0  0.42128  0.95613  0.98710  1.0000
  H   H907      1.0  0.44288  0.94033  0.04167  1.0000
  H   H908      1.0  0.38767  0.89823  0.71983  1.0000
  H   H909      1.0  0.43619  0.85699  0.98437  1.0000
  C   C542      1.0  0.39566  0.88454  0.77812  1.0000
  C   C543      1.0  0.39213  0.91622  0.79678  1.0000
  H   H910      1.0  0.46380  0.79471  0.39092  1.0000
  H   H911      1.0  0.44075  0.92411  0.01038  1.0000
  H   H912      1.0  0.27950  0.82067  0.59086  1.0000
  H   H913      1.0  0.43861  0.92660  0.94938  1.0000
  H   H914      1.0  0.31051  0.82639  0.85108  1.0000
  H   H915      1.0  0.30775  0.82073  0.89666  1.0000
  C   C544      1.0  0.24950  0.74119  0.23327  1.0000
  H   H916      1.0  0.25804  0.77512  0.17527  1.0000
  N   N39       1.0  0.42851  0.95397  0.52765  1.0000
  C   C545      1.0  0.27162  0.80994  0.16641  1.0000
  H   H917      1.0  0.44211  0.97686  0.56264  1.0000
  H   H918      1.0  0.29760  0.84184  0.91218  1.0000
  H   H919      1.0  0.37215  0.73948  0.53595  1.0000
  H   H920      1.0  0.46786  0.87367  0.47786  1.0000
  H   H921      1.0  0.43192  0.85879  0.03069  1.0000
  C   C546      1.0  0.43716  0.93902  0.95019  1.0000
  H   H922      1.0  0.43400  0.96254  0.04945  1.0000
  C   C547      1.0  0.46123  0.82842  0.03168  1.0000
  H   H923      1.0  0.24028  0.79058  0.09944  1.0000
  H   H924      1.0  0.31305  0.85631  0.67989  1.0000
  H   H925      1.0  0.46679  0.96292  0.01566  1.0000
  H   H926      1.0  0.29319  0.78390  0.11007  1.0000
  C   C548      1.0  0.31066  0.84717  0.60904  1.0000
  H   H927      1.0  0.26667  0.81798  0.07828  1.0000
  H   H928      1.0  0.27507  0.82835  0.83370  1.0000
  C   C549      1.0  0.26382  0.83212  0.88255  1.0000
  H   H929      1.0  0.24239  0.76856  0.13960  1.0000
  H   H930      1.0  0.29930  0.87526  0.66873  1.0000
  H   H931      1.0  0.30802  0.82304  0.63583  1.0000
  H   H932      1.0  0.38273  0.90535  0.81251  1.0000
  C   C550      1.0  0.43565  0.96159  0.99092  1.0000
  H   H933      1.0  0.41969  0.93497  0.61188  1.0000
  H   H934      1.0  0.43223  0.83485  0.94297  1.0000
  C   C551      1.0  0.29372  0.87020  0.91477  1.0000
  C   C552      1.0  0.45125  0.80831  0.03074  1.0000
  H   H935      1.0  0.45212  0.98487  0.49669  1.0000
  H   H936      1.0  0.25976  0.84345  0.58258  1.0000
  H   H937      1.0  0.41588  0.84297  0.00234  1.0000
  N   N40       1.0  0.44235  0.94780  0.98657  1.0000
  H   H938      1.0  0.26293  0.78106  0.09421  1.0000
  H   H939      1.0  0.30405  0.83390  0.69288  1.0000
  H   H940      1.0  0.39658  0.87140  0.72746  1.0000
  S   S156      1.0  0.45452  0.74456  0.09130  1.0000
  H   H941      1.0  0.28468  0.83873  0.56267  1.0000
  H   H942      1.0  0.26281  0.82987  0.11527  1.0000
  C   C553      1.0  0.27161  0.79123  0.11366  1.0000
  H   H943      1.0  0.41712  0.94677  0.92908  1.0000
  H   H944      1.0  0.45353  0.85313  0.93894  1.0000
  C   C554      1.0  0.46753  0.85706  0.00884  1.0000
  H   H945      1.0  0.31848  0.88024  0.64217  1.0000
  C   C555      1.0  0.31262  0.82991  0.61061  1.0000
  C   C556      1.0  0.28853  0.82499  0.15318  1.0000
  H   H946      1.0  0.44491  0.81673  0.96817  1.0000
  H   H947      1.0  0.30577  0.82102  0.58776  1.0000
  H   H948      1.0  0.27592  0.84166  0.66251  1.0000
  C   C557      1.0  0.43018  0.84950  0.00818  1.0000
  H   H949      1.0  0.31420  0.85222  0.58175  1.0000
  C   C558      1.0  0.47179  0.94550  0.98108  1.0000
  C   C559      1.0  0.43638  0.93454  0.01558  1.0000
  H   H950      1.0  0.41747  0.92520  0.47881  1.0000
  H   H951      1.0  0.32120  0.85682  0.62616  1.0000
  C   C560      1.0  0.32411  0.74193  0.54927  1.0000
  H   H952      1.0  0.32667  0.83289  0.60857  1.0000
  C   C561      1.0  0.42881  0.94391  0.59249  1.0000
  C   C562      1.0  0.28020  0.83407  0.58982  1.0000
  H   H953      1.0  0.40670  0.94364  0.56292  1.0000
  H   H954      1.0  0.41436  0.92808  0.54872  1.0000
  H   H955      1.0  0.38248  0.85748  0.75982  1.0000
  H   H956      1.0  0.45979  0.96472  0.56661  1.0000
  C   C563      1.0  0.30236  0.82557  0.87436  1.0000
  H   H957      1.0  0.47602  0.83348  0.64587  1.0000
  C   C564      1.0  0.45352  0.83097  0.96982  1.0000
  H   H958      1.0  0.28095  0.86025  0.92313  1.0000
  H   H959      1.0  0.31882  0.74441  0.52379  1.0000
  H   H960      1.0  0.45798  0.85057  0.48097  1.0000
  C   C565      1.0  0.41876  0.94199  0.55700  1.0000
  H   H961      1.0  0.41057  0.91290  0.00414  1.0000
  H   H962      1.0  0.44807  0.83344  0.91412  1.0000
  H   H963      1.0  0.44088  0.97147  0.96977  1.0000
  C   C566      1.0  0.43312  0.97261  0.53913  1.0000
  H   H964      1.0  0.47510  0.83163  0.02609  1.0000
  H   H965      1.0  0.40125  0.92141  0.71692  1.0000
  H   H966      1.0  0.47233  0.76706  0.29313  1.0000
  C   C567      1.0  0.23621  0.78070  0.18457  1.0000
  C   C568      1.0  0.47129  0.81570  0.51723  1.0000
  H   H967      1.0  0.45886  0.86364  0.06004  1.0000
  H   H968      1.0  0.26328  0.74570  0.22837  1.0000
  Fe  Fe81      1.0  0.47480  0.75088  0.47050  1.0000
  C   C569      1.0  0.47212  0.79994  0.50657  1.0000
  H   H969      1.0  0.47043  0.97251  0.52493  1.0000
  S   S157      1.0  0.25458  0.74018  0.39915  1.0000
  H   H970      1.0  0.24198  0.79207  0.20330  1.0000
  H   H971      1.0  0.47147  0.76687  0.35693  1.0000
  S   S158      1.0  0.23107  0.73808  0.99896  1.0000
  H   H972      1.0  0.25335  0.74508  0.29049  1.0000
  H   H973      1.0  0.43385  0.98089  0.02716  1.0000
  H   H974      1.0  0.34488  0.74293  0.51649  1.0000
  H   H975      1.0  0.39600  0.98469  0.55792  1.0000
  H   H976      1.0  0.23932  0.80351  0.13637  1.0000
  H   H977      1.0  0.47486  0.80665  0.43000  1.0000
  H   H978      1.0  0.45397  0.97936  0.03214  1.0000
  H   H979      1.0  0.43140  0.98612  0.49059  1.0000
  H   H980      1.0  0.47936  0.86173  0.06285  1.0000
  H   H981      1.0  0.29090  0.73712  0.33159  1.0000
  S   S159      1.0  0.24557  0.73678  0.16007  1.0000
  C   C570      1.0  0.33948  0.73706  0.54246  1.0000
  C   C571      1.0  0.61118  0.07529  0.56579  1.0000
  H   H982      1.0  0.53469  0.04532  0.35716  1.0000
  S   S160      1.0  0.50009  0.22044  0.93240  1.0000
  C   C572      1.0  0.48271  0.12741  0.41273  1.0000
  H   H983      1.0  0.70450  0.19168  0.61941  1.0000
  N   N41       1.0  0.68580  0.16915  0.64576  1.0000
  S   S161      1.0  0.50239  0.22267  0.59567  1.0000
  H   H984      1.0  0.67469  0.18035  0.60650  1.0000
  Fe  Fe82      1.0  0.58786  0.05050  0.04877  1.0000
  S   S162      1.0  0.57859  0.05878  0.09855  1.0000
  S   S163      1.0  0.56798  0.02315  0.02784  1.0000
  Fe  Fe83      1.0  0.61928  0.08797  0.04354  1.0000
  S   S164      1.0  0.61173  0.09776  0.09322  1.0000
  S   S165      1.0  0.64342  0.10535  0.01146  1.0000
  Fe  Fe84      1.0  0.60670  0.07168  0.11652  1.0000
  S   S166      1.0  0.61789  0.06888  0.17057  1.0000
  Fe  Fe85      1.0  0.58427  0.08382  0.07100  1.0000
  S   S167      1.0  0.56649  0.09733  0.06682  1.0000
  S   S168      1.0  0.61607  0.06240  0.06808  1.0000
  S   S169      1.0  0.59187  0.07518  0.02000  1.0000
  Fe  Fe86      1.0  0.57564  0.07836  0.43503  1.0000
  S   S170      1.0  0.58982  0.07327  0.48101  1.0000
  S   S171      1.0  0.55929  0.09344  0.43533  1.0000
  Fe  Fe87      1.0  0.58991  0.06174  0.38007  1.0000
  S   S172      1.0  0.60573  0.05533  0.42216  1.0000
  S   S173      1.0  0.58119  0.05404  0.32156  1.0000
  Fe  Fe88      1.0  0.58168  0.04626  0.45609  1.0000
  S   S174      1.0  0.57101  0.02376  0.49643  1.0000
  Fe  Fe89      1.0  0.61299  0.08275  0.44538  1.0000
  S   S175      1.0  0.64053  0.10048  0.46941  1.0000
  S   S176      1.0  0.56564  0.05105  0.41308  1.0000
  S   S177      1.0  0.59909  0.08944  0.40061  1.0000
  S   S178      1.0  0.69964  0.21834  0.90835  1.0000
  S   S179      1.0  0.68760  0.18848  0.99313  1.0000
  S   S180      1.0  0.69814  0.21918  0.58706  1.0000
  S   S181      1.0  0.68026  0.18242  0.51597  1.0000
  H   H985      1.0  0.51776  0.04193  0.30099  1.0000
  C   C573      1.0  0.65132  0.12340  0.48159  1.0000
  C   C574      1.0  0.66902  0.13072  0.49307  1.0000
  C   C575      1.0  0.67810  0.14865  0.50315  1.0000
  C   C576      1.0  0.66961  0.15967  0.50231  1.0000
  C   C577      1.0  0.65188  0.15232  0.49108  1.0000
  C   C578      1.0  0.64283  0.13442  0.48075  1.0000
  H   H986      1.0  0.67583  0.12248  0.49382  1.0000
  H   H987      1.0  0.69170  0.15393  0.51146  1.0000
  H   H988      1.0  0.64506  0.16056  0.49026  1.0000
  H   H989      1.0  0.62926  0.12915  0.47213  1.0000
  C   C579      1.0  0.56068  0.00032  0.50013  1.0000
  H   H990      1.0  0.55588  0.00163  0.55603  1.0000
  C   C580      1.0  0.65465  0.12852  0.00497  1.0000
  C   C581      1.0  0.66828  0.13490  0.98045  1.0000
  C   C582      1.0  0.67823  0.15306  0.97584  1.0000
  C   C583      1.0  0.67491  0.16526  0.99613  1.0000
  C   C584      1.0  0.66128  0.15888  0.02068  1.0000
  C   C585      1.0  0.65111  0.14073  0.02481  1.0000
  H   H991      1.0  0.67124  0.12570  0.96494  1.0000
  H   H992      1.0  0.68864  0.15761  0.95693  1.0000
  H   H993      1.0  0.65859  0.16807  0.03679  1.0000
  H   H994      1.0  0.64074  0.13618  0.04380  1.0000
  C   C586      1.0  0.60764  0.06608  0.21246  1.0000
  C   C587      1.0  0.61779  0.06859  0.24388  1.0000
  C   C588      1.0  0.61006  0.06564  0.27761  1.0000
  C   C589      1.0  0.59199  0.05975  0.28024  1.0000
  C   C590      1.0  0.58184  0.05725  0.24877  1.0000
  C   C591      1.0  0.58962  0.06061  0.21512  1.0000
  H   H995      1.0  0.63172  0.07275  0.24219  1.0000
  H   H996      1.0  0.61802  0.06749  0.30150  1.0000
  H   H997      1.0  0.56784  0.05262  0.25046  1.0000
  H   H998      1.0  0.58162  0.05863  0.19126  1.0000
  C   C592      1.0  0.56411  0.00110  0.01609  1.0000
  H   H999      1.0  0.71430  0.18203  0.64705  1.0000
  H   H1000     1.0  0.53683  0.99330  0.00340  1.0000
  H   H1001     1.0  0.51642  0.03761  0.40865  1.0000
  H   H1002     1.0  0.55994  0.99088  0.17602  1.0000
  H   H1003     1.0  0.49921  0.08081  0.33182  1.0000
  C   C593      1.0  0.70647  0.17001  0.59457  1.0000
  H   H1004     1.0  0.53171  0.08624  0.37229  1.0000
  C   C594      1.0  0.50964  0.06612  0.09734  1.0000
  C   C595      1.0  0.52249  0.06103  0.10922  1.0000
  C   C596      1.0  0.54002  0.07077  0.10064  1.0000
  C   C597      1.0  0.54482  0.08572  0.08030  1.0000
  C   C598      1.0  0.53205  0.09114  0.06937  1.0000
  C   C599      1.0  0.51445  0.08133  0.07781  1.0000
  H   H1005     1.0  0.51881  0.04931  0.12449  1.0000
  H   H1006     1.0  0.54978  0.06671  0.10980  1.0000
  H   H1007     1.0  0.53572  0.10276  0.05376  1.0000
  H   H1008     1.0  0.50457  0.08531  0.06857  1.0000
  C   C600      1.0  0.68300  0.15112  0.65690  1.0000
  H   H1009     1.0  0.65348  0.09346  0.07461  1.0000
  C   C601      1.0  0.50363  0.06489  0.47447  1.0000
  C   C602      1.0  0.51568  0.05786  0.48039  1.0000
  C   C603      1.0  0.53286  0.06653  0.46849  1.0000
  C   C604      1.0  0.53810  0.08247  0.45140  1.0000
  C   C605      1.0  0.52615  0.08966  0.44611  1.0000
  C   C606      1.0  0.50889  0.08080  0.45726  1.0000
  H   H1010     1.0  0.51167  0.04559  0.49385  1.0000
  H   H1011     1.0  0.54204  0.06095  0.47273  1.0000
  H   H1012     1.0  0.53024  0.10207  0.43320  1.0000
  H   H1013     1.0  0.49978  0.08644  0.45322  1.0000
  H   H1014     1.0  0.68299  0.12384  0.04800  1.0000
  H   H1015     1.0  0.52970  0.23292  0.86427  1.0000
  H   H1016     1.0  0.68586  0.20333  0.70049  1.0000
  C   C607      1.0  0.68601  0.17940  0.67924  1.0000
  H   H1017     1.0  0.58008  0.99265  0.19357  1.0000
  H   H1018     1.0  0.50879  0.05375  0.40141  1.0000
  C   C608      1.0  0.68508  0.13304  0.07081  1.0000
  H   H1019     1.0  0.67316  0.15141  0.57797  1.0000
  H   H1020     1.0  0.59036  0.00421  0.02589  1.0000
  C   C609      1.0  0.67018  0.12578  0.09760  1.0000
  Fe  Fe90      1.0  0.70388  0.20759  0.53721  1.0000
  H   H1021     1.0  0.71891  0.23595  0.71235  1.0000
  C   C610      1.0  0.57722  0.99521  0.01777  1.0000
  H   H1022     1.0  0.51081  0.07355  0.27880  1.0000
  H   H1023     1.0  0.69806  0.18244  0.69575  1.0000
  H   H1024     1.0  0.66922  0.22623  0.91868  1.0000
  H   H1025     1.0  0.69180  0.14090  0.15424  1.0000
  H   H1026     1.0  0.67297  0.19570  0.66049  1.0000
  C   C611      1.0  0.66138  0.07739  0.10727  1.0000
  H   H1027     1.0  0.69809  0.13670  0.08354  1.0000
  H   H1028     1.0  0.68528  0.14514  0.05936  1.0000
  H   H1029     1.0  0.58191  0.02527  0.10543  1.0000
  H   H1030     1.0  0.65553  0.09605  0.16454  1.0000
  H   H1031     1.0  0.68945  0.22481  0.07333  1.0000
  C   C612      1.0  0.68525  0.19710  0.67395  1.0000
  H   H1032     1.0  0.59187  0.02245  0.59649  1.0000
  H   H1033     1.0  0.56655  0.02106  0.20088  1.0000
  H   H1034     1.0  0.67482  0.17157  0.69630  1.0000
  N   N42       1.0  0.65746  0.22039  0.00843  1.0000
  C   C613      1.0  0.70305  0.17869  0.62803  1.0000
  C   C614      1.0  0.49252  0.19282  0.66462  1.0000
  H   H1035     1.0  0.67296  0.07746  0.12153  1.0000
  C   C615      1.0  0.63937  0.20594  0.00265  1.0000
  H   H1036     1.0  0.62338  0.01972  0.11991  1.0000
  H   H1037     1.0  0.54851  0.04371  0.93581  1.0000
  H   H1038     1.0  0.62163  0.08186  0.58628  1.0000
  S   S182      1.0  0.49475  0.22596  0.83112  1.0000
  C   C616      1.0  0.49935  0.22853  0.75831  1.0000
  C   C617      1.0  0.57381  0.00037  0.18085  1.0000
  Fe  Fe91      1.0  0.48653  0.22861  0.88846  1.0000
  H   H1039     1.0  0.55233  0.02269  0.11407  1.0000
  H   H1040     1.0  0.69627  0.11431  0.11881  1.0000
  H   H1041     1.0  0.64999  0.07262  0.12495  1.0000
  C   C618      1.0  0.69364  0.12947  0.16341  1.0000
  H   H1042     1.0  0.63177  0.20931  0.98210  1.0000
  H   H1043     1.0  0.69407  0.13642  0.68705  1.0000
  H   H1044     1.0  0.61532  0.08145  0.53972  1.0000
  H   H1045     1.0  0.65808  0.06763  0.08500  1.0000
  C   C619      1.0  0.55456  0.99303  0.53350  1.0000
  H   H1046     1.0  0.62085  0.21714  0.50663  1.0000
  C   C620      1.0  0.66839  0.22268  0.97593  1.0000
  H   H1047     1.0  0.66271  0.12878  0.17751  1.0000
  H   H1048     1.0  0.65552  0.14021  0.60783  1.0000
  Fe  Fe92      1.0  0.70827  0.20916  0.95787  1.0000
  C   C621      1.0  0.66508  0.09537  0.09161  1.0000
  H   H1049     1.0  0.62059  0.03937  0.12326  1.0000
  H   H1050     1.0  0.54817  0.06177  0.30531  1.0000
  N   N43       1.0  0.52646  0.04230  0.99407  1.0000
  C   C622      1.0  0.52588  0.02613  0.01157  1.0000
  C   C623      1.0  0.52206  0.03779  0.95507  1.0000
  C   C624      1.0  0.51286  0.04682  0.01115  1.0000
  C   C625      1.0  0.54455  0.05678  0.00029  1.0000
  C   C626      1.0  0.52799  0.02709  0.05259  1.0000
  C   C627      1.0  0.53506  0.03307  0.93426  1.0000
  H   H1051     1.0  0.48949  0.13978  0.36209  1.0000
  C   C628      1.0  0.54893  0.07411  0.98131  1.0000
  H   H1052     1.0  0.51334  0.01459  0.00477  1.0000
  H   H1053     1.0  0.53635  0.02280  0.00159  1.0000
  H   H1054     1.0  0.52095  0.04857  0.94056  1.0000
  H   H1055     1.0  0.50889  0.02662  0.95177  1.0000
  H   H1056     1.0  0.53887  0.23250  0.90690  1.0000
  H   H1057     1.0  0.51797  0.05380  0.03695  1.0000
  H   H1058     1.0  0.54698  0.06043  0.02906  1.0000
  H   H1059     1.0  0.55484  0.05234  0.99421  1.0000
  H   H1060     1.0  0.54086  0.03731  0.06177  1.0000
  H   H1061     1.0  0.51738  0.02911  0.06582  1.0000
  H   H1062     1.0  0.52739  0.01447  0.06185  1.0000
  H   H1063     1.0  0.53516  0.02069  0.94312  1.0000
  H   H1064     1.0  0.53099  0.03105  0.90567  1.0000
  H   H1065     1.0  0.48183  0.15966  0.39142  1.0000
  H   H1066     1.0  0.54822  0.00713  0.14812  1.0000
  H   H1067     1.0  0.50592  0.19613  0.65534  1.0000
  H   H1068     1.0  0.69805  0.15681  0.70798  1.0000
  H   H1069     1.0  0.54526  0.08296  0.99776  1.0000
  H   H1070     1.0  0.54300  0.07255  0.95437  1.0000
  H   H1071     1.0  0.56323  0.08078  0.97728  1.0000
  H   H1072     1.0  0.51632  0.07034  0.98084  1.0000
  H   H1073     1.0  0.49745  0.06163  0.00742  1.0000
  H   H1074     1.0  0.71030  0.15595  0.66939  1.0000
  H   H1075     1.0  0.49588  0.06223  0.35863  1.0000
  C   C629      1.0  0.57863  0.99298  0.11996  1.0000
  H   H1076     1.0  0.49263  0.19083  0.69374  1.0000
  C   C630      1.0  0.55583  0.01229  0.12389  1.0000
  C   C631      1.0  0.57575  0.02017  0.13125  1.0000
  H   H1077     1.0  0.64157  0.09658  0.12942  1.0000
  N   N44       1.0  0.58253  0.00786  0.14640  1.0000
  H   H1078     1.0  0.56769  0.00667  0.23372  1.0000
  H   H1079     1.0  0.57952  0.03201  0.14877  1.0000
  H   H1080     1.0  0.67171  0.13697  0.11519  1.0000
  H   H1081     1.0  0.67600  0.09832  0.07300  1.0000
  C   C632      1.0  0.65413  0.10464  0.14375  1.0000
  H   H1082     1.0  0.64997  0.18796  0.97999  1.0000
  C   C633      1.0  0.55878  0.98885  0.47141  1.0000
  H   H1083     1.0  0.62948  0.22646  0.46406  1.0000
  H   H1084     1.0  0.48361  0.17730  0.61640  1.0000
  H   H1085     1.0  0.59904  0.22484  0.51081  1.0000
  H   H1086     1.0  0.65951  0.16703  0.63789  1.0000
  H   H1087     1.0  0.64566  0.12582  0.14473  1.0000
  Fe  Fe93      1.0  0.72584  0.22383  0.88557  1.0000
  H   H1088     1.0  0.68181  0.14240  0.63376  1.0000
  H   H1089     1.0  0.68426  0.10213  0.15408  1.0000
  H   H1090     1.0  0.53943  0.06368  0.38603  1.0000
  H   H1091     1.0  0.59986  0.07781  0.57357  1.0000
  H   H1092     1.0  0.49750  0.05051  0.96685  1.0000
  H   H1093     1.0  0.69656  0.20631  0.65930  1.0000
  H   H1094     1.0  0.65398  0.15496  0.57608  1.0000
  H   H1095     1.0  0.56476  0.07694  0.35969  1.0000
  C   C634      1.0  0.63838  0.18765  0.99363  1.0000
  H   H1096     1.0  0.50007  0.05204  0.25946  1.0000
  H   H1097     1.0  0.72081  0.17489  0.59159  1.0000
  H   H1098     1.0  0.69339  0.23449  0.03073  1.0000
  H   H1099     1.0  0.64518  0.04937  0.50727  1.0000
  C   C635      1.0  0.48817  0.22776  0.78630  1.0000
  C   C636      1.0  0.61339  0.02491  0.12090  1.0000
  H   H1100     1.0  0.70155  0.15569  0.59597  1.0000
  H   H1101     1.0  0.48213  0.11671  0.36010  1.0000
  C   C637      1.0  0.51315  0.04479  0.38741  1.0000
  S   S183      1.0  0.49930  0.23544  0.51515  1.0000
  H   H1102     1.0  0.68820  0.12595  0.19037  1.0000
  C   C638      1.0  0.57405  0.01376  0.20949  1.0000
  H   H1103     1.0  0.63253  0.22931  0.04818  1.0000
  H   H1104     1.0  0.57290  0.09019  0.32220  1.0000
  H   H1105     1.0  0.63671  0.17998  0.01816  1.0000
  H   H1106     1.0  0.70804  0.13411  0.16551  1.0000
  H   H1107     1.0  0.57860  0.23508  0.49439  1.0000
  H   H1108     1.0  0.50236  0.03485  0.37115  1.0000
  S   S184      1.0  0.48767  0.05215  0.10439  1.0000
  C   C639      1.0  0.69731  0.15032  0.68175  1.0000
  N   N45       1.0  0.61846  0.04921  0.55047  1.0000
  C   C640      1.0  0.61049  0.02950  0.55278  1.0000
  C   C641      1.0  0.62107  0.05339  0.51154  1.0000
  C   C642      1.0  0.60546  0.05540  0.56458  1.0000
  C   C643      1.0  0.63529  0.05683  0.57231  1.0000
  C   C644      1.0  0.60433  0.02189  0.58976  1.0000
  C   C645      1.0  0.63293  0.04661  0.49212  1.0000
  H   H1109     1.0  0.67312  0.21237  0.97343  1.0000
  C   C646      1.0  0.64905  0.07526  0.56240  1.0000
  H   H1110     1.0  0.59905  0.02329  0.53413  1.0000
  H   H1111     1.0  0.61990  0.02431  0.54422  1.0000
  H   H1112     1.0  0.62635  0.06755  0.50681  1.0000
  H   H1113     1.0  0.60824  0.04781  0.49696  1.0000
  H   H1114     1.0  0.59295  0.04929  0.54882  1.0000
  H   H1115     1.0  0.60209  0.05132  0.59244  1.0000
  H   H1116     1.0  0.63249  0.05729  0.60106  1.0000
  H   H1117     1.0  0.64206  0.04813  0.57020  1.0000
  H   H1118     1.0  0.48171  0.16510  0.65537  1.0000
  H   H1119     1.0  0.61435  0.02839  0.61105  1.0000
  C   C647      1.0  0.63157  0.22795  0.49333  1.0000
  H   H1120     1.0  0.66834  0.20407  0.03245  1.0000
  H   H1121     1.0  0.62587  0.03237  0.48610  1.0000
  C   C648      1.0  0.54715  0.98907  0.00489  1.0000
  H   H1122     1.0  0.65737  0.21174  0.06258  1.0000
  H   H1123     1.0  0.55168  0.00199  0.10260  1.0000
  H   H1124     1.0  0.65571  0.08258  0.58716  1.0000
  H   H1125     1.0  0.64395  0.08354  0.54845  1.0000
  H   H1126     1.0  0.65951  0.07429  0.54637  1.0000
  C   C649      1.0  0.56138  0.08444  0.33949  1.0000
  H   H1127     1.0  0.60453  0.02950  0.17152  1.0000
  H   H1128     1.0  0.65763  0.12245  0.08270  1.0000
  H   H1129     1.0  0.65500  0.23370  0.93973  1.0000
  H   H1130     1.0  0.58748  0.02309  0.21783  1.0000
  H   H1131     1.0  0.48929  0.15305  0.52314  1.0000
  C   C650      1.0  0.60188  0.01793  0.15384  1.0000
  H   H1132     1.0  0.60150  0.00781  0.58908  1.0000
  H   H1133     1.0  0.64082  0.11294  0.18352  1.0000
  H   H1134     1.0  0.67030  0.14463  0.67056  1.0000
  H   H1135     1.0  0.49151  0.12102  0.41794  1.0000
  C   C651      1.0  0.68594  0.11351  0.13761  1.0000
  C   C652      1.0  0.65954  0.22325  0.94005  1.0000
  H   H1136     1.0  0.60704  0.00995  0.16923  1.0000
  H   H1137     1.0  0.60618  0.02179  0.09502  1.0000
  H   H1138     1.0  0.63160  0.20422  0.02702  1.0000
  C   C653      1.0  0.66608  0.21575  0.03934  1.0000
  Fe  Fe94      1.0  0.48488  0.21110  0.54691  1.0000
  H   H1139     1.0  0.58172  0.99776  0.09241  1.0000
  N   N46       1.0  0.66907  0.11022  0.11824  1.0000
  C   C654      1.0  0.67084  0.16812  0.62179  1.0000
  C   C655      1.0  0.65096  0.11911  0.16330  1.0000
  H   H1140     1.0  0.64863  0.21044  0.93278  1.0000
  C   C656      1.0  0.66316  0.15273  0.59456  1.0000
  C   C657      1.0  0.50588  0.05800  0.98986  1.0000
  N   N47       1.0  0.52796  0.06514  0.33496  1.0000
  C   C658      1.0  0.54529  0.07250  0.31651  1.0000
  C   C659      1.0  0.51447  0.05291  0.30861  1.0000
  H   H1141     1.0  0.48985  0.14094  0.42366  1.0000
  C   C660      1.0  0.52407  0.08011  0.34740  1.0000
  H   H1142     1.0  0.55971  0.09540  0.35259  1.0000
  C   C661      1.0  0.51216  0.06127  0.27385  1.0000
  H   H1143     1.0  0.56341  0.99408  0.44558  1.0000
  C   C662      1.0  0.50470  0.07603  0.35400  1.0000
  H   H1144     1.0  0.63659  0.05317  0.46616  1.0000
  H   H1145     1.0  0.54502  0.08050  0.29352  1.0000
  H   H1146     1.0  0.50137  0.04647  0.32015  1.0000
  H   H1147     1.0  0.50350  0.23027  0.70140  1.0000
  H   H1148     1.0  0.62710  0.18045  0.97513  1.0000
  C   C663      1.0  0.52968  0.05490  0.36609  1.0000
  H   H1149     1.0  0.51176  0.22832  0.76445  1.0000
  H   H1150     1.0  0.52862  0.09065  0.32747  1.0000
  H   H1151     1.0  0.52312  0.06377  0.25567  1.0000
  S   S185      1.0  0.48208  0.18320  0.53220  1.0000
  H   H1152     1.0  0.50106  0.03476  0.01768  1.0000
  S   S186      1.0  0.48069  0.23554  0.98957  1.0000
  C   C664      1.0  0.68386  0.23015  0.05233  1.0000
  Fe  Fe95      1.0  0.48313  0.23285  0.61269  1.0000
  H   H1153     1.0  0.70099  0.17339  0.57036  1.0000
  C   C665      1.0  0.72362  0.22732  0.76417  1.0000
  C   C666      1.0  0.49465  0.22955  0.72237  1.0000
  H   H1154     1.0  0.71798  0.23456  0.77906  1.0000
  H   H1155     1.0  0.50404  0.08348  0.37805  1.0000
  H   H1156     1.0  0.48974  0.20425  0.66004  1.0000
  Fe  Fe96      1.0  0.72589  0.22631  0.60481  1.0000
  S   S187      1.0  0.48210  0.05362  0.48875  1.0000
  C   C667      1.0  0.72415  0.22810  0.72628  1.0000
  H   H1157     1.0  0.60223  0.98822  0.12450  1.0000
  H   H1158     1.0  0.60789  0.23500  0.45245  1.0000
  H   H1159     1.0  0.64373  0.22644  0.49936  1.0000
  S   S188      1.0  0.71314  0.23317  0.50836  1.0000
  H   H1160     1.0  0.58217  0.23552  0.08288  1.0000
  H   H1161     1.0  0.68061  0.23497  0.97831  1.0000
  S   S189      1.0  0.72083  0.23624  0.98371  1.0000
  H   H1162     1.0  0.55651  0.23588  0.12230  1.0000
  H   H1163     1.0  0.65271  0.23580  0.07414  1.0000
  S   S190      1.0  0.49385  0.25520  0.91346  1.0000
  H   H1164     1.0  0.60437  0.24324  0.09722  1.0000
  S   S191      1.0  0.52904  0.26835  0.98561  1.0000
  C   C668      1.0  0.58535  0.27852  0.10759  1.0000
  S   S192      1.0  0.49713  0.25861  0.58547  1.0000
  H   H1165     1.0  0.51954  0.26182  0.85037  1.0000
  S   S193      1.0  0.54412  0.26548  0.56757  1.0000
  H   H1166     1.0  0.55067  0.43348  0.20304  1.0000
  H   H1167     1.0  0.70702  0.37413  0.00979  1.0000
  H   H1168     1.0  0.64762  0.25174  0.05291  1.0000
  H   H1169     1.0  0.63132  0.28736  0.55813  1.0000
  S   S194      1.0  0.70007  0.41010  0.93138  1.0000
  H   H1170     1.0  0.50609  0.41428  0.26572  1.0000
  S   S195      1.0  0.70511  0.45701  0.91044  1.0000
  Fe  Fe97      1.0  0.63676  0.30662  0.12346  1.0000
  S   S196      1.0  0.66446  0.32470  0.11210  1.0000
  S   S197      1.0  0.62509  0.29652  0.17716  1.0000
  Fe  Fe98      1.0  0.62711  0.29804  0.04418  1.0000
  S   S198      1.0  0.65418  0.31579  0.02639  1.0000
  S   S199      1.0  0.60706  0.27783  0.00676  1.0000
  Fe  Fe99      1.0  0.66347  0.30462  0.07148  1.0000
  S   S200      1.0  0.68581  0.29681  0.07063  1.0000
  Fe  Fe100     1.0  0.65315  0.33472  0.06795  1.0000
  S   S201      1.0  0.66542  0.36439  0.06553  1.0000
  S   S202      1.0  0.63674  0.28563  0.08635  1.0000
  S   S203      1.0  0.62512  0.31787  0.08225  1.0000
  N   N48       1.0  0.61893  0.25073  0.50055  1.0000
  S   S204      1.0  0.71570  0.45831  0.57691  1.0000
  H   H1171     1.0  0.58048  0.30014  0.08790  1.0000
  C   C669      1.0  0.51299  0.37313  0.98459  1.0000
  H   H1172     1.0  0.56615  0.27309  0.16801  1.0000
  H   H1173     1.0  0.70053  0.41208  0.70688  1.0000
  Fe  Fe101     1.0  0.62031  0.30418  0.43104  1.0000
  S   S205      1.0  0.64134  0.31067  0.47329  1.0000
  S   S206      1.0  0.59304  0.28208  0.43357  1.0000
  Fe  Fe102     1.0  0.64559  0.32854  0.37697  1.0000
  S   S207      1.0  0.66857  0.33682  0.41536  1.0000
  S   S208      1.0  0.65120  0.34057  0.32230  1.0000
  Fe  Fe103     1.0  0.65788  0.30847  0.42917  1.0000
  S   S209      1.0  0.67360  0.29259  0.42644  1.0000
  Fe  Fe104     1.0  0.65020  0.33855  0.45606  1.0000
  S   S210      1.0  0.65600  0.36026  0.49766  1.0000
  S   S211      1.0  0.63631  0.30015  0.38776  1.0000
  S   S212      1.0  0.62777  0.33216  0.41676  1.0000
  H   H1174     1.0  0.69483  0.32818  0.02552  1.0000
  H   H1175     1.0  0.48468  0.35702  0.22282  1.0000
  S   S213      1.0  0.55423  0.45577  0.10838  1.0000
  H   H1176     1.0  0.56161  0.28333  0.10708  1.0000
  S   S214      1.0  0.56156  0.46601  0.47343  1.0000
  C   C670      1.0  0.51752  0.42290  0.40859  1.0000
  C   C671      1.0  0.53145  0.43597  0.39124  1.0000
  C   C672      1.0  0.54489  0.44942  0.41088  1.0000
  C   C673      1.0  0.54455  0.44974  0.44804  1.0000
  C   C674      1.0  0.53055  0.43677  0.46542  1.0000
  C   C675      1.0  0.51700  0.42340  0.44574  1.0000
  H   H1177     1.0  0.53188  0.43566  0.36251  1.0000
  H   H1178     1.0  0.55563  0.45939  0.39733  1.0000
  H   H1179     1.0  0.53025  0.43697  0.49418  1.0000
  H   H1180     1.0  0.50633  0.41335  0.45929  1.0000
  C   C676      1.0  0.50809  0.41583  0.04228  1.0000
  C   C677      1.0  0.50778  0.41598  0.07946  1.0000
  C   C678      1.0  0.52212  0.42820  0.09937  1.0000
  C   C679      1.0  0.53677  0.44042  0.08227  1.0000
  C   C680      1.0  0.53714  0.44020  0.04510  1.0000
  C   C681      1.0  0.52284  0.42791  0.02517  1.0000
  H   H1181     1.0  0.56585  0.24716  0.05815  1.0000
  H   H1182     1.0  0.52177  0.42830  0.12813  1.0000
  H   H1183     1.0  0.54846  0.44946  0.03174  1.0000
  H   H1184     1.0  0.52316  0.42783  0.99640  1.0000
  C   C682      1.0  0.67874  0.28386  0.46484  1.0000
  C   C683      1.0  0.68526  0.27127  0.46085  1.0000
  C   C684      1.0  0.69025  0.26457  0.49080  1.0000
  C   C685      1.0  0.68885  0.27051  0.52498  1.0000
  C   C686      1.0  0.68196  0.28282  0.52899  1.0000
  C   C687      1.0  0.67691  0.28949  0.49903  1.0000
  H   H1185     1.0  0.68662  0.26679  0.43448  1.0000
  H   H1186     1.0  0.51693  0.29748  0.42759  1.0000
  C   C688      1.0  0.49037  0.32399  0.96131  1.0000
  H   H1187     1.0  0.67199  0.29926  0.50237  1.0000
  C   C689      1.0  0.70696  0.41067  0.50033  1.0000
  C   C690      1.0  0.70449  0.39730  0.47531  1.0000
  C   C691      1.0  0.68888  0.38184  0.47402  1.0000
  C   C692      1.0  0.67570  0.37957  0.49799  1.0000
  C   C693      1.0  0.67820  0.39296  0.52307  1.0000
  C   C694      1.0  0.69374  0.40852  0.52412  1.0000
  H   H1188     1.0  0.70109  0.45994  0.04549  1.0000
  H   H1189     1.0  0.68710  0.37164  0.45459  1.0000
  H   H1190     1.0  0.66801  0.39126  0.54165  1.0000
  H   H1191     1.0  0.69552  0.41882  0.54326  1.0000
  C   C695      1.0  0.68897  0.28682  0.03173  1.0000
  C   C696      1.0  0.67894  0.28506  0.00073  1.0000
  C   C697      1.0  0.68239  0.27788  0.96950  1.0000
  C   C698      1.0  0.69553  0.27197  0.96938  1.0000
  C   C699      1.0  0.70529  0.27337  0.00061  1.0000
  C   C700      1.0  0.70211  0.28092  0.03161  1.0000
  H   H1192     1.0  0.66863  0.28935  0.00072  1.0000
  H   H1193     1.0  0.67474  0.27671  0.94544  1.0000
  H   H1194     1.0  0.66271  0.31136  0.26217  1.0000
  H   H1195     1.0  0.70991  0.28227  0.05552  1.0000
  C   C701      1.0  0.63200  0.30921  0.21706  1.0000
  C   C702      1.0  0.62506  0.30145  0.24947  1.0000
  C   C703      1.0  0.63056  0.31099  0.28190  1.0000
  C   C704      1.0  0.64301  0.32842  0.28212  1.0000
  C   C705      1.0  0.64974  0.33624  0.24966  1.0000
  C   C706      1.0  0.64434  0.32666  0.21726  1.0000
  H   H1196     1.0  0.61543  0.28798  0.24952  1.0000
  H   H1197     1.0  0.62520  0.30488  0.30671  1.0000
  H   H1198     1.0  0.65936  0.34973  0.24962  1.0000
  H   H1199     1.0  0.64974  0.33279  0.19248  1.0000
  C   C707      1.0  0.69136  0.39731  0.96907  1.0000
  C   C708      1.0  0.67887  0.37992  0.96409  1.0000
  C   C709      1.0  0.67109  0.36950  0.99343  1.0000
  C   C710      1.0  0.67575  0.37646  0.02801  1.0000
  C   C711      1.0  0.68850  0.39374  0.03301  1.0000
  C   C712      1.0  0.69636  0.40411  0.00369  1.0000
  H   H1200     1.0  0.67496  0.37457  0.93735  1.0000
  H   H1201     1.0  0.66120  0.35625  0.98927  1.0000
  H   H1202     1.0  0.69231  0.39914  0.05974  1.0000
  H   H1203     1.0  0.70622  0.41736  0.00788  1.0000
  H   H1204     1.0  0.55922  0.42397  0.17051  1.0000
  C   C713      1.0  0.55758  0.26981  0.53016  1.0000
  C   C714      1.0  0.57422  0.28399  0.53179  1.0000
  C   C715      1.0  0.58521  0.28802  0.50233  1.0000
  C   C716      1.0  0.57966  0.27779  0.47108  1.0000
  C   C717      1.0  0.56309  0.26353  0.46954  1.0000
  C   C718      1.0  0.55208  0.25954  0.49894  1.0000
  H   H1205     1.0  0.57857  0.29196  0.55592  1.0000
  H   H1206     1.0  0.59795  0.29901  0.50383  1.0000
  Fe  Fe105     1.0  0.71631  0.43960  0.93405  1.0000
  H   H1207     1.0  0.55362  0.48385  0.58098  1.0000
  C   C719      1.0  0.55052  0.27042  0.99161  1.0000
  C   C720      1.0  0.56324  0.28606  0.00673  1.0000
  C   C721      1.0  0.58060  0.28846  0.01173  1.0000
  C   C722      1.0  0.58538  0.27526  0.00134  1.0000
  C   C723      1.0  0.57268  0.25962  0.98612  1.0000
  C   C724      1.0  0.55522  0.25709  0.98177  1.0000
  H   H1208     1.0  0.55965  0.29641  0.01452  1.0000
  H   H1209     1.0  0.59034  0.30060  0.02315  1.0000
  C   C725      1.0  0.48478  0.36106  0.95284  1.0000
  H   H1210     1.0  0.63470  0.26832  0.56650  1.0000
  H   H1211     1.0  0.52129  0.27800  0.51651  1.0000
  H   H1212     1.0  0.54173  0.32671  0.50020  1.0000
  C   C726      1.0  0.69052  0.32684  0.95220  1.0000
  H   H1213     1.0  0.64625  0.25589  0.49616  1.0000
  H   H1214     1.0  0.57362  0.47754  0.25145  1.0000
  H   H1215     1.0  0.69537  0.25498  0.48738  1.0000
  H   H1216     1.0  0.48616  0.44581  0.06305  1.0000
  H   H1217     1.0  0.52609  0.29000  0.87017  1.0000
  H   H1218     1.0  0.68915  0.34576  0.02992  1.0000
  H   H1219     1.0  0.70530  0.30098  0.34284  1.0000
  H   H1220     1.0  0.56207  0.30011  0.42999  1.0000
  H   H1221     1.0  0.63689  0.24641  0.53653  1.0000
  H   H1222     1.0  0.55538  0.30701  0.49568  1.0000
  S   S215      1.0  0.50136  0.40596  0.38280  1.0000
  H   H1223     1.0  0.63725  0.26009  0.33141  1.0000
  C   C727      1.0  0.53086  0.31853  0.48149  1.0000
  H   H1224     1.0  0.52572  0.27297  0.42703  1.0000
  H   H1225     1.0  0.58078  0.24924  0.20131  1.0000
  H   H1226     1.0  0.53936  0.24853  0.49747  1.0000
  H   H1227     1.0  0.54544  0.24489  0.97067  1.0000
  H   H1228     1.0  0.66352  0.40442  0.99317  1.0000
  C   C728      1.0  0.72663  0.34705  0.99089  1.0000
  H   H1229     1.0  0.49105  0.36681  0.92750  1.0000
  Fe  Fe106     1.0  0.51507  0.24738  0.56494  1.0000
  H   H1230     1.0  0.52478  0.37550  0.93164  1.0000
  H   H1231     1.0  0.50248  0.26491  0.42330  1.0000
  H   H1232     1.0  0.72327  0.34709  0.06365  1.0000
  C   C729      1.0  0.57601  0.29062  0.10971  1.0000
  H   H1233     1.0  0.53249  0.41171  0.26315  1.0000
  H   H1234     1.0  0.70174  0.32609  0.32053  1.0000
  H   H1235     1.0  0.50759  0.40813  0.31008  1.0000
  C   C730      1.0  0.71787  0.37077  0.00226  1.0000
  C   C731      1.0  0.48802  0.34970  0.01071  1.0000
  H   H1236     1.0  0.58470  0.24170  0.14592  1.0000
  C   C732      1.0  0.62586  0.27302  0.55298  1.0000
  C   C733      1.0  0.50215  0.34370  0.95702  1.0000
  H   H1237     1.0  0.59028  0.27677  0.84444  1.0000
  C   C734      1.0  0.49964  0.34733  0.04024  1.0000
  C   C735      1.0  0.61553  0.47682  0.19968  1.0000
  C   C736      1.0  0.54367  0.25874  0.89142  1.0000
  H   H1238     1.0  0.67799  0.42608  0.63498  1.0000
  H   H1239     1.0  0.69845  0.27860  0.33191  1.0000
  C   C737      1.0  0.55944  0.24949  0.11466  1.0000
  H   H1240     1.0  0.51822  0.38599  0.29717  1.0000
  Fe  Fe107     1.0  0.70901  0.24479  0.55915  1.0000
  C   C738      1.0  0.48706  0.36970  0.21114  1.0000
  S   S216      1.0  0.60357  0.48628  0.10011  1.0000
  H   H1241     1.0  0.52947  0.25163  0.82417  1.0000
  H   H1242     1.0  0.49117  0.33889  0.06111  1.0000
  Fe  Fe108     1.0  0.71337  0.24532  0.93312  1.0000
  H   H1243     1.0  0.60671  0.23797  0.54931  1.0000
  H   H1244     1.0  0.71757  0.38185  0.94957  1.0000
  C   C739      1.0  0.69942  0.34633  0.96321  1.0000
  H   H1245     1.0  0.50785  0.34110  0.03013  1.0000
  H   H1246     1.0  0.50811  0.36009  0.05337  1.0000
  H   H1247     1.0  0.61116  0.47645  0.27746  1.0000
  C   C740      1.0  0.56292  0.27181  0.84029  1.0000
  H   H1248     1.0  0.65437  0.42900  0.94545  1.0000
  H   H1249     1.0  0.49025  0.35114  0.28830  1.0000
  H   H1250     1.0  0.63393  0.42358  0.01369  1.0000
  N   N49       1.0  0.54753  0.27107  0.86086  1.0000
  H   H1251     1.0  0.48827  0.39493  0.22290  1.0000
  C   C741      1.0  0.55172  0.28908  0.87596  1.0000
  C   C742      1.0  0.72474  0.41023  0.71433  1.0000
  C   C743      1.0  0.53180  0.26456  0.83600  1.0000
  N   N50       1.0  0.52828  0.29980  0.48102  1.0000
  C   C744      1.0  0.53618  0.29171  0.89093  1.0000
  H   H1252     1.0  0.52028  0.40168  0.22265  1.0000
  C   C745      1.0  0.53282  0.27604  0.80378  1.0000
  C   C746      1.0  0.59360  0.24725  0.09328  1.0000
  H   H1253     1.0  0.50160  0.28747  0.46046  1.0000
  H   H1254     1.0  0.55807  0.29933  0.85603  1.0000
  H   H1255     1.0  0.56153  0.29250  0.89829  1.0000
  H   H1256     1.0  0.56317  0.32126  0.44248  1.0000
  C   C747      1.0  0.51494  0.28981  0.45221  1.0000
  H   H1257     1.0  0.53876  0.27240  0.78079  1.0000
  C   C748      1.0  0.69889  0.39195  0.65131  1.0000
  H   H1258     1.0  0.69828  0.30125  0.28387  1.0000
  C   C749      1.0  0.54192  0.47811  0.56315  1.0000
  C   C750      1.0  0.52598  0.39924  0.24757  1.0000
  H   H1259     1.0  0.68265  0.24163  0.06419  1.0000
  H   H1260     1.0  0.54097  0.30528  0.90182  1.0000
  H   H1261     1.0  0.65787  0.45941  0.04500  1.0000
  C   C751      1.0  0.66121  0.42084  0.95234  1.0000
  H   H1262     1.0  0.48722  0.42219  0.29929  1.0000
  H   H1263     1.0  0.53627  0.39504  0.24032  1.0000
  H   H1264     1.0  0.50703  0.45367  0.08496  1.0000
  H   H1265     1.0  0.54014  0.29019  0.80954  1.0000
  C   C752      1.0  0.59787  0.46680  0.28439  1.0000
  H   H1266     1.0  0.56525  0.42390  0.21635  1.0000
  H   H1267     1.0  0.68407  0.28489  0.35550  1.0000
  H   H1268     1.0  0.71465  0.39889  0.45676  1.0000
  H   H1269     1.0  0.67367  0.30426  0.35296  1.0000
  C   C753      1.0  0.59882  0.47852  0.21051  1.0000
  H   H1270     1.0  0.57948  0.29837  0.13511  1.0000
  H   H1271     1.0  0.68388  0.42266  0.67885  1.0000
  N   N51       1.0  0.66505  0.43937  0.48217  1.0000
  C   C754      1.0  0.65763  0.43949  0.44550  1.0000
  C   C755      1.0  0.66087  0.42078  0.49146  1.0000
  C   C756      1.0  0.68465  0.44980  0.48369  1.0000
  C   C757      1.0  0.65711  0.44743  0.50818  1.0000
  C   C758      1.0  0.66204  0.45772  0.43044  1.0000
  C   C759      1.0  0.64132  0.40828  0.49401  1.0000
  C   C760      1.0  0.69482  0.44515  0.45482  1.0000
  C   C761      1.0  0.66124  0.44624  0.54794  1.0000
  H   H1272     1.0  0.66173  0.43204  0.42598  1.0000
  H   H1273     1.0  0.64312  0.43264  0.44523  1.0000
  H   H1274     1.0  0.66737  0.42037  0.51714  1.0000
  H   H1275     1.0  0.66617  0.41465  0.47142  1.0000
  H   H1276     1.0  0.68835  0.46406  0.48245  1.0000
  H   H1277     1.0  0.69021  0.44817  0.50964  1.0000
  H   H1278     1.0  0.66159  0.46154  0.50305  1.0000
  H   H1279     1.0  0.64265  0.44171  0.50452  1.0000
  H   H1280     1.0  0.65664  0.45615  0.40281  1.0000
  H   H1281     1.0  0.65589  0.46477  0.44586  1.0000
  N   N52       1.0  0.71012  0.41139  0.65375  1.0000
  H   H1282     1.0  0.63459  0.41277  0.51400  1.0000
  H   H1283     1.0  0.63439  0.40608  0.46783  1.0000
  H   H1284     1.0  0.64015  0.39532  0.50250  1.0000
  H   H1285     1.0  0.66938  0.46907  0.95129  1.0000
  H   H1286     1.0  0.69145  0.44774  0.42761  1.0000
  C   C762      1.0  0.65072  0.47660  0.97660  1.0000
  H   H1287     1.0  0.65516  0.43262  0.55721  1.0000
  H   H1288     1.0  0.65578  0.45379  0.56392  1.0000
  H   H1289     1.0  0.67546  0.45213  0.55404  1.0000
  N   N53       1.0  0.58367  0.46201  0.22134  1.0000
  C   C763      1.0  0.55955  0.47137  0.20132  1.0000
  C   C764      1.0  0.58854  0.45407  0.25291  1.0000
  C   C765      1.0  0.57845  0.44923  0.19029  1.0000
  C   C766      1.0  0.50019  0.45491  0.06066  1.0000
  C   C767      1.0  0.56244  0.43172  0.19591  1.0000
  H   H1290     1.0  0.55865  0.45548  0.24604  1.0000
  H   H1291     1.0  0.70900  0.45350  0.45917  1.0000
  H   H1292     1.0  0.59688  0.44749  0.24507  1.0000
  H   H1293     1.0  0.57670  0.44344  0.26395  1.0000
  H   H1294     1.0  0.57596  0.45521  0.16596  1.0000
  H   H1295     1.0  0.58938  0.44590  0.18319  1.0000
  H   H1296     1.0  0.71551  0.26896  0.00071  1.0000
  S   S217      1.0  0.72638  0.45599  0.98388  1.0000
  S   S218      1.0  0.69929  0.26276  0.92994  1.0000
  H   H1297     1.0  0.49525  0.47304  0.02895  1.0000
  H   H1298     1.0  0.49476  0.31630  0.94309  1.0000
  H   H1299     1.0  0.64021  0.46911  0.95792  1.0000
  H   H1300     1.0  0.69987  0.41971  0.60767  1.0000
  H   H1301     1.0  0.51938  0.27403  0.79583  1.0000
  H   H1302     1.0  0.61594  0.27504  0.50079  1.0000
  S   S219      1.0  0.49028  0.40083  0.01646  1.0000
  H   H1303     1.0  0.64953  0.44150  0.07546  1.0000
  H   H1304     1.0  0.52601  0.29353  0.57346  1.0000
  H   H1305     1.0  0.50784  0.28905  0.51991  1.0000
  H   H1306     1.0  0.70012  0.32213  0.94283  1.0000
  H   H1307     1.0  0.66168  0.31215  0.32620  1.0000
  H   H1308     1.0  0.58990  0.25600  0.51647  1.0000
  H   H1309     1.0  0.49358  0.47600  0.07514  1.0000
  H   H1310     1.0  0.56864  0.48165  0.18420  1.0000
  H   H1311     1.0  0.68084  0.28746  0.55538  1.0000
  C   C768      1.0  0.68947  0.32737  0.32514  1.0000
  H   H1312     1.0  0.56611  0.28161  0.81894  1.0000
  C   C769      1.0  0.51219  0.38507  0.27011  1.0000
  H   H1313     1.0  0.49645  0.40673  0.09284  1.0000
  N   N54       1.0  0.57735  0.26207  0.12873  1.0000
  C   C770      1.0  0.51398  0.27178  0.44148  1.0000
  H   H1314     1.0  0.68514  0.31669  0.25804  1.0000
  H   H1315     1.0  0.54576  0.30219  0.54993  1.0000
  H   H1316     1.0  0.51847  0.46980  0.99358  1.0000
  H   H1317     1.0  0.68756  0.33569  0.30450  1.0000
  S   S220      1.0  0.69613  0.26338  0.56313  1.0000
  C   C771      1.0  0.67346  0.30951  0.32630  1.0000
  C   C772      1.0  0.65446  0.28102  0.29856  1.0000
  H   H1318     1.0  0.65721  0.41009  0.93199  1.0000
  H   H1319     1.0  0.67604  0.28644  0.22635  1.0000
  H   H1320     1.0  0.64368  0.28516  0.29556  1.0000
  H   H1321     1.0  0.62973  0.40469  0.05914  1.0000
  H   H1322     1.0  0.67134  0.30256  0.20421  1.0000
  H   H1323     1.0  0.59028  0.47381  0.29413  1.0000
  H   H1324     1.0  0.51798  0.33560  0.49020  1.0000
  N   N55       1.0  0.67193  0.29667  0.29667  1.0000
  H   H1325     1.0  0.68248  0.31850  0.97341  1.0000
  S   S221      1.0  0.62618  0.48570  0.00752  1.0000
  H   H1326     1.0  0.70619  0.38476  0.66195  1.0000
  C   C773      1.0  0.67219  0.30554  0.26192  1.0000
  H   H1327     1.0  0.51219  0.26342  0.46476  1.0000
  N   N56       1.0  0.49499  0.38622  0.27290  1.0000
  H   H1328     1.0  0.54003  0.47077  0.99684  1.0000
  Fe  Fe109     1.0  0.71668  0.47433  0.95870  1.0000
  H   H1329     1.0  0.59808  0.25756  0.07316  1.0000
  C   C774      1.0  0.70060  0.34260  0.02789  1.0000
  H   H1330     1.0  0.57848  0.26690  0.88308  1.0000
  Fe  Fe110     1.0  0.72252  0.48415  0.55046  1.0000
  H   H1331     1.0  0.71945  0.40646  0.58168  1.0000
  H   H1332     1.0  0.63485  0.44633  0.04947  1.0000
  C   C775      1.0  0.65104  0.27012  0.33238  1.0000
  H   H1333     1.0  0.65266  0.27794  0.35714  1.0000
  H   H1334     1.0  0.64239  0.40361  0.98778  1.0000
  H   H1335     1.0  0.69236  0.48212  0.85426  1.0000
  H   H1336     1.0  0.71941  0.39579  0.71408  1.0000
  H   H1337     1.0  0.70993  0.43604  0.64068  1.0000
  H   H1338     1.0  0.50011  0.37528  0.19906  1.0000
  H   H1339     1.0  0.54502  0.47312  0.53807  1.0000
  H   H1340     1.0  0.55131  0.45983  0.18444  1.0000
  H   H1341     1.0  0.58476  0.28981  0.87501  1.0000
  C   C776      1.0  0.57994  0.27660  0.86241  1.0000
  C   C777      1.0  0.64778  0.44591  0.04883  1.0000
  C   C778      1.0  0.62461  0.26951  0.51242  1.0000
  H   H1342     1.0  0.68303  0.27886  0.28150  1.0000
  C   C779      1.0  0.65651  0.41280  0.98952  1.0000
  C   C780      1.0  0.53226  0.30111  0.54968  1.0000
  H   H1343     1.0  0.65260  0.27156  0.27628  1.0000
  H   H1344     1.0  0.53019  0.28292  0.91326  1.0000
  H   H1345     1.0  0.68144  0.32512  0.92926  1.0000
  H   H1346     1.0  0.65403  0.28515  0.22488  1.0000
  H   H1347     1.0  0.69095  0.33443  0.35104  1.0000
  C   C781      1.0  0.69370  0.28892  0.33418  1.0000
  H   H1348     1.0  0.51000  0.31702  0.51787  1.0000
  C   C782      1.0  0.51461  0.32141  0.49078  1.0000
  C   C783      1.0  0.68675  0.29125  0.29720  1.0000
  C   C784      1.0  0.52164  0.29128  0.51609  1.0000
  C   C785      1.0  0.66818  0.29402  0.22772  1.0000
  S   S222      1.0  0.72682  0.42975  0.50105  1.0000
  H   H1349     1.0  0.65928  0.26291  0.33364  1.0000
  C   C786      1.0  0.56994  0.25271  0.19401  1.0000
  C   C787      1.0  0.54563  0.29948  0.47448  1.0000
  H   H1350     1.0  0.59914  0.28647  0.11665  1.0000
  C   C788      1.0  0.66731  0.47655  0.97276  1.0000
  C   C789      1.0  0.49886  0.40450  0.28593  1.0000
  C   C790      1.0  0.55431  0.30713  0.43902  1.0000
  C   C791      1.0  0.70145  0.42178  0.63687  1.0000
  N   N57       1.0  0.71120  0.35127  0.99603  1.0000
  H   H1351     1.0  0.55874  0.25551  0.44548  1.0000
  C   C792      1.0  0.56890  0.46643  0.23184  1.0000
  H   H1352     1.0  0.53246  0.31418  0.55346  1.0000
  H   H1353     1.0  0.57631  0.24934  0.97814  1.0000
  H   H1354     1.0  0.53153  0.25731  0.90477  1.0000
  H   H1355     1.0  0.63778  0.27785  0.50223  1.0000
  H   H1356     1.0  0.59948  0.45931  0.30705  1.0000
  H   H1357     1.0  0.50316  0.34617  0.92794  1.0000
  H   H1358     1.0  0.48187  0.37129  0.96635  1.0000
  C   C793      1.0  0.52674  0.48334  0.12198  1.0000
  H   H1359     1.0  0.56639  0.25750  0.21894  1.0000
  C   C794      1.0  0.61387  0.24894  0.46155  1.0000
  H   H1360     1.0  0.70254  0.33831  0.08440  1.0000
  H   H1361     1.0  0.69307  0.43145  0.45633  1.0000
  H   H1362     1.0  0.58622  0.27565  0.07904  1.0000
  H   H1363     1.0  0.51044  0.37220  0.25904  1.0000
  H   H1364     1.0  0.72948  0.27833  0.51893  1.0000
  N   N58       1.0  0.49684  0.35646  0.97607  1.0000
  C   C795      1.0  0.64665  0.23827  0.04981  1.0000
  H   H1365     1.0  0.54485  0.30550  0.41709  1.0000
  C   C796      1.0  0.55596  0.24906  0.07410  1.0000
  C   C797      1.0  0.69200  0.38375  0.61404  1.0000
  H   H1366     1.0  0.63738  0.38948  0.03969  1.0000
  C   C798      1.0  0.68831  0.44924  0.05236  1.0000
  C   C799      1.0  0.48432  0.37372  0.30079  1.0000
  H   H1367     1.0  0.67550  0.42852  0.94974  1.0000
  C   C800      1.0  0.58975  0.25353  0.12936  1.0000
  H   H1368     1.0  0.67976  0.44927  0.99805  1.0000
  H   H1369     1.0  0.58839  0.27791  0.17670  1.0000
  H   H1370     1.0  0.68749  0.38799  0.66906  1.0000
  H   H1371     1.0  0.72535  0.41461  0.74257  1.0000
  H   H1372     1.0  0.50373  0.31485  0.47113  1.0000
  H   H1373     1.0  0.55834  0.24090  0.18454  1.0000
  H   H1374     1.0  0.51365  0.47326  0.12872  1.0000
  C   C801      1.0  0.72385  0.32813  0.99859  1.0000
  H   H1375     1.0  0.68887  0.35073  0.96643  1.0000
  H   H1376     1.0  0.49139  0.31967  0.98860  1.0000
  N   N59       1.0  0.66036  0.42557  0.02058  1.0000
  C   C802      1.0  0.72705  0.31410  0.50808  1.0000
  H   H1377     1.0  0.64024  0.39459  0.08605  1.0000
  H   H1378     1.0  0.68748  0.43334  0.00761  1.0000
  H   H1379     1.0  0.71651  0.31693  0.49596  1.0000
  H   H1380     1.0  0.54477  0.28609  0.47673  1.0000
  H   H1381     1.0  0.53504  0.32439  0.45499  1.0000
  C   C803      1.0  0.65608  0.23730  0.01566  1.0000
  C   C804      1.0  0.48286  0.40794  0.29465  1.0000
  Fe  Fe111     1.0  0.48068  0.24589  0.53663  1.0000
  C   C805      1.0  0.57577  0.26740  0.16658  1.0000
  H   H1382     1.0  0.53226  0.46655  0.57679  1.0000
  H   H1383     1.0  0.57915  0.23747  0.54241  1.0000
  C   C806      1.0  0.50189  0.47361  0.05511  1.0000
  H   H1384     1.0  0.72740  0.37538  0.02511  1.0000
  H   H1385     1.0  0.61792  0.46692  0.21471  1.0000
  H   H1386     1.0  0.55412  0.26413  0.91240  1.0000
  H   H1387     1.0  0.66809  0.40982  0.05505  1.0000
  H   H1388     1.0  0.72110  0.30555  0.53086  1.0000
  H   H1389     1.0  0.70673  0.35301  0.93943  1.0000
  H   H1390     1.0  0.68919  0.39237  0.59590  1.0000
  H   H1391     1.0  0.69125  0.44062  0.07060  1.0000
  H   H1392     1.0  0.72635  0.27711  0.43026  1.0000
  C   C807      1.0  0.64761  0.43363  0.01803  1.0000
  Fe  Fe112     1.0  0.57571  0.47972  0.08484  1.0000
  H   H1393     1.0  0.64996  0.44156  0.99377  1.0000
  C   C808      1.0  0.65840  0.41544  0.05419  1.0000
  C   C809      1.0  0.67896  0.43931  0.01782  1.0000
  C   C810      1.0  0.52267  0.38377  0.95241  1.0000
  H   H1394     1.0  0.54900  0.25226  0.12700  1.0000
  H   H1395     1.0  0.48269  0.35863  0.02186  1.0000
  Fe  Fe113     1.0  0.50546  0.24636  0.95877  1.0000
  H   H1396     1.0  0.68101  0.45541  0.06647  1.0000
  H   H1397     1.0  0.53374  0.47163  0.05713  1.0000
  C   C811      1.0  0.64028  0.40026  0.05954  1.0000
  H   H1398     1.0  0.66147  0.42392  0.07842  1.0000
  H   H1399     1.0  0.71914  0.43121  0.69608  1.0000
  H   H1400     1.0  0.67628  0.46599  0.42915  1.0000
  H   H1401     1.0  0.61281  0.26721  0.56516  1.0000
  H   H1402     1.0  0.67213  0.47745  0.87502  1.0000
  H   H1403     1.0  0.67384  0.40439  0.64723  1.0000
  C   C812      1.0  0.53212  0.47806  0.00253  1.0000
  H   H1404     1.0  0.55068  0.47652  0.21292  1.0000
  H   H1405     1.0  0.60254  0.26259  0.14190  1.0000
  C   C813      1.0  0.48496  0.38268  0.23780  1.0000
  H   H1406     1.0  0.71226  0.36083  0.07341  1.0000
  H   H1407     1.0  0.52651  0.47778  0.48725  1.0000
  C   C814      1.0  0.63398  0.24605  0.50747  1.0000
  C   C815      1.0  0.71310  0.41672  0.69276  1.0000
  C   C816      1.0  0.71047  0.34765  0.06417  1.0000
  H   H1408     1.0  0.55503  0.26107  0.06543  1.0000
  H   H1409     1.0  0.70120  0.37935  0.60126  1.0000
  H   H1410     1.0  0.51547  0.34561  0.96588  1.0000
  H   H1411     1.0  0.63455  0.27346  0.44258  1.0000
  C   C817      1.0  0.62877  0.25927  0.43630  1.0000
  H   H1412     1.0  0.52281  0.37036  0.00000  1.0000
  C   C818      1.0  0.60337  0.23854  0.52071  1.0000
  H   H1413     1.0  0.53569  0.39385  0.96157  1.0000
  H   H1414     1.0  0.53543  0.47725  0.11425  1.0000
  H   H1415     1.0  0.72131  0.29267  0.47269  1.0000
  H   H1416     1.0  0.50983  0.38204  0.00209  1.0000
  C   C819      1.0  0.58690  0.24200  0.51799  1.0000
  H   H1417     1.0  0.52095  0.48352  0.54314  1.0000
  H   H1418     1.0  0.61510  0.47371  0.17075  1.0000
  C   C820      1.0  0.68325  0.41831  0.65068  1.0000
  H   H1419     1.0  0.63921  0.25468  0.43657  1.0000
  H   H1420     1.0  0.72917  0.32740  0.02541  1.0000
  H   H1421     1.0  0.67925  0.37218  0.61657  1.0000
  H   H1422     1.0  0.55973  0.25919  0.82587  1.0000
  H   H1423     1.0  0.62338  0.25747  0.40861  1.0000
  H   H1424     1.0  0.50494  0.45012  0.03749  1.0000
  H   H1425     1.0  0.71027  0.31808  0.99594  1.0000
  C   C821      1.0  0.72895  0.41797  0.59679  1.0000
  C   C822      1.0  0.53369  0.48287  0.04263  1.0000
  H   H1426     1.0  0.59518  0.48428  0.18718  1.0000
  H   H1427     1.0  0.49139  0.37719  0.32710  1.0000
  H   H1428     1.0  0.51560  0.39097  0.94080  1.0000
  H   H1429     1.0  0.60348  0.25346  0.45666  1.0000
  H   H1430     1.0  0.54314  0.23802  0.06717  1.0000
  H   H1431     1.0  0.66924  0.24846  0.01702  1.0000
  H   H1432     1.0  0.64910  0.24029  0.99334  1.0000
  H   H1433     1.0  0.55303  0.23974  0.87025  1.0000
  C   C823      1.0  0.54126  0.24002  0.88204  1.0000
  H   H1434     1.0  0.72755  0.42980  0.58843  1.0000
  C   C824      1.0  0.72708  0.38245  0.97086  1.0000
  C   C825      1.0  0.72773  0.41601  0.63755  1.0000
  C   C826      1.0  0.68114  0.48629  0.99648  1.0000
  C   C827      1.0  0.64755  0.48624  0.00429  1.0000
  H   H1435     1.0  0.50783  0.52015  0.02345  1.0000
  H   H1436     1.0  0.51113  0.67101  0.70941  1.0000
  H   H1437     1.0  0.49666  0.70699  0.33775  1.0000
  H   H1438     1.0  0.52623  0.64598  0.68078  1.0000
  C   C828      1.0  0.51401  0.68064  0.62573  1.0000
  C   C829      1.0  0.53241  0.56221  0.84180  1.0000
  H   H1439     1.0  0.56679  0.61525  0.87089  1.0000
  H   H1440     1.0  0.52613  0.72016  0.37654  1.0000
  S   S223      1.0  0.58188  0.48722  0.02817  1.0000
  N   N60       1.0  0.70929  0.51657  0.89344  1.0000
  C   C830      1.0  0.51019  0.68199  0.01412  1.0000
  H   H1441     1.0  0.55850  0.49585  0.50346  1.0000
  H   H1442     1.0  0.49245  0.70285  0.41820  1.0000
  S   S224      1.0  0.61393  0.52327  0.05805  1.0000
  H   H1443     1.0  0.58395  0.57707  0.88136  1.0000
  H   H1444     1.0  0.72322  0.51573  0.94164  1.0000
  S   S225      1.0  0.57707  0.50579  0.10193  1.0000
  Fe  Fe114     1.0  0.58494  0.51415  0.04560  1.0000
  S   S226      1.0  0.56846  0.52429  0.01063  1.0000
  Fe  Fe115     1.0  0.60544  0.51299  0.11353  1.0000
  S   S227      1.0  0.61994  0.52551  0.16593  1.0000
  H   H1445     1.0  0.52884  0.66772  0.72860  1.0000
  H   H1446     1.0  0.49198  0.66679  0.41152  1.0000
  Fe  Fe116     1.0  0.50241  0.61191  0.95108  1.0000
  C   C831      1.0  0.50043  0.66287  0.63817  1.0000
  S   S228      1.0  0.49221  0.63205  0.97058  1.0000
  Fe  Fe117     1.0  0.52536  0.59098  0.95337  1.0000
  S   S229      1.0  0.50669  0.56962  0.91739  1.0000
  S   S230      1.0  0.54972  0.58906  0.97761  1.0000
  Fe  Fe118     1.0  0.50517  0.59103  0.88436  1.0000
  S   S231      1.0  0.50171  0.58470  0.82419  1.0000
  C   C832      1.0  0.48872  0.67767  0.50391  1.0000
  S   S232      1.0  0.52528  0.61285  0.91853  1.0000
  S   S233      1.0  0.50434  0.59197  0.98809  1.0000
  Fe  Fe119     1.0  0.59540  0.50881  0.37627  1.0000
  C   C833      1.0  0.68617  0.52887  0.88344  1.0000
  S   S234      1.0  0.58554  0.50851  0.31888  1.0000
  Fe  Fe120     1.0  0.59794  0.52776  0.44835  1.0000
  S   S235      1.0  0.60389  0.50799  0.47848  1.0000
  S   S236      1.0  0.59515  0.55027  0.47860  1.0000
  Fe  Fe121     1.0  0.62164  0.50839  0.43413  1.0000
  S   S237      1.0  0.64860  0.50744  0.43633  1.0000
  H   H1447     1.0  0.56241  0.56114  0.89223  1.0000
  S   S238      1.0  0.61776  0.53023  0.40637  1.0000
  S   S239      1.0  0.57558  0.50778  0.41673  1.0000
  Fe  Fe122     1.0  0.49701  0.60481  0.55203  1.0000
  S   S240      1.0  0.52551  0.61169  0.56341  1.0000
  H   H1448     1.0  0.49370  0.66533  0.66128  1.0000
  H   H1449     1.0  0.51123  0.62988  0.61578  1.0000
  S   S241      1.0  0.51361  0.57301  0.59833  1.0000
  Fe  Fe123     1.0  0.51640  0.59945  0.61712  1.0000
  S   S242      1.0  0.52874  0.61399  0.66963  1.0000
  Fe  Fe124     1.0  0.52018  0.58426  0.54373  1.0000
  S   S243      1.0  0.53292  0.57352  0.50135  1.0000
  H   H1450     1.0  0.52062  0.51490  0.58035  1.0000
  H   H1451     1.0  0.64622  0.49935  0.51307  1.0000
  C   C834      1.0  0.57709  0.55554  0.48588  1.0000
  C   C835      1.0  0.56247  0.54975  0.46276  1.0000
  C   C836      1.0  0.54923  0.55546  0.46791  1.0000
  C   C837      1.0  0.54989  0.56638  0.49717  1.0000
  C   C838      1.0  0.56421  0.57165  0.52102  1.0000
  C   C839      1.0  0.57782  0.56654  0.51499  1.0000
  H   H1452     1.0  0.56144  0.54105  0.44066  1.0000
  H   H1453     1.0  0.53825  0.55125  0.44926  1.0000
  H   H1454     1.0  0.56508  0.58016  0.54346  1.0000
  H   H1455     1.0  0.58906  0.57122  0.53304  1.0000
  C   C840      1.0  0.50901  0.59372  0.78163  1.0000
  C   C841      1.0  0.50164  0.58315  0.75101  1.0000
  C   C842      1.0  0.50737  0.58924  0.71668  1.0000
  C   C843      1.0  0.52070  0.60600  0.71243  1.0000
  C   C844      1.0  0.52802  0.61667  0.74301  1.0000
  C   C845      1.0  0.52218  0.61062  0.77741  1.0000
  H   H1456     1.0  0.53098  0.49477  0.58337  1.0000
  H   H1457     1.0  0.50157  0.58085  0.69351  1.0000
  H   H1458     1.0  0.53835  0.62966  0.74011  1.0000
  H   H1459     1.0  0.52798  0.61894  0.80062  1.0000
  C   C846      1.0  0.61049  0.52215  0.20865  1.0000
  C   C847      1.0  0.59253  0.51651  0.21268  1.0000
  C   C848      1.0  0.58532  0.51302  0.24679  1.0000
  C   C849      1.0  0.59585  0.51474  0.27727  1.0000
  C   C850      1.0  0.61388  0.52075  0.27344  1.0000
  C   C851      1.0  0.62117  0.52465  0.23932  1.0000
  H   H1460     1.0  0.58421  0.51483  0.18945  1.0000
  H   H1461     1.0  0.68724  0.54235  0.88121  1.0000
  H   H1462     1.0  0.62219  0.52222  0.29661  1.0000
  H   H1463     1.0  0.63511  0.52911  0.23652  1.0000
  C   C852      1.0  0.56342  0.54255  0.00273  1.0000
  C   C853      1.0  0.57365  0.55942  0.01650  1.0000
  C   C854      1.0  0.56924  0.57338  0.00865  1.0000
  C   C855      1.0  0.55428  0.57071  0.98775  1.0000
  C   C856      1.0  0.54384  0.55376  0.97464  1.0000
  C   C857      1.0  0.54855  0.53993  0.98149  1.0000
  H   H1464     1.0  0.58515  0.56182  0.03273  1.0000
  H   H1465     1.0  0.57748  0.58638  0.01901  1.0000
  H   H1466     1.0  0.53217  0.55132  0.95903  1.0000
  H   H1467     1.0  0.54052  0.52705  0.97040  1.0000
  S   S244      1.0  0.48417  0.62207  0.52900  1.0000
  H   H1468     1.0  0.55096  0.57887  0.90284  1.0000
  H   H1469     1.0  0.53192  0.57444  0.77325  1.0000
  H   H1470     1.0  0.58332  0.52137  0.52627  1.0000
  C   C858      1.0  0.53390  0.49104  0.55664  1.0000
  N   N61       1.0  0.54465  0.50706  0.53589  1.0000
  H   H1471     1.0  0.60703  0.54503  0.34493  1.0000
  H   H1472     1.0  0.68146  0.50549  0.42822  1.0000
  C   C859      1.0  0.54978  0.50246  0.50032  1.0000
  H   H1473     1.0  0.60241  0.48888  0.23150  1.0000
  H   H1474     1.0  0.53305  0.66765  0.66667  1.0000
  H   H1475     1.0  0.53288  0.69595  0.39863  1.0000
  S   S245      1.0  0.48370  0.73448  0.34350  1.0000
  H   H1476     1.0  0.51562  0.53753  0.86482  1.0000
  S   S246      1.0  0.49663  0.70475  0.03774  1.0000
  H   H1477     1.0  0.49480  0.50180  0.04946  1.0000
  H   H1478     1.0  0.54879  0.59436  0.75940  1.0000
  S   S247      1.0  0.70264  0.48730  0.99251  1.0000
  H   H1479     1.0  0.58950  0.54534  0.39435  1.0000
  H   H1480     1.0  0.57055  0.53216  0.34270  1.0000
  H   H1481     1.0  0.51370  0.52014  0.06902  1.0000
  H   H1482     1.0  0.71577  0.53382  0.98100  1.0000
  H   H1483     1.0  0.62185  0.57750  0.29722  1.0000
  C   C860      1.0  0.60527  0.55583  0.33155  1.0000
  H   H1484     1.0  0.65931  0.50344  0.04946  1.0000
  H   H1485     1.0  0.54704  0.49348  0.04756  1.0000
  S   S248      1.0  0.48834  0.59351  0.60625  1.0000
  C   C861      1.0  0.50349  0.67542  0.51587  1.0000
  C   C862      1.0  0.50245  0.65866  0.52338  1.0000
  Fe  Fe125     1.0  0.48577  0.57163  0.94989  1.0000
  C   C863      1.0  0.53465  0.49048  0.47517  1.0000
  H   H1486     1.0  0.52646  0.49693  0.46589  1.0000
  H   H1487     1.0  0.51589  0.68677  0.51922  1.0000
  H   H1488     1.0  0.51403  0.65731  0.53194  1.0000
  C   C864      1.0  0.52929  0.54763  0.86846  1.0000
  N   N62       1.0  0.50713  0.64951  0.64713  1.0000
  H   H1489     1.0  0.59436  0.54930  0.31177  1.0000
  H   H1490     1.0  0.50892  0.69641  0.42865  1.0000
  H   H1491     1.0  0.55806  0.51870  0.58612  1.0000
  C   C865      1.0  0.48653  0.64373  0.51934  1.0000
  C   C866      1.0  0.49366  0.65234  0.98943  1.0000
  H   H1492     1.0  0.71412  0.54258  0.87686  1.0000
  H   H1493     1.0  0.56908  0.60858  0.91460  1.0000
  H   H1494     1.0  0.57506  0.55599  0.86109  1.0000
  H   H1495     1.0  0.57616  0.58473  0.82837  1.0000
  H   H1496     1.0  0.52162  0.66487  0.99587  1.0000
  C   C867      1.0  0.57767  0.51680  0.55263  1.0000
  H   H1497     1.0  0.62676  0.59174  0.43088  1.0000
  C   C868      1.0  0.48751  0.69439  0.34923  1.0000
  C   C869      1.0  0.51344  0.64376  0.61407  1.0000
  S   S249      1.0  0.49103  0.69936  0.49489  1.0000
  H   H1498     1.0  0.68853  0.50362  0.04259  1.0000
  C   C870      1.0  0.53300  0.65363  0.60548  1.0000
  H   H1499     1.0  0.70569  0.54092  0.94676  1.0000
  H   H1500     1.0  0.68137  0.49608  0.84720  1.0000
  Fe  Fe126     1.0  0.48599  0.56796  0.58372  1.0000
  H   H1501     1.0  0.50742  0.68932  0.62119  1.0000
  H   H1502     1.0  0.57138  0.50859  0.24948  1.0000
  H   H1503     1.0  0.50576  0.64413  0.59010  1.0000
  H   H1504     1.0  0.54055  0.53479  0.57583  1.0000
  H   H1505     1.0  0.52488  0.72626  0.42114  1.0000
  H   H1506     1.0  0.54108  0.64971  0.62374  1.0000
  H   H1507     1.0  0.53796  0.66799  0.60661  1.0000
  H   H1508     1.0  0.53506  0.64992  0.57807  1.0000
  C   C871      1.0  0.50838  0.51154  0.04504  1.0000
  H   H1509     1.0  0.50681  0.67482  0.33840  1.0000
  C   C872      1.0  0.68458  0.48828  0.86700  1.0000
  C   C873      1.0  0.50964  0.66625  0.99944  1.0000
  C   C874      1.0  0.49482  0.68423  0.01936  1.0000
  H   H1510     1.0  0.55762  0.51459  0.48571  1.0000
  S   S250      1.0  0.49213  0.57821  0.52855  1.0000
  C   C875      1.0  0.50352  0.70116  0.40615  1.0000
  C   C876      1.0  0.66138  0.49589  0.02809  1.0000
  C   C877      1.0  0.52038  0.50297  0.03370  1.0000
  H   H1511     1.0  0.70114  0.49902  0.46936  1.0000
  C   C878      1.0  0.71850  0.52465  0.92833  1.0000
  H   H1512     1.0  0.57154  0.58080  0.34735  1.0000
  H   H1513     1.0  0.57593  0.50322  0.55554  1.0000
  C   C879      1.0  0.56903  0.54298  0.35690  1.0000
  H   H1514     1.0  0.50786  0.64986  0.72665  1.0000
  H   H1515     1.0  0.69552  0.51859  0.96226  1.0000
  H   H1516     1.0  0.58556  0.58728  0.38677  1.0000
  C   C880      1.0  0.70799  0.52964  0.95566  1.0000
  H   H1517     1.0  0.50997  0.72771  0.38774  1.0000
  H   H1518     1.0  0.70281  0.52580  0.84452  1.0000
  H   H1519     1.0  0.58976  0.60140  0.35027  1.0000
  C   C881      1.0  0.66230  0.50283  0.46754  1.0000
  H   H1520     1.0  0.51946  0.67260  0.39899  1.0000
  H   H1521     1.0  0.53514  0.68195  0.36523  1.0000
  C   C882      1.0  0.51187  0.68633  0.35712  1.0000
  N   N63       1.0  0.49702  0.68810  0.37555  1.0000
  H   H1522     1.0  0.53835  0.50742  0.09377  1.0000
  H   H1523     1.0  0.52268  0.69249  0.02171  1.0000
  H   H1524     1.0  0.68421  0.50058  0.91705  1.0000
  H   H1525     1.0  0.53784  0.54100  0.86341  1.0000
  Fe  Fe127     1.0  0.61037  0.49574  0.04422  1.0000
  H   H1526     1.0  0.53253  0.49101  0.14693  1.0000
  H   H1527     1.0  0.61451  0.59929  0.40267  1.0000
  C   C883      1.0  0.56785  0.60458  0.88600  1.0000
  H   H1528     1.0  0.55791  0.53677  0.37498  1.0000
  C   C884      1.0  0.48519  0.67049  0.38984  1.0000
  S   S251      1.0  0.48248  0.59111  0.91467  1.0000
  H   H1529     1.0  0.54007  0.52740  0.51006  1.0000
  C   C885      1.0  0.56075  0.51924  0.55715  1.0000
  C   C886      1.0  0.72197  0.51282  0.87103  1.0000
  C   C887      1.0  0.51672  0.66141  0.71184  1.0000
  C   C888      1.0  0.53028  0.73098  0.97786  1.0000
  C   C889      1.0  0.52884  0.52489  0.56158  1.0000
  H   H1530     1.0  0.53385  0.51361  0.03293  1.0000
  H   H1531     1.0  0.56539  0.55063  0.33750  1.0000
  H   H1532     1.0  0.48712  0.63691  0.68614  1.0000
  C   C890      1.0  0.52543  0.49575  0.09383  1.0000
  H   H1533     1.0  0.52083  0.50792  0.51555  1.0000
  C   C891      1.0  0.55137  0.58721  0.88020  1.0000
  C   C892      1.0  0.53350  0.51666  0.52877  1.0000
  C   C893      1.0  0.67800  0.49595  0.02409  1.0000
  C   C894      1.0  0.66947  0.49581  0.52680  1.0000
  C   C895      1.0  0.48059  0.73304  0.23441  1.0000
  H   H1534     1.0  0.53754  0.49002  0.98640  1.0000
  H   H1535     1.0  0.52110  0.53191  0.55240  1.0000
  H   H1536     1.0  0.49661  0.62347  0.66866  1.0000
  C   C896      1.0  0.68509  0.49560  0.51495  1.0000
  C   C897      1.0  0.54973  0.59061  0.81645  1.0000
  H   H1537     1.0  0.51898  0.69763  0.33983  1.0000
  H   H1538     1.0  0.62189  0.55688  0.28729  1.0000
  H   H1539     1.0  0.53066  0.55230  0.89645  1.0000
  H   H1540     1.0  0.55418  0.57671  0.76997  1.0000
  C   C898      1.0  0.70387  0.52891  0.87365  1.0000
  C   C899      1.0  0.67797  0.50269  0.45574  1.0000
  H   H1541     1.0  0.52153  0.56617  0.84444  1.0000
  H   H1542     1.0  0.60368  0.58039  0.43056  1.0000
  H   H1543     1.0  0.67575  0.52082  0.86384  1.0000
  C   C900      1.0  0.54595  0.58335  0.77775  1.0000
  C   C901      1.0  0.52146  0.65611  0.67551  1.0000
  C   C902      1.0  0.52547  0.68409  0.38181  1.0000
  C   C903      1.0  0.56467  0.57320  0.83809  1.0000
  H   H1544     1.0  0.52459  0.68731  0.64587  1.0000
  H   H1545     1.0  0.72498  0.50253  0.88330  1.0000
  C   C904      1.0  0.58566  0.55437  0.37909  1.0000
  H   H1546     1.0  0.56256  0.60227  0.81607  1.0000
  H   H1547     1.0  0.57998  0.60348  0.87900  1.0000
  H   H1548     1.0  0.56104  0.56308  0.81638  1.0000
  H   H1549     1.0  0.53993  0.59018  0.88397  1.0000
  H   H1550     1.0  0.51603  0.50044  0.10463  1.0000
  H   H1551     1.0  0.52958  0.72442  0.00343  1.0000
  H   H1552     1.0  0.51650  0.49841  0.00562  1.0000
  H   H1553     1.0  0.53046  0.55566  0.81520  1.0000
  H   H1554     1.0  0.53997  0.59577  0.82258  1.0000
  H   H1555     1.0  0.49146  0.57007  0.75383  1.0000
  C   C905      1.0  0.65812  0.49926  0.50334  1.0000
  N   N64       1.0  0.54978  0.57807  0.84464  1.0000
  C   C906      1.0  0.69420  0.49921  0.90040  1.0000
  C   C907      1.0  0.57159  0.56658  0.87035  1.0000
  H   H1556     1.0  0.58759  0.52504  0.57288  1.0000
  N   N65       1.0  0.60086  0.56676  0.35826  1.0000
  C   C908      1.0  0.61650  0.57559  0.38316  1.0000
  C   C909      1.0  0.59682  0.58003  0.33845  1.0000
  C   C910      1.0  0.62170  0.56562  0.30945  1.0000
  C   C911      1.0  0.61491  0.58732  0.41326  1.0000
  C   C912      1.0  0.58529  0.58749  0.35740  1.0000
  H   H1557     1.0  0.58169  0.56124  0.39975  1.0000
  H   H1558     1.0  0.61993  0.56566  0.39595  1.0000
  H   H1559     1.0  0.62821  0.58422  0.36841  1.0000
  H   H1560     1.0  0.60914  0.59130  0.33112  1.0000
  H   H1561     1.0  0.58983  0.57415  0.31278  1.0000
  H   H1562     1.0  0.63385  0.56895  0.32555  1.0000
  H   H1563     1.0  0.56457  0.53309  0.54985  1.0000
  H   H1564     1.0  0.49036  0.65786  0.61626  1.0000
  H   H1565     1.0  0.51946  0.67932  0.59987  1.0000
  C   C913      1.0  0.51679  0.71983  0.39698  1.0000
  C   C914      1.0  0.68921  0.49901  0.47908  1.0000
  H   H1566     1.0  0.68175  0.52472  0.91064  1.0000
  C   C915      1.0  0.48670  0.73541  0.27028  1.0000
  H   H1567     1.0  0.71615  0.50746  0.84425  1.0000
  C   C916      1.0  0.49214  0.63366  0.66133  1.0000
  S   S252      1.0  0.69837  0.49020  0.54578  1.0000
  H   H1568     1.0  0.52316  0.72035  0.95792  1.0000
  H   H1569     1.0  0.69880  0.49092  0.91626  1.0000
  H   H1570     1.0  0.66606  0.49321  0.55440  1.0000
  H   H1571     1.0  0.50749  0.73567  0.98632  1.0000
  H   H1572     1.0  0.62706  0.48944  0.20557  1.0000
  H   H1573     1.0  0.48804  0.67966  0.30065  1.0000
  S   S253      1.0  0.60005  0.48712  0.40142  1.0000
  Fe  Fe128     1.0  0.58229  0.48813  0.44423  1.0000
  H   H1574     1.0  0.48180  0.66000  0.36899  1.0000
  N   N66       1.0  0.52012  0.48833  0.05647  1.0000
  H   H1575     1.0  0.72659  0.49517  0.76146  1.0000
  H   H1576     1.0  0.54024  0.48735  0.45100  1.0000
  H   H1577     1.0  0.52922  0.79961  0.40058  1.0000
  H   H1578     1.0  0.54099  0.87034  0.66544  1.0000
  H   H1579     1.0  0.52758  0.87509  0.63595  1.0000
  H   H1580     1.0  0.51480  0.81633  0.37797  1.0000
  H   H1581     1.0  0.55211  0.79311  0.02772  1.0000
  S   S254      1.0  0.49139  0.73924  0.44452  1.0000
  S   S255      1.0  0.49701  0.78513  0.06047  1.0000
  S   S256      1.0  0.51045  0.89796  0.99710  1.0000
  Fe  Fe129     1.0  0.50738  0.90187  0.89346  1.0000
  S   S257      1.0  0.53007  0.89965  0.92169  1.0000
  S   S258      1.0  0.49902  0.90189  0.83487  1.0000
  Fe  Fe130     1.0  0.51008  0.87841  0.95505  1.0000
  S   S259      1.0  0.50404  0.84895  0.95979  1.0000
  Fe  Fe131     1.0  0.52856  0.91946  0.96203  1.0000
  S   S260      1.0  0.55247  0.94347  0.98583  1.0000
  H   H1582     1.0  0.54921  0.76945  0.96315  1.0000
  S   S261      1.0  0.50699  0.92256  0.93177  1.0000
  H   H1583     1.0  0.51893  0.79462  0.31641  1.0000
  S   S262      1.0  0.49211  0.90023  0.54180  1.0000
  Fe  Fe132     1.0  0.51821  0.90301  0.62922  1.0000
  S   S263      1.0  0.52685  0.89783  0.57508  1.0000
  S   S264      1.0  0.53207  0.90304  0.68203  1.0000
  Fe  Fe133     1.0  0.51995  0.91958  0.55592  1.0000
  S   S265      1.0  0.53529  0.93978  0.51360  1.0000
  Fe  Fe134     1.0  0.49856  0.87891  0.56429  1.0000
  C   C917      1.0  0.52140  0.74354  0.97918  1.0000
  S   S266      1.0  0.51349  0.92578  0.61077  1.0000
  S   S267      1.0  0.49071  0.88304  0.61951  1.0000
  C   C918      1.0  0.54476  0.96319  0.50943  1.0000
  C   C919      1.0  0.55100  0.97051  0.47612  1.0000
  C   C920      1.0  0.53117  0.86440  0.64363  1.0000
  H   H1584     1.0  0.50394  0.86546  0.67677  1.0000
  C   C921      1.0  0.54658  0.97468  0.53810  1.0000
  H   H1585     1.0  0.54977  0.96189  0.45367  1.0000
  H   H1586     1.0  0.51190  0.78581  0.96648  1.0000
  H   H1587     1.0  0.54195  0.96943  0.56394  1.0000
  C   C922      1.0  0.50875  0.90236  0.79290  1.0000
  C   C923      1.0  0.52555  0.90326  0.78973  1.0000
  C   C924      1.0  0.53259  0.90368  0.75570  1.0000
  C   C925      1.0  0.52295  0.90316  0.72444  1.0000
  C   C926      1.0  0.50613  0.90215  0.72763  1.0000
  C   C927      1.0  0.49912  0.90178  0.76160  1.0000
  H   H1588     1.0  0.53315  0.90375  0.81348  1.0000
  H   H1589     1.0  0.54562  0.90447  0.75363  1.0000
  H   H1590     1.0  0.49853  0.90176  0.70395  1.0000
  C   C928      1.0  0.52927  0.75275  0.04099  1.0000
  C   C929      1.0  0.48975  0.79973  0.99890  1.0000
  C   C930      1.0  0.54336  0.97153  0.99534  1.0000
  C   C931      1.0  0.55646  0.96562  0.99705  1.0000
  H   H1591     1.0  0.49076  0.78777  0.29207  1.0000
  H   H1592     1.0  0.53730  0.74534  0.04368  1.0000
  C   C932      1.0  0.57338  0.97763  0.00855  1.0000
  H   H1593     1.0  0.53029  0.96256  0.98665  1.0000
  H   H1594     1.0  0.49523  0.76558  0.38980  1.0000
  C   C933      1.0  0.50805  0.82008  0.04422  1.0000
  H   H1595     1.0  0.48198  0.78648  0.98933  1.0000
  C   C934      1.0  0.51740  0.86008  0.72071  1.0000
  H   H1596     1.0  0.51530  0.78548  0.43386  1.0000
  C   C935      1.0  0.50337  0.81409  0.51574  1.0000
  C   C936      1.0  0.50254  0.82986  0.52631  1.0000
  H   H1597     1.0  0.54599  0.83646  0.66920  1.0000
  H   H1598     1.0  0.52751  0.77796  0.40595  1.0000
  H   H1599     1.0  0.51592  0.81364  0.51521  1.0000
  H   H1600     1.0  0.51440  0.84129  0.53348  1.0000
  N   N67       1.0  0.49553  0.78958  0.37055  1.0000
  S   S268      1.0  0.48440  0.85028  0.54138  1.0000
  C   C937      1.0  0.50988  0.83436  0.02277  1.0000
  H   H1601     1.0  0.54984  0.77467  0.07092  1.0000
  C   C938      1.0  0.49801  0.80262  0.03258  1.0000
  C   C939      1.0  0.48646  0.83082  0.52734  1.0000
  C   C940      1.0  0.49193  0.81400  0.97709  1.0000
  C   C941      1.0  0.50201  0.83147  0.98872  1.0000
  H   H1602     1.0  0.53330  0.86018  0.58632  1.0000
  H   H1603     1.0  0.50578  0.76169  0.01163  1.0000
  C   C942      1.0  0.48826  0.79272  0.40503  1.0000
  H   H1604     1.0  0.48610  0.95388  0.98200  1.0000
  N   N68       1.0  0.51518  0.84880  0.65534  1.0000
  C   C943      1.0  0.50240  0.84309  0.62398  1.0000
  H   H1605     1.0  0.51844  0.84892  0.73377  1.0000
  H   H1606     1.0  0.48571  0.81148  0.95093  1.0000
  C   C944      1.0  0.51893  0.83360  0.66591  1.0000
  C   C945      1.0  0.53558  0.76645  0.07166  1.0000
  H   H1607     1.0  0.49971  0.81301  0.34210  1.0000
  H   H1608     1.0  0.48615  0.90112  0.76365  1.0000
  C   C946      1.0  0.48820  0.79895  0.50581  1.0000
  H   H1609     1.0  0.48022  0.78012  0.41787  1.0000
  H   H1610     1.0  0.51569  0.74331  0.04694  1.0000
  H   H1611     1.0  0.52824  0.77456  0.07285  1.0000
  H   H1612     1.0  0.55685  0.79764  0.98130  1.0000
  H   H1613     1.0  0.58368  0.97332  0.00989  1.0000
  S   S269      1.0  0.48774  0.87992  0.92434  1.0000
  H   H1614     1.0  0.50966  0.77430  0.35508  1.0000
  H   H1615     1.0  0.50061  0.74105  0.27595  1.0000
  H   H1616     1.0  0.50671  0.76464  0.94794  1.0000
  H   H1617     1.0  0.51926  0.82596  0.64174  1.0000
  H   H1618     1.0  0.52270  0.81646  0.30799  1.0000
  H   H1619     1.0  0.50052  0.85437  0.61338  1.0000
  H   H1620     1.0  0.57142  0.79342  0.00956  1.0000
  C   C947      1.0  0.50751  0.80703  0.35577  1.0000
  H   H1621     1.0  0.54292  0.84928  0.61443  1.0000
  H   H1622     1.0  0.58319  0.97023  0.10724  1.0000
  C   C948      1.0  0.48028  0.77961  0.34535  1.0000
  H   H1623     1.0  0.51768  0.84761  0.03233  1.0000
  H   H1624     1.0  0.52102  0.74743  0.95119  1.0000
  C   C949      1.0  0.53629  0.83796  0.68678  1.0000
  S   S270      1.0  0.49026  0.77940  0.49257  1.0000
  C   C950      1.0  0.55731  0.78948  0.00380  1.0000
  H   H1625     1.0  0.54233  0.85096  0.70013  1.0000
  Fe  Fe135     1.0  0.48637  0.90538  0.59775  1.0000
  H   H1626     1.0  0.52429  0.78142  0.01882  1.0000
  H   H1627     1.0  0.51456  0.82260  0.07009  1.0000
  N   N69       1.0  0.52992  0.75939  0.00375  1.0000
  H   H1628     1.0  0.52912  0.78126  0.94942  1.0000
  H   H1629     1.0  0.55355  0.87248  0.60929  1.0000
  H   H1630     1.0  0.49425  0.84373  0.69246  1.0000
  C   C951      1.0  0.54854  0.76985  0.99273  1.0000
  H   H1631     1.0  0.53462  0.81255  0.34311  1.0000
  Fe  Fe136     1.0  0.48920  0.90025  0.96425  1.0000
  C   C952      1.0  0.50692  0.85445  0.68525  1.0000
  H   H1632     1.0  0.58489  0.97524  0.15392  1.0000
  H   H1633     1.0  0.53388  0.82826  0.70801  1.0000
  H   H1634     1.0  0.53048  0.87101  0.71787  1.0000
  C   C953      1.0  0.52006  0.78601  0.40636  1.0000
  H   H1635     1.0  0.50761  0.83822  0.60152  1.0000
  C   C954      1.0  0.54063  0.86111  0.61163  1.0000
  H   H1636     1.0  0.48334  0.81520  0.38782  1.0000
  H   H1637     1.0  0.55704  0.76380  0.00289  1.0000
  H   H1638     1.0  0.50811  0.82434  0.68205  1.0000
  C   C955      1.0  0.50469  0.77821  0.37906  1.0000
  C   C956      1.0  0.51905  0.76955  0.00143  1.0000
  C   C957      1.0  0.51673  0.77556  0.96395  1.0000
  H   H1639     1.0  0.53323  0.75948  0.09724  1.0000
  C   C958      1.0  0.52155  0.80725  0.32962  1.0000
  H   H1640     1.0  0.49296  0.76858  0.30752  1.0000
  H   H1641     1.0  0.48035  0.85840  0.99897  1.0000
  H   H1642     1.0  0.49899  0.80023  0.42461  1.0000
  S   S271      1.0  0.49000  0.73913  0.09990  1.0000
  H   H1643     1.0  0.51027  0.86491  0.73928  1.0000
  C   C959      1.0  0.48467  0.77569  0.30760  1.0000
  H   H1644     1.0  0.54404  0.73759  0.96956  1.0000
  H   H1645     1.0  0.48975  0.73679  0.21297  1.0000
  C   C960      1.0  0.58789  0.98115  0.12733  1.0000
  C   C961      1.0  0.48407  0.82846  0.63061  1.0000
  Fe  Fe137     1.0  0.48053  0.75517  0.06496  1.0000
  H   H1646     1.0  0.48459  0.81713  0.64398  1.0000
  H   H1647     1.0  0.56438  0.98423  0.11859  1.0000
  S   S272      1.0  0.73370  0.21926  0.65928  1.0000
  H   H1648     1.0  0.74441  0.20180  0.71091  1.0000
  H   H1649     1.0  0.77971  0.23007  0.92591  1.0000
  S   S273      1.0  0.73389  0.21286  0.93372  1.0000
  C   C962      1.0  0.78036  0.22524  0.89863  1.0000
  H   H1650     1.0  0.77152  0.21103  0.89789  1.0000
  H   H1651     1.0  0.79377  0.22672  0.89396  1.0000
  C   C963      1.0  0.73777  0.20796  0.76263  1.0000
  H   H1652     1.0  0.74314  0.20012  0.77620  1.0000
  S   S274      1.0  0.73151  0.21367  0.55582  1.0000
  C   C964      1.0  0.73849  0.20892  0.72539  1.0000
  C   C965      1.0  0.73178  0.21897  0.70671  1.0000
  S   S275      1.0  0.73132  0.21569  0.83005  1.0000
  C   C966      1.0  0.73050  0.21719  0.78256  1.0000
  H   H1653     1.0  0.76994  0.22571  0.84646  1.0000
  H   H1654     1.0  0.76140  0.23395  0.88008  1.0000
  H   H1655     1.0  0.79081  0.23208  0.80948  1.0000
  H   H1656     1.0  0.80764  0.23085  0.83773  1.0000
  C   C967      1.0  0.77392  0.23435  0.87049  1.0000
  Fe  Fe138     1.0  0.87851  0.37843  0.45027  1.0000
  S   S276      1.0  0.88266  0.36024  0.48798  1.0000
  S   S277      1.0  0.87312  0.40094  0.46990  1.0000
  Fe  Fe139     1.0  0.87844  0.35696  0.38445  1.0000
  S   S278      1.0  0.88262  0.33698  0.41801  1.0000
  S   S279      1.0  0.87305  0.35985  0.32520  1.0000
  Fe  Fe140     1.0  0.86211  0.33828  0.45481  1.0000
  S   S280      1.0  0.84119  0.31715  0.48919  1.0000
  Fe  Fe141     1.0  0.90277  0.36043  0.44942  1.0000
  S   S281      1.0  0.92910  0.36095  0.46874  1.0000
  S   S282      1.0  0.85696  0.35681  0.41955  1.0000
  S   S283      1.0  0.89970  0.38001  0.41348  1.0000
  Fe  Fe142     1.0  0.88653  0.34983  0.11957  1.0000
  S   S284      1.0  0.88542  0.33768  0.06465  1.0000
  S   S285      1.0  0.89045  0.33818  0.17171  1.0000
  Fe  Fe143     1.0  0.88057  0.37976  0.08969  1.0000
  S   S286      1.0  0.87860  0.37002  0.03335  1.0000
  S   S287      1.0  0.87829  0.40369  0.11099  1.0000
  Fe  Fe144     1.0  0.86185  0.34311  0.05393  1.0000
  S   S288      1.0  0.83448  0.32684  0.02761  1.0000
  Fe  Fe145     1.0  0.90234  0.36545  0.04768  1.0000
  S   S289      1.0  0.92383  0.37527  0.00539  1.0000
  S   S290      1.0  0.86228  0.35364  0.10967  1.0000
  S   S291      1.0  0.90501  0.37680  0.10320  1.0000
  H   H1657     1.0  0.95273  0.38365  0.05831  1.0000
  H   H1658     1.0  0.85075  0.43604  0.03974  1.0000
  H   H1659     1.0  0.81315  0.24578  0.80257  1.0000
  S   S292      1.0  0.75658  0.46521  0.56915  1.0000
  H   H1660     1.0  0.79711  0.45879  0.48343  1.0000
  C   C968      1.0  0.80339  0.23982  0.82353  1.0000
  S   S293      1.0  0.89766  0.46774  0.00968  1.0000
  S   S294      1.0  0.91646  0.47407  0.40106  1.0000
  S   S295      1.0  0.76275  0.25510  0.49181  1.0000
  H   H1661     1.0  0.78356  0.43786  0.52663  1.0000
  C   C969      1.0  0.96204  0.36529  0.48867  1.0000
  H   H1662     1.0  0.86384  0.44680  0.98225  1.0000
  C   C970      1.0  0.78569  0.44715  0.47242  1.0000
  H   H1663     1.0  0.93366  0.44849  0.00118  1.0000
  C   C971      1.0  0.88258  0.42108  0.08217  1.0000
  C   C972      1.0  0.88557  0.43752  0.09649  1.0000
  C   C973      1.0  0.89001  0.45190  0.07432  1.0000
  C   C974      1.0  0.89125  0.44980  0.03769  1.0000
  C   C975      1.0  0.88773  0.43327  0.02319  1.0000
  C   C976      1.0  0.88354  0.41894  0.04543  1.0000
  H   H1664     1.0  0.88484  0.43922  0.12492  1.0000
  H   H1665     1.0  0.89275  0.46464  0.08571  1.0000
  H   H1666     1.0  0.88856  0.43160  0.99479  1.0000
  H   H1667     1.0  0.88111  0.40626  0.03421  1.0000
  C   C977      1.0  0.81796  0.30573  0.01380  1.0000
  C   C978      1.0  0.80160  0.30427  0.00121  1.0000
  C   C979      1.0  0.78790  0.28787  0.99118  1.0000
  C   C980      1.0  0.79030  0.27257  0.99366  1.0000
  C   C981      1.0  0.80671  0.27404  0.00593  1.0000
  C   C982      1.0  0.82043  0.29044  0.01574  1.0000
  H   H1668     1.0  0.79945  0.31593  0.99947  1.0000
  H   H1669     1.0  0.77544  0.28707  0.98183  1.0000
  H   H1670     1.0  0.80882  0.26236  0.00785  1.0000
  H   H1671     1.0  0.83292  0.29124  0.02491  1.0000
  S   S296      1.0  0.77347  0.25134  0.98191  1.0000
  C   C983      1.0  0.94720  0.38623  0.00322  1.0000
  H   H1672     1.0  0.94647  0.39111  0.94720  1.0000
  H   H1673     1.0  0.82626  0.46087  0.99380  1.0000
  C   C984      1.0  0.81912  0.30027  0.48912  1.0000
  C   C985      1.0  0.81142  0.29352  0.52186  1.0000
  C   C986      1.0  0.79426  0.27992  0.52337  1.0000
  C   C987      1.0  0.78451  0.27255  0.49202  1.0000
  C   C988      1.0  0.79222  0.27929  0.45928  1.0000
  C   C989      1.0  0.80926  0.29309  0.45779  1.0000
  H   H1674     1.0  0.81880  0.29886  0.54637  1.0000
  H   H1675     1.0  0.78868  0.27498  0.54881  1.0000
  H   H1676     1.0  0.78495  0.27375  0.43475  1.0000
  H   H1677     1.0  0.81487  0.29795  0.43234  1.0000
  C   C990      1.0  0.87882  0.35409  0.28312  1.0000
  C   C991      1.0  0.87438  0.36056  0.25208  1.0000
  C   C992      1.0  0.87840  0.35630  0.21803  1.0000
  C   C993      1.0  0.88653  0.34508  0.21440  1.0000
  C   C994      1.0  0.89090  0.33852  0.24538  1.0000
  C   C995      1.0  0.88723  0.34310  0.27957  1.0000
  H   H1678     1.0  0.86766  0.36884  0.25427  1.0000
  H   H1679     1.0  0.87487  0.36140  0.19453  1.0000
  H   H1680     1.0  0.89717  0.32982  0.24294  1.0000
  H   H1681     1.0  0.89068  0.33796  0.30309  1.0000
  C   C996      1.0  0.95126  0.37391  0.48448  1.0000
  C   C997      1.0  0.95847  0.39196  0.49312  1.0000
  H   H1682     1.0  0.95042  0.39891  0.49020  1.0000
  C   C998      1.0  0.88614  0.42185  0.45398  1.0000
  C   C999      1.0  0.90225  0.42561  0.43877  1.0000
  C   C1000     1.0  0.91180  0.44197  0.42374  1.0000
  C   C1001     1.0  0.90527  0.45463  0.42394  1.0000
  C   C1002     1.0  0.88953  0.45118  0.44050  1.0000
  C   C1003     1.0  0.87999  0.43480  0.45554  1.0000
  H   H1683     1.0  0.90727  0.41586  0.43830  1.0000
  H   H1684     1.0  0.92408  0.44468  0.41130  1.0000
  H   H1685     1.0  0.88445  0.46091  0.44084  1.0000
  H   H1686     1.0  0.86758  0.43198  0.46758  1.0000
  H   H1687     1.0  0.95690  0.35150  0.48201  1.0000
  N   N70       1.0  0.88987  0.41794  0.32656  1.0000
  C   C1004     1.0  0.90092  0.40969  0.34254  1.0000
  C   C1005     1.0  0.87624  0.41662  0.35316  1.0000
  C   C1006     1.0  0.90179  0.43698  0.32126  1.0000
  C   C1007     1.0  0.88204  0.40864  0.29152  1.0000
  C   C1008     1.0  0.91664  0.41093  0.32066  1.0000
  C   C1009     1.0  0.86534  0.39819  0.36736  1.0000
  C   C1010     1.0  0.89319  0.44870  0.30853  1.0000
  C   C1011     1.0  0.86446  0.40833  0.27904  1.0000
  H   H1688     1.0  0.90602  0.41539  0.36949  1.0000
  H   H1689     1.0  0.89299  0.39550  0.34639  1.0000
  H   H1690     1.0  0.86689  0.42138  0.34229  1.0000
  H   H1691     1.0  0.88243  0.42533  0.37669  1.0000
  H   H1692     1.0  0.90911  0.44306  0.34653  1.0000
  H   H1693     1.0  0.91185  0.43847  0.30134  1.0000
  H   H1694     1.0  0.89139  0.41424  0.26964  1.0000
  H   H1695     1.0  0.87967  0.39467  0.29224  1.0000
  H   H1696     1.0  0.92216  0.40244  0.33279  1.0000
  H   H1697     1.0  0.91283  0.40622  0.29275  1.0000
  H   H1698     1.0  0.92727  0.42440  0.32134  1.0000
  H   H1699     1.0  0.87295  0.39477  0.38766  1.0000
  H   H1700     1.0  0.75735  0.29654  0.57342  1.0000
  H   H1701     1.0  0.97873  0.40686  0.94182  1.0000
  H   H1702     1.0  0.88864  0.44573  0.28037  1.0000
  H   H1703     1.0  0.90324  0.46249  0.30950  1.0000
  H   H1704     1.0  0.88262  0.44831  0.32592  1.0000
  H   H1705     1.0  0.85358  0.39970  0.29567  1.0000
  H   H1706     1.0  0.86139  0.40278  0.25145  1.0000
  H   H1707     1.0  0.86462  0.42142  0.27856  1.0000
  C   C1012     1.0  0.93560  0.41837  0.05922  1.0000
  Fe  Fe146     1.0  0.74575  0.24068  0.95603  1.0000
  H   H1708     1.0  0.93963  0.44644  0.09934  1.0000
  H   H1709     1.0  0.83404  0.48548  0.04243  1.0000
  S   S297      1.0  0.73644  0.25304  0.58088  1.0000
  H   H1710     1.0  0.76505  0.25902  0.84660  1.0000
  H   H1711     1.0  0.79606  0.25870  0.91727  1.0000
  H   H1712     1.0  0.96280  0.45849  0.02563  1.0000
  H   H1713     1.0  0.73775  0.35564  0.00870  1.0000
  C   C1013     1.0  0.93362  0.44556  0.07242  1.0000
  H   H1714     1.0  0.86081  0.38798  0.34591  1.0000
  H   H1715     1.0  0.93527  0.41940  0.11770  1.0000
  H   H1716     1.0  0.93349  0.41273  0.98498  1.0000
  H   H1717     1.0  0.97080  0.48596  0.50835  1.0000
  S   S298      1.0  0.73104  0.48163  0.82890  1.0000
  H   H1718     1.0  0.92109  0.41098  0.06014  1.0000
  H   H1719     1.0  0.95031  0.46373  0.47476  1.0000
  H   H1720     1.0  0.87616  0.46791  0.92069  1.0000
  C   C1014     1.0  0.73433  0.47623  0.78407  1.0000
  C   C1015     1.0  0.78906  0.45922  0.41330  1.0000
  H   H1721     1.0  0.73011  0.26508  0.46645  1.0000
  H   H1722     1.0  0.94058  0.47735  0.51983  1.0000
  H   H1723     1.0  0.73879  0.42512  0.39340  1.0000
  H   H1724     1.0  0.82675  0.47953  0.13420  1.0000
  S   S299      1.0  0.73741  0.47848  0.50690  1.0000
  H   H1725     1.0  0.95147  0.47649  0.43604  1.0000
  N   N71       1.0  0.94053  0.43657  0.04604  1.0000
  C   C1016     1.0  0.74331  0.28829  0.52177  1.0000
  C   C1017     1.0  0.73363  0.48166  0.71985  1.0000
  H   H1726     1.0  0.79400  0.29013  0.88197  1.0000
  H   H1727     1.0  0.97091  0.35312  0.62674  1.0000
  C   C1018     1.0  0.80376  0.25448  0.84920  1.0000
  C   C1019     1.0  0.87233  0.30226  0.48712  1.0000
  C   C1020     1.0  0.74918  0.43822  0.40116  1.0000
  H   H1728     1.0  0.76529  0.42604  0.42053  1.0000
  N   N72       1.0  0.77643  0.45231  0.44328  1.0000
  H   H1729     1.0  0.89744  0.31021  0.56334  1.0000
  H   H1730     1.0  0.94965  0.43407  0.97134  1.0000
  H   H1731     1.0  0.96337  0.42552  0.01376  1.0000
  S   S300      1.0  0.73897  0.25157  0.90677  1.0000
  C   C1021     1.0  0.95484  0.39291  0.97043  1.0000
  N   N73       1.0  0.82948  0.30010  0.14419  1.0000
  C   C1022     1.0  0.82343  0.30578  0.11079  1.0000
  C   C1023     1.0  0.84898  0.30616  0.14205  1.0000
  C   C1024     1.0  0.82521  0.30881  0.17573  1.0000
  C   C1025     1.0  0.81987  0.28048  0.14561  1.0000
  C   C1026     1.0  0.80390  0.30193  0.10851  1.0000
  C   C1027     1.0  0.85541  0.29895  0.11028  1.0000
  C   C1028     1.0  0.83743  0.31325  0.20902  1.0000
  C   C1029     1.0  0.82557  0.27172  0.17554  1.0000
  H   H1732     1.0  0.83110  0.32007  0.10710  1.0000
  H   H1733     1.0  0.82569  0.29931  0.08685  1.0000
  H   H1734     1.0  0.85457  0.30294  0.16629  1.0000
  H   H1735     1.0  0.85558  0.32065  0.14096  1.0000
  H   H1736     1.0  0.82554  0.32164  0.16820  1.0000
  H   H1737     1.0  0.81166  0.30084  0.18455  1.0000
  H   H1738     1.0  0.80564  0.27636  0.14885  1.0000
  H   H1739     1.0  0.82096  0.27433  0.11993  1.0000
  H   H1740     1.0  0.79541  0.28772  0.10541  1.0000
  H   H1741     1.0  0.79977  0.30748  0.13147  1.0000
  H   H1742     1.0  0.80160  0.30809  0.08426  1.0000
  H   H1743     1.0  0.85317  0.30400  0.08455  1.0000
  H   H1744     1.0  0.86979  0.30359  0.11342  1.0000
  H   H1745     1.0  0.84961  0.28449  0.10922  1.0000
  H   H1746     1.0  0.83169  0.31773  0.23113  1.0000
  H   H1747     1.0  0.85022  0.32421  0.20368  1.0000
  H   H1748     1.0  0.83973  0.30214  0.21864  1.0000
  H   H1749     1.0  0.83955  0.27441  0.17421  1.0000
  H   H1750     1.0  0.73342  0.39631  0.98041  1.0000
  H   H1751     1.0  0.82268  0.27550  0.20208  1.0000
  H   H1752     1.0  0.89016  0.33363  0.57372  1.0000
  C   C1030     1.0  0.84815  0.44631  0.02626  1.0000
  C   C1031     1.0  0.92126  0.32084  0.51325  1.0000
  H   H1753     1.0  0.82283  0.46958  0.92790  1.0000
  H   H1754     1.0  0.74664  0.31009  0.56091  1.0000
  H   H1755     1.0  0.75199  0.42976  0.45243  1.0000
  H   H1756     1.0  0.79252  0.44880  0.40259  1.0000
  H   H1757     1.0  0.84390  0.46062  0.90614  1.0000
  H   H1758     1.0  0.91094  0.28514  0.52176  1.0000
  H   H1759     1.0  0.77895  0.30501  0.52746  1.0000
  C   C1032     1.0  0.95829  0.38870  0.03291  1.0000
  H   H1760     1.0  0.78643  0.31136  0.48288  1.0000
  C   C1033     1.0  0.93124  0.43534  0.01078  1.0000
  H   H1761     1.0  0.76536  0.42457  0.49869  1.0000
  C   C1034     1.0  0.93600  0.42640  0.97953  1.0000
  C   C1035     1.0  0.75168  0.29128  0.45909  1.0000
  C   C1036     1.0  0.76432  0.31713  0.49766  1.0000
  H   H1762     1.0  0.89796  0.33741  0.52923  1.0000
  H   H1763     1.0  0.80437  0.48539  0.43808  1.0000
  H   H1764     1.0  0.78323  0.46287  0.39014  1.0000
  N   N74       1.0  0.74807  0.30040  0.49064  1.0000
  C   C1037     1.0  0.97665  0.39745  0.02964  1.0000
  H   H1765     1.0  0.89356  0.26579  0.53654  1.0000
  Fe  Fe147     1.0  0.75167  0.47006  0.95461  1.0000
  H   H1766     1.0  0.87151  0.27556  0.52273  1.0000
  H   H1767     1.0  0.73440  0.28863  0.57576  1.0000
  H   H1768     1.0  0.79135  0.32750  0.51735  1.0000
  C   C1038     1.0  0.86582  0.45471  0.91386  1.0000
  C   C1039     1.0  0.85011  0.44468  0.98574  1.0000
  C   C1040     1.0  0.81623  0.45658  0.93966  1.0000
  C   C1041     1.0  0.78106  0.31489  0.50687  1.0000
  H   H1769     1.0  0.86366  0.27908  0.45108  1.0000
  H   H1770     1.0  0.93227  0.32155  0.49669  1.0000
  H   H1771     1.0  0.92459  0.33460  0.52124  1.0000
  H   H1772     1.0  0.76623  0.25731  0.78303  1.0000
  H   H1773     1.0  0.87477  0.32790  0.53748  1.0000
  H   H1774     1.0  0.90330  0.32449  0.47746  1.0000
  C   C1042     1.0  0.88752  0.32823  0.54602  1.0000
  H   H1775     1.0  0.76269  0.32521  0.51936  1.0000
  H   H1776     1.0  0.76720  0.32562  0.47400  1.0000
  C   C1043     1.0  0.80640  0.47515  0.42297  1.0000
  H   H1777     1.0  0.73839  0.41599  0.70513  1.0000
  C   C1044     1.0  0.74293  0.46004  0.74008  1.0000
  C   C1045     1.0  0.97074  0.43747  0.02999  1.0000
  C   C1046     1.0  0.77472  0.43830  0.50491  1.0000
  H   H1778     1.0  0.81278  0.44641  0.91821  1.0000
  Fe  Fe148     1.0  0.73139  0.47109  0.88526  1.0000
  H   H1779     1.0  0.76761  0.44559  0.51557  1.0000
  Fe  Fe149     1.0  0.74073  0.47207  0.60940  1.0000
  S   S301      1.0  0.74177  0.45233  0.90552  1.0000
  C   C1047     1.0  0.90424  0.31308  0.49008  1.0000
  H   H1780     1.0  0.92136  0.31346  0.53708  1.0000
  H   H1781     1.0  0.87403  0.31584  0.48278  1.0000
  C   C1048     1.0  0.88678  0.30970  0.54531  1.0000
  H   H1782     1.0  0.90621  0.30536  0.46779  1.0000
  N   N75       1.0  0.88750  0.30234  0.50886  1.0000
  H   H1783     1.0  0.83484  0.44440  0.03347  1.0000
  H   H1784     1.0  0.88117  0.29858  0.43375  1.0000
  C   C1049     1.0  0.86920  0.29352  0.44971  1.0000
  C   C1050     1.0  0.85802  0.47536  0.97336  1.0000
  H   H1785     1.0  0.74235  0.44592  0.41130  1.0000
  H   H1786     1.0  0.77700  0.26184  0.90829  1.0000
  H   H1787     1.0  0.87453  0.30099  0.55864  1.0000
  H   H1788     1.0  0.88482  0.27778  0.48523  1.0000
  H   H1789     1.0  0.85987  0.29573  0.50165  1.0000
  C   C1051     1.0  0.76094  0.43597  0.43038  1.0000
  C   C1052     1.0  0.88467  0.28358  0.51189  1.0000
  H   H1790     1.0  0.89941  0.28532  0.56233  1.0000
  H   H1791     1.0  0.75631  0.44394  0.37670  1.0000
  H   H1792     1.0  0.85928  0.29647  0.43514  1.0000
  H   H1793     1.0  0.73149  0.32420  0.97955  1.0000
  C   C1053     1.0  0.89808  0.28015  0.53466  1.0000
  H   H1794     1.0  0.75126  0.28068  0.52179  1.0000
  H   H1795     1.0  0.87173  0.47690  0.97446  1.0000
  H   H1796     1.0  0.95074  0.47322  0.06083  1.0000
  H   H1797     1.0  0.76236  0.28746  0.46565  1.0000
  H   H1798     1.0  0.75637  0.30024  0.43624  1.0000
  C   C1054     1.0  0.74576  0.29674  0.55954  1.0000
  H   H1799     1.0  0.96580  0.45295  0.06987  1.0000
  C   C1055     1.0  0.80897  0.48026  0.01747  1.0000
  H   H1800     1.0  0.78630  0.25526  0.78383  1.0000
  H   H1801     1.0  0.96906  0.38964  0.58459  1.0000
  H   H1802     1.0  0.78038  0.47404  0.47874  1.0000
  C   C1056     1.0  0.82690  0.45329  0.97001  1.0000
  C   C1057     1.0  0.76817  0.47822  0.43196  1.0000
  S   S302      1.0  0.77670  0.47234  0.98522  1.0000
  H   H1803     1.0  0.92753  0.42571  0.95612  1.0000
  H   H1804     1.0  0.91932  0.43780  0.07570  1.0000
  C   C1058     1.0  0.84748  0.45250  0.92456  1.0000
  H   H1805     1.0  0.81796  0.25732  0.17263  1.0000
  C   C1059     1.0  0.97624  0.40106  0.50541  1.0000
  C   C1060     1.0  0.93673  0.46445  0.06399  1.0000
  H   H1806     1.0  0.73759  0.42876  0.64880  1.0000
  H   H1807     1.0  0.83814  0.43873  0.91784  1.0000
  H   H1808     1.0  0.84196  0.43078  0.97753  1.0000
  H   H1809     1.0  0.85795  0.45901  0.03732  1.0000
  N   N76       1.0  0.84565  0.45680  0.96293  1.0000
  H   H1810     1.0  0.79111  0.43820  0.46170  1.0000
  S   S303      1.0  0.74299  0.46363  0.66689  1.0000
  H   H1811     1.0  0.81904  0.43935  0.97681  1.0000
  H   H1812     1.0  0.73752  0.32679  0.51734  1.0000
  H   H1813     1.0  0.81072  0.26715  0.83571  1.0000
  H   H1814     1.0  0.80233  0.46760  0.02930  1.0000
  H   H1815     1.0  0.81359  0.28637  0.88113  1.0000
  C   C1061     1.0  0.96001  0.44719  0.04325  1.0000
  H   H1816     1.0  0.85371  0.39795  0.38095  1.0000
  H   H1817     1.0  0.86926  0.44466  0.92578  1.0000
  H   H1818     1.0  0.84283  0.47130  0.13426  1.0000
  C   C1062     1.0  0.73964  0.46903  0.71170  1.0000
  C   C1063     1.0  0.73317  0.30472  0.47994  1.0000
  H   H1819     1.0  0.92908  0.46504  0.04028  1.0000
  C   C1064     1.0  0.80115  0.28329  0.89470  1.0000
  C   C1065     1.0  0.77066  0.46556  0.45838  1.0000
  H   H1820     1.0  0.75826  0.45892  0.47287  1.0000
  C   C1066     1.0  0.78960  0.26345  0.89677  1.0000
  Fe  Fe150     1.0  0.74043  0.24038  0.53090  1.0000
  C   C1067     1.0  0.77404  0.25191  0.79837  1.0000
  H   H1821     1.0  0.75712  0.48094  0.44071  1.0000
  H   H1822     1.0  0.73646  0.31282  0.45569  1.0000
  H   H1823     1.0  0.91689  0.42815  0.01383  1.0000
  H   H1824     1.0  0.93949  0.41051  0.04078  1.0000
  H   H1825     1.0  0.86589  0.45291  0.88453  1.0000
  H   H1826     1.0  0.73738  0.37923  0.95966  1.0000
  H   H1827     1.0  0.92187  0.48108  0.50890  1.0000
  H   H1828     1.0  0.80464  0.28889  0.92221  1.0000
  H   H1829     1.0  0.97737  0.43428  0.05263  1.0000
  C   C1068     1.0  0.73109  0.48525  0.75570  1.0000
  H   H1830     1.0  0.74217  0.41985  0.58863  1.0000
  H   H1831     1.0  0.93208  0.46982  0.08657  1.0000
  N   N77       1.0  0.78643  0.25289  0.86243  1.0000
  H   H1832     1.0  0.78582  0.27427  0.83214  1.0000
  C   C1069     1.0  0.94311  0.41728  0.09633  1.0000
  H   H1833     1.0  0.83057  0.48111  0.52048  1.0000
  C   C1070     1.0  0.74022  0.46351  0.77589  1.0000
  C   C1071     1.0  0.77773  0.26013  0.83616  1.0000
  H   H1834     1.0  0.73143  0.34999  0.96326  1.0000
  H   H1835     1.0  0.94228  0.40394  0.09965  1.0000
  H   H1836     1.0  0.76509  0.47340  0.40412  1.0000
  H   H1837     1.0  0.74292  0.45652  0.79721  1.0000
  C   C1072     1.0  0.97318  0.40191  0.96728  1.0000
  H   H1838     1.0  0.96657  0.37948  0.62689  1.0000
  C   C1073     1.0  0.95918  0.47441  0.45791  1.0000
  H   H1839     1.0  0.74776  0.45039  0.73439  1.0000
  H   H1840     1.0  0.81541  0.47128  0.43842  1.0000
  H   H1841     1.0  0.81239  0.25481  0.87220  1.0000
  C   C1074     1.0  0.97493  0.39113  0.61185  1.0000
  H   H1842     1.0  0.80372  0.45569  0.95036  1.0000
  Fe  Fe151     1.0  0.73200  0.45371  0.53544  1.0000
  H   H1843     1.0  0.80325  0.48316  0.53767  1.0000
  H   H1844     1.0  0.96781  0.46922  0.44532  1.0000
  H   H1845     1.0  0.97459  0.40299  0.62403  1.0000
  H   H1846     1.0  0.95700  0.42660  0.10021  1.0000
  C   C1075     1.0  0.73631  0.27437  0.44500  1.0000
  H   H1847     1.0  0.74137  0.26760  0.42593  1.0000
  H   H1848     1.0  0.85549  0.47875  0.00073  1.0000
  H   H1849     1.0  0.73273  0.40623  0.64456  1.0000
  H   H1850     1.0  0.81321  0.48110  0.39823  1.0000
  C   C1076     1.0  0.84082  0.48328  0.13013  1.0000
  C   C1077     1.0  0.79943  0.48622  0.99452  1.0000
  H   H1851     1.0  0.76620  0.23760  0.79816  1.0000
  C   C1078     1.0  0.89379  0.55743  0.57257  1.0000
  H   H1852     1.0  0.86638  0.51610  0.54205  1.0000
  H   H1853     1.0  0.91735  0.57285  0.53967  1.0000
  C   C1079     1.0  0.82628  0.51296  0.98771  1.0000
  H   H1854     1.0  0.89845  0.50435  0.29565  1.0000
  C   C1080     1.0  0.86671  0.54190  0.11180  1.0000
  H   H1855     1.0  0.82233  0.50047  0.10820  1.0000
  Fe  Fe152     1.0  0.90400  0.51389  0.10555  1.0000
  S   S304      1.0  0.90512  0.53705  0.07442  1.0000
  S   S305      1.0  0.90156  0.50736  0.16505  1.0000
  H   H1856     1.0  0.84695  0.53037  0.54901  1.0000
  S   S306      1.0  0.90163  0.51408  0.00249  1.0000
  Fe  Fe153     1.0  0.92396  0.53198  0.03845  1.0000
  S   S307      1.0  0.94722  0.55181  0.00709  1.0000
  Fe  Fe154     1.0  0.88280  0.51705  0.04049  1.0000
  H   H1857     1.0  0.97046  0.55923  0.55428  1.0000
  S   S308      1.0  0.92399  0.51000  0.07160  1.0000
  C   C1081     1.0  0.86182  0.52115  0.22038  1.0000
  Fe  Fe155     1.0  0.90648  0.52674  0.37611  1.0000
  S   S309      1.0  0.90342  0.53854  0.42897  1.0000
  S   S310      1.0  0.90761  0.54001  0.32279  1.0000
  H   H1858     1.0  0.90229  0.56356  0.48326  1.0000
  S   S311      1.0  0.90595  0.50542  0.46629  1.0000
  Fe  Fe156     1.0  0.88430  0.51099  0.44192  1.0000
  S   S312      1.0  0.85866  0.50071  0.47398  1.0000
  Fe  Fe157     1.0  0.92531  0.53224  0.45007  1.0000
  S   S313      1.0  0.94655  0.54717  0.49365  1.0000
  H   H1859     1.0  0.85278  0.51496  0.09506  1.0000
  S   S314      1.0  0.92954  0.52265  0.39666  1.0000
  C   C1082     1.0  0.82430  0.51248  0.12328  1.0000
  H   H1860     1.0  0.88377  0.56692  0.47001  1.0000
  H   H1861     1.0  0.87928  0.55014  0.12589  1.0000
  C   C1083     1.0  0.87826  0.54897  0.51355  1.0000
  H   H1862     1.0  0.86516  0.51010  0.22606  1.0000
  C   C1084     1.0  0.97045  0.55955  0.00306  1.0000
  H   H1863     1.0  0.92209  0.56836  0.58436  1.0000
  C   C1085     1.0  0.90663  0.53084  0.27921  1.0000
  C   C1086     1.0  0.91059  0.54178  0.24959  1.0000
  C   C1087     1.0  0.90958  0.53500  0.21458  1.0000
  C   C1088     1.0  0.90425  0.51706  0.20863  1.0000
  C   C1089     1.0  0.90030  0.50614  0.23825  1.0000
  C   C1090     1.0  0.90156  0.51296  0.27327  1.0000
  H   H1864     1.0  0.91457  0.55564  0.25381  1.0000
  C   C1091     1.0  0.89878  0.53672  0.53031  1.0000
  H   H1865     1.0  0.89621  0.49227  0.23409  1.0000
  H   H1866     1.0  0.87600  0.52336  0.58480  1.0000
  H   H1867     1.0  0.91408  0.58417  0.57676  1.0000
  H   H1868     1.0  0.82813  0.50602  0.17711  1.0000
  H   H1869     1.0  0.84434  0.48707  0.10234  1.0000
  N   N78       1.0  0.88592  0.54312  0.54438  1.0000
  C   C1092     1.0  0.86151  0.52231  0.11771  1.0000
  H   H1870     1.0  0.97894  0.52453  0.91911  1.0000
  H   H1871     1.0  0.89698  0.51547  0.56540  1.0000
  N   N79       1.0  0.85354  0.51554  0.15308  1.0000
  H   H1872     1.0  0.74640  0.52443  0.84308  1.0000
  Fe  Fe158     1.0  0.90914  0.49635  0.41183  1.0000
  C   C1093     1.0  0.83921  0.50302  0.48551  1.0000
  C   C1094     1.0  0.83507  0.51614  0.47193  1.0000
  C   C1095     1.0  0.81956  0.51734  0.48200  1.0000
  H   H1873     1.0  0.84373  0.52531  0.45344  1.0000
  H   H1874     1.0  0.94186  0.51030  0.48289  1.0000
  C   C1096     1.0  0.97002  0.55892  0.49687  1.0000
  H   H1875     1.0  0.81656  0.52751  0.47109  1.0000
  H   H1876     1.0  0.74839  0.53208  0.88795  1.0000
  C   C1097     1.0  0.97183  0.51746  0.45146  1.0000
  H   H1877     1.0  0.87953  0.52872  0.17677  1.0000
  C   C1098     1.0  0.93617  0.48768  0.51472  1.0000
  H   H1878     1.0  0.91281  0.54363  0.19224  1.0000
  C   C1099     1.0  0.91282  0.57119  0.56732  1.0000
  C   C1100     1.0  0.85229  0.49737  0.15754  1.0000
  H   H1879     1.0  0.82958  0.52363  0.10503  1.0000
  H   H1880     1.0  0.87353  0.52028  0.11450  1.0000
  C   C1101     1.0  0.86603  0.52716  0.18170  1.0000
  C   C1102     1.0  0.80776  0.50540  0.50551  1.0000
  H   H1881     1.0  0.85880  0.54235  0.58883  1.0000
  H   H1882     1.0  0.83739  0.52858  0.16857  1.0000
  C   C1103     1.0  0.83586  0.50687  0.01018  1.0000
  H   H1883     1.0  0.90988  0.54706  0.51702  1.0000
  H   H1884     1.0  0.89512  0.57712  0.51035  1.0000
  S   S315      1.0  0.88629  0.49970  0.38803  1.0000
  C   C1104     1.0  0.80828  0.50271  0.97973  1.0000
  H   H1885     1.0  0.97455  0.56121  0.44064  1.0000
  H   H1886     1.0  0.89392  0.55164  0.59895  1.0000
  H   H1887     1.0  0.88549  0.56457  0.57573  1.0000
  H   H1888     1.0  0.73800  0.53992  0.85417  1.0000
  H   H1889     1.0  0.86793  0.50260  0.95927  1.0000
  H   H1890     1.0  0.77968  0.49117  0.43321  1.0000
  C   C1105     1.0  0.82701  0.49041  0.02507  1.0000
  H   H1891     1.0  0.96801  0.52847  0.45368  1.0000
  S   S316      1.0  0.88084  0.49446  0.07325  1.0000
  H   H1892     1.0  0.91776  0.52705  0.54611  1.0000
  H   H1893     1.0  0.91169  0.53709  0.58228  1.0000
  H   H1894     1.0  0.86677  0.54059  0.18119  1.0000
  H   H1895     1.0  0.80127  0.50761  0.96214  1.0000
  H   H1896     1.0  0.97518  0.55014  0.05305  1.0000
  H   H1897     1.0  0.86879  0.54464  0.08300  1.0000
  C   C1106     1.0  0.90664  0.52870  0.55804  1.0000
  S   S317      1.0  0.85868  0.52044  0.01908  1.0000
  H   H1898     1.0  0.97061  0.57106  0.95222  1.0000
  H   H1899     1.0  0.87206  0.53808  0.49357  1.0000
  Fe  Fe159     1.0  0.90089  0.49270  0.03748  1.0000
  C   C1107     1.0  0.83593  0.51577  0.15731  1.0000
  H   H1900     1.0  0.89240  0.52657  0.50898  1.0000
  C   C1108     1.0  0.85518  0.53032  0.57227  1.0000
  C   C1109     1.0  0.87126  0.52763  0.56064  1.0000
  H   H1901     1.0  0.86773  0.55252  0.52235  1.0000
  H   H1902     1.0  0.84675  0.51908  0.58845  1.0000
  H   H1903     1.0  0.81117  0.51111  0.13090  1.0000
  H   H1904     1.0  0.73032  0.53699  0.92404  1.0000
  H   H1905     1.0  0.87014  0.53200  0.23894  1.0000
  H   H1906     1.0  0.93879  0.49141  0.45862  1.0000
  S   S318      1.0  0.78796  0.50725  0.51605  1.0000
  C   C1110     1.0  0.97219  0.51619  0.51624  1.0000
  H   H1907     1.0  0.83285  0.52568  0.97609  1.0000
  C   C1111     1.0  0.94532  0.49902  0.48291  1.0000
  C   C1112     1.0  0.73961  0.52842  0.86399  1.0000
  H   H1908     1.0  0.85657  0.54598  0.12052  1.0000
  S   S319      1.0  0.74270  0.48977  0.93290  1.0000
  N   N80       1.0  0.96488  0.50545  0.48238  1.0000
  C   C1113     1.0  0.89085  0.56505  0.49357  1.0000
  Fe  Fe160     1.0  0.76162  0.49039  0.54272  1.0000
  H   H1909     1.0  0.84799  0.51759  0.22661  1.0000
  H   H1910     1.0  0.86554  0.49767  0.15714  1.0000
  H   H1911     1.0  0.96688  0.52606  0.51973  1.0000
  H   H1912     1.0  0.96803  0.50782  0.53998  1.0000
  C   C1114     1.0  0.97858  0.56896  0.97272  1.0000
  S   S320      1.0  0.74716  0.49833  0.58503  1.0000
  H   H1913     1.0  0.95185  0.50293  0.40965  1.0000
  C   C1115     1.0  0.81198  0.49237  0.51931  1.0000
  H   H1914     1.0  0.84692  0.49211  0.18382  1.0000
  H   H1915     1.0  0.86089  0.48830  0.92146  1.0000
  H   H1916     1.0  0.84521  0.49086  0.95074  1.0000
  H   H1917     1.0  0.97188  0.49999  0.40755  1.0000
  C   C1116     1.0  0.96620  0.50926  0.41389  1.0000
  H   H1918     1.0  0.97134  0.51981  0.39414  1.0000
  C   C1117     1.0  0.82756  0.49126  0.50948  1.0000
  C   C1118     1.0  0.97057  0.49082  0.48103  1.0000
  C   C1119     1.0  0.85773  0.48981  0.94940  1.0000
  H   H1919     1.0  0.73104  0.48875  0.69858  1.0000
  H   H1920     1.0  0.93811  0.49586  0.53921  1.0000
  C   C1120     1.0  0.97834  0.56305  0.53084  1.0000
