data_image0
_chemical_formula_structural       HSFeS2Fe2SNSNHS2HFeH5CHCH5C2SCHFeS2HSH2FeS2C6H4CH2SCH5SHCH4CH2C6H4C6H4CH2CHCSH2CHC2H2CH3CH2FeCHC2H2CFeH5C2H3CSHC2HCH7CHC2HN2CH2CH7C2H4SNHC4H5CH3CFeH4FeS2FeS2FeSFeS3H3CH2CH3C2HSHFeS2FeS2FeSFeS3C6H4CHC5H3CH2C2HCH8CH2FeC6H4C2H2C2H4C5H5C7H3CH2CH3CHCH2CH6CH2C2H2CSHSCSC3HCHC2H8CFeH7CHNC4H2CH6CH4CH3SH7CH2SHC2HSHNHC2H3NC3H5C2SH2CNCH2FeSHSCH6CH2C3H3CH6CH2C2H5FeH2CHNC2H2CH4CH2CHNC8H6SCHCH7CH2CH8C2H3CH3CH3NFeS2FeSFeSFeS4C2HCFeHFeS2FeSFeS3HCH2SH2SCFeS2FeS2FeSFeS3FeS2FeS6HFeSHCSNFeSFeHSH3CH3C2HC3HCH2C7H4C6H5CSCHCH2CH3C2H3C6H4C2HNH6C5H4CHCHC7H5SC2H2CHC7H4FeHC2HNH3C4H4SNC8H20SH5SH3Fe2CHSFeCHCH3CH4SHNH2CHNH3C2SH3CFeH4C3H2CNH2C2HCHFeH2SHSNC2H5CHNC8H21CHCH4CSH3CH4FeH4CHFeHC2H6CH2SCH2FeH2CSHSCFeH2C2H3SHC3HC2HCH4CH2CH5S2H3CH2S2HC2H3C2HCHCSHCHFeC3H4CH3Fe2HCH3CFeC2FeHNCSC5HSH2CHCH8CHC2H11NH2CNCHC2HCH2C2HSNHCHC2H2CH6CH3NH3C2H6CH3CHC5H3CH3CH3SH5FeS2H3C2HCHSH2FeSH2FeH2C2H3NCHCHC2HCH5CH2C2H3CH2C2HCNCH5CH4CHC5H3SH5C3HFeSHFeS2FeSFeS3FeS2H2SFeS2FeS2FeSFeS3FeS2FeHSHCFeSFeS2FeSFeS4HCHSCHCHSFeSHFeSFeSH4SHC6H9C6H3C6H4C7H3C2H3C2H3C2H2CH3C6H4SHSC3HCHCH3CH2C3HCH2SC6H4C6H5CHFeHC2HC2H2CHC3HNH2CH2CNC8H9CH2CHC2H4SH6C2HCH5CHCHC2H5CHCHC2SC3H7CHNC3H3SCHC2H4C3H2CH6CFeH4CH9CH8CHFeNCHCNSCHSC2HCHFeSH2CH7CHC2H9C2HCHCH7C2H2CHCH5SCHNH4CNHCFeSCH5CH5CH2C2H2C3HCHCH2C2HCHNCHCH2C2S2H2FeHC2HSH2C3H6CHCHCH4C2H3CH2NH2C2H6CH3FeH4NH2C2H2SH2C2HSC2H2NHFeCNCH2FeSH6SHCHC5H2SC2HC2H2CH3FeH2NH3CFeCHSFeHSHCH2FeCSC2HFeH3NHSCHFeHCH3SCH2CH2CSC5H3CH11SCH4FeC2H2NHC2H3C2SH2SCHCH5C2H3CHSCH5CH2NC2H2C2HSH3C3SH4SH6CHCSH4FeC2H7CH3CFeHS2H5FeS2FeS2FeSFeS2FeS2FeSFeSFeS3H2CH3FeSFeSH4FeS2FeSHS2FeS2FeSHFeSFeS2CSH5CHC7H4C6H4C6H4C6H5CH2SC2H5C6H6C4H5CNHSH4CHC6H4NH2NHC3HCHCH4C2H4C2H3CSCH3CH2SHSCHCHC2H3CH2C2H2SC3NC6H3CH4FeHCHSH2CHC2H4CHCH5C2HC3HNH3C2H2SH7C2H3C2HC2HC4H4C2H3CHC2H5CH2CH5NC2H3CH2FeH2CHSCHNCHCHSHC3H3C2HSHCNH2C2HC3HCHCSNH4FeH3CH2CH2CH3CH2CH3NHCH2CHCSCHCH2CH3CH5CHCH3C2HCHCH6C2H6CHCSH3CH5CHFeC2HCH3CH6CHCH3NHFeS2FeS2FeSFeS3FeS2FeSHFeSFeS3FeSFeSFeS2FeH2FeS2FeSFeHS2FeSFeSFeSFeS2FeS2FeSFeS3FeSHSHSHC6H4C6H4C6H5SH2C3HC5HCH3C7H4C6H4C6H4C6H6CSH4CNC8H11CHCH3CH3CHCNHCH2CHC2HSNHCHFeH2CHNC8H20NC8H20NC8H19SC2HCHCFeC2H2SH4C2H2NC2H2CH2CHCH2CH3SHC3H3C2H4CNH5C2HSCH3NC2H4CHCNH3CH2CHCH3CH2C2H3CH2CH4C2H2SH2NH12CHCHCH2CH4CNH3CHCHSH2CSCHCH3SC2H3C3H3CH2C2HC3H7SH11C3H2CH3CH3CH2CNCH3CH2C2HSHCHCHC5HC2H2CH4SHC2H5CH6CHC2H3CNHCHCH4CNCH3CHCH2FeCH5CHCSH5C2H4CHFeS2FeS2FeSFeS4FeS2FeSHFeSFeS3HFeS2FeS2FeSFeS3FeS2FeS2FeSFeS3H2SHFeSH2FeS2FeCSCSCH5CH2C6H4C2HC2H3C6H5C6H4C2HC7H3C7H4C6H4C6H4C6H4C2HC4HCH8SHFeH7CHCHNHC2H2CHCHCHCH2CH2NH4C2H3FeHNCH2CHCSH7C2H6CH4NHC3HC2H2CH2CHFeH2SHCH6CH2CH3CH3CH2CH2NH2C3H2CHCH5C5HNC2H2C2FeHNH4CHSHCH2FeH2CHC3HCH2C2H5CH4CH4CHC2H2FeH4CHC2N2H2FeCH5CH2CHCH5SHCHCH2CH7C2H3FeH3CH2FeH3C2HCH3CHNH4CH3NH2C2NHCSCH5CSH4SCSC3HSHCHSHCH2C3HCH2CHCH5CHC3SHCSCH5CH8C2SCH2C3H5CSHSHFeH4NH2C2H2CHCHC2FeCHC2SHSC2S2H3CH2CH2C3HCH2CHCH2C2HNH4SCHCHSHSHSHCFeS2FeS2FeSFeS3H3CNH2CH10CH2SFeS2FeS2FeSFeS3H2CHCH3CHC6H4C6H4C6H3CH2C2H3CH3C2HC6H4C6H4C6H4C4H5CH2C2H2C2HCHCHCH4C2H3NCH3NSNC7H20CHC2H2CSHCHC2H3CH10NH4C2H4NCH2SCH2CH3CH2C2H3C2HC4H2CH8NH7SH2SH3CH6CH2SHCH5CHCH2C2HC2H2CFeCSHFeS2FeS2FeSFeS3H2CH2FeS2FeS2FeSFeS3HCH5CH3CHSHCH4C3H6CHNC7H5C2H2C2H7NC4H2CNH2C2H2C4H3CSH2FeNH2C2HCH2CSH4C2H3SH7C2H5C3HCNC2H2CHC2HCHCNH6CNCHCHFeCH3C3HCSCHC3H3CH6C2HCH3SCH2CH5CH2CHC2H4CH4SHC2HC2HC2HC3H3CH3C2H11CH2CH2NH5FeHC3H2CH3FeH2CHC2H2CH2CH3CH4CHCH2SCFeS2FeSFeS2CSFeS2FeSHFeSFeS3HCSHSCH3CH2S2CHFeH3NH3CHCH8CHSC6H4C4H4NH5CFeHC6H4C6H5CHCNH3CH4C2HNHCH5CH2CHCH4CH3C2H4C2H2C2H8CH2C2H3CFeSHFeS2FeCFeSCSFeS2HSHFeSFeS3HFeS2FeS2FeSFeS3FeS2FeS2FeSFeS3CFeS2FeS2FeSFeCS2FeCFeS2FeSFeHS2C6H5CHC2H2CH5CHC6H2CH3CH2C6H4C6H4CHS2HC3H5CHC6H4CH2CH4C6H4C6H3CHCSCSCH2NC8H21C6H2SH2C2HCH6C2H4CH3NHCSHCN2C8H20FeCHCHCFeCH2CH3SCH3CH5SCH4FeH4NC8H23CHC2H4CH2CH3C2H2C2HCH2N2CH2CHSFeHCH4CSHC2H2C5HC2HSCH4SH2CHCH2CHCH4CHCH3CHC2HNCH6CHCH2CH2CHCFeH2CH6C3HSHCSC2FeHCH3NH3CH4CSCHSCHCH2C3H2CNHCH2CH2NH6CH5SHC3H3C2H3CH2C2HC2H4CH2C2HCH14CH3C2H4CH3CH7CH3C3H3CH3CH3NH2CH3CH3NH3NH6C3HC2HCNH3CH2CHFeH7CH2CHCHC2FeH2C2HFeS2FeS2FeSFeS3FeSHFeS2FeSFeS3C2H4FeS2FeS2FeSFeS3FeH3SH3FeS2FeS2FeSFeS3C6H9CNCHC3H3C6H6C2HCHCHC6H4C6H2CHC6H4CH2FeCH5C6H4CHCH2C4H3CH2CHC2HCNC8H20NCHC3HCH12NH2FeC2HCHNC8H21CFeH3C2HC2H6CH3CH3C2H2CHSH5SH2CH3CH2SH4S2CSC3SCHCNCH4CH2CHCH5S2HCHCHC2H4NCSH2CH2CH2SFeH3C2H6C2HNCHC3H3CHCNCHC3H3CH2CHCH2CH6CH3FeSH3SHC2H4CH4C7HFeHSHFeCHCH7C3HCH5CHCH2C2H3FeHSFeHCSCHSH3C5H3CHCSHCH2C2HCNSCHSCHCH11FeH3CH2
_chemical_formula_sum              "H3072 S512 Fe256 N128 C1792"
_cell_length_a       113.037
_cell_length_b       111.656
_cell_length_c       35.6252
_cell_angle_alpha    77.1102
_cell_angle_beta     77.1061
_cell_angle_gamma    100.943

_space_group_name_H-M_alt    "P 1"
_space_group_IT_number       1

loop_
  _space_group_symop_operation_xyz
  'x, y, z'

loop_
  _atom_site_type_symbol
  _atom_site_label
  _atom_site_symmetry_multiplicity
  _atom_site_fract_x
  _atom_site_fract_y
  _atom_site_fract_z
  _atom_site_occupancy
  H   H1        1.0  0.05042  0.42534  0.29150  1.0000
  S   S1        1.0  0.07521  0.47975  0.45633  1.0000
  Fe  Fe1       1.0  0.06980  0.46177  0.56711  1.0000
  S   S2        1.0  0.07442  0.45271  0.51610  1.0000
  S   S3        1.0  0.06345  0.45420  0.63532  1.0000
  Fe  Fe2       1.0  0.08888  0.47159  0.48459  1.0000
  Fe  Fe3       1.0  0.06033  0.46171  0.49100  1.0000
  S   S4        1.0  0.04582  0.45685  0.45594  1.0000
  N   N1        1.0  0.02171  0.40890  0.33310  1.0000
  S   S5        1.0  0.05506  0.46945  0.54379  1.0000
  N   N2        1.0  0.02756  0.49001  0.49383  1.0000
  H   H2        1.0  0.06612  0.48975  0.70605  1.0000
  S   S6        1.0  0.00052  0.41563  0.43747  1.0000
  S   S7        1.0  0.10445  0.48068  0.93350  1.0000
  H   H3        1.0  0.04438  0.41923  0.34523  1.0000
  Fe  Fe4       1.0  0.09173  0.47893  0.89134  1.0000
  H   H4        1.0  0.03035  0.46399  0.52406  1.0000
  H   H5        1.0  0.00713  0.47233  0.86335  1.0000
  H   H6        1.0  0.03684  0.40956  0.88717  1.0000
  H   H7        1.0  0.07574  0.41861  0.77263  1.0000
  H   H8        1.0  0.06419  0.48940  0.64256  1.0000
  C   C1        1.0  0.99884  0.47695  0.26666  1.0000
  H   H9        1.0  0.00507  0.47335  0.49684  1.0000
  C   C2        1.0  0.99163  0.46218  0.39618  1.0000
  H   H10       1.0  0.00064  0.47722  0.54414  1.0000
  H   H11       1.0  0.05333  0.41117  0.31699  1.0000
  H   H12       1.0  0.14551  0.48927  0.91663  1.0000
  H   H13       1.0  0.01628  0.43139  0.28342  1.0000
  H   H14       1.0  0.02737  0.42545  0.35441  1.0000
  C   C3        1.0  0.99539  0.46400  0.25808  1.0000
  C   C4        1.0  0.04710  0.41058  0.88160  1.0000
  S   S8        1.0  0.99495  0.41876  0.93918  1.0000
  C   C5        1.0  0.02112  0.42196  0.33717  1.0000
  H   H15       1.0  0.08235  0.44221  0.83266  1.0000
  Fe  Fe5       1.0  0.08429  0.47140  0.81906  1.0000
  S   S9        1.0  0.08193  0.46037  0.88302  1.0000
  S   S10       1.0  0.09171  0.46514  0.76371  1.0000
  H   H16       1.0  0.01161  0.42168  0.35503  1.0000
  S   S11       1.0  0.07340  0.48401  0.90974  1.0000
  H   H17       1.0  0.03546  0.41190  0.27675  1.0000
  H   H18       1.0  0.01559  0.48404  0.19223  1.0000
  Fe  Fe6       1.0  0.06385  0.46643  0.89662  1.0000
  S   S12       1.0  0.04585  0.45424  0.94415  1.0000
  S   S13       1.0  0.06577  0.47645  0.83247  1.0000
  C   C6        1.0  0.03192  0.44431  0.94160  1.0000
  C   C7        1.0  0.02980  0.44309  0.90526  1.0000
  C   C8        1.0  0.01845  0.43521  0.90501  1.0000
  C   C9        1.0  0.00905  0.42864  0.94094  1.0000
  C   C10       1.0  0.01116  0.42999  0.97717  1.0000
  C   C11       1.0  0.02253  0.43773  0.97745  1.0000
  H   H19       1.0  0.03685  0.44828  0.87748  1.0000
  H   H20       1.0  0.01685  0.43430  0.87686  1.0000
  H   H21       1.0  0.00410  0.42491  0.00509  1.0000
  H   H22       1.0  0.02407  0.43860  0.00574  1.0000
  C   C12       1.0  0.01485  0.49259  0.49654  1.0000
  H   H23       1.0  0.03292  0.43271  0.27582  1.0000
  H   H24       1.0  0.03217  0.44423  0.80447  1.0000
  S   S14       1.0  0.09570  0.48918  0.82609  1.0000
  C   C13       1.0  0.02810  0.48240  0.53397  1.0000
  H   H25       1.0  0.00924  0.48003  0.25974  1.0000
  H   H26       1.0  0.01475  0.41132  0.28033  1.0000
  H   H27       1.0  0.10009  0.46039  0.68777  1.0000
  H   H28       1.0  0.04824  0.40771  0.82316  1.0000
  H   H29       1.0  0.02118  0.39492  0.43252  1.0000
  S   S15       1.0  0.99929  0.48333  0.41858  1.0000
  H   H30       1.0  0.15266  0.48215  0.96787  1.0000
  C   C14       1.0  0.07494  0.42815  0.75800  1.0000
  H   H31       1.0  0.99457  0.41047  0.18360  1.0000
  H   H32       1.0  0.00780  0.48033  0.97938  1.0000
  H   H33       1.0  0.00030  0.48702  0.92356  1.0000
  H   H34       1.0  0.11584  0.48740  0.50231  1.0000
  C   C15       1.0  0.01091  0.46537  0.88140  1.0000
  H   H35       1.0  0.02520  0.44182  0.30399  1.0000
  H   H36       1.0  0.00473  0.38427  0.33632  1.0000
  C   C16       1.0  0.07215  0.45993  0.66618  1.0000
  C   C17       1.0  0.06597  0.46332  0.69962  1.0000
  C   C18       1.0  0.07207  0.46565  0.72875  1.0000
  C   C19       1.0  0.08430  0.46430  0.72512  1.0000
  C   C20       1.0  0.09061  0.46142  0.69093  1.0000
  C   C21       1.0  0.08462  0.45934  0.66145  1.0000
  H   H37       1.0  0.05631  0.46374  0.70356  1.0000
  H   H38       1.0  0.06715  0.46799  0.75472  1.0000
  H   H39       1.0  0.02421  0.47414  0.46789  1.0000
  H   H40       1.0  0.08943  0.45658  0.63614  1.0000
  C   C22       1.0  0.03302  0.44528  0.45211  1.0000
  C   C23       1.0  0.02905  0.43276  0.47671  1.0000
  C   C24       1.0  0.01906  0.42395  0.47196  1.0000
  C   C25       1.0  0.01277  0.42746  0.44284  1.0000
  C   C26       1.0  0.01670  0.43999  0.41830  1.0000
  C   C27       1.0  0.02673  0.44879  0.42292  1.0000
  H   H41       1.0  0.03373  0.42984  0.49926  1.0000
  H   H42       1.0  0.01619  0.41432  0.49112  1.0000
  H   H43       1.0  0.01206  0.44291  0.39566  1.0000
  H   H44       1.0  0.02964  0.45842  0.40370  1.0000
  C   C28       1.0  0.99354  0.47754  0.93171  1.0000
  H   H45       1.0  0.11573  0.48472  0.99606  1.0000
  H   H46       1.0  0.06659  0.44668  0.80727  1.0000
  C   C29       1.0  0.01216  0.40503  0.31146  1.0000
  H   H47       1.0  0.05557  0.42319  0.75777  1.0000
  C   C30       1.0  0.12339  0.49108  0.47482  1.0000
  S   S16       1.0  0.08512  0.47959  0.53724  1.0000
  H   H48       1.0  0.00909  0.46421  0.03816  1.0000
  H   H49       1.0  0.99556  0.44677  0.96905  1.0000
  C   C31       1.0  0.03445  0.40854  0.30950  1.0000
  H   H50       1.0  0.05093  0.41748  0.89659  1.0000
  C   C32       1.0  0.02587  0.40180  0.40259  1.0000
  C   C33       1.0  0.00199  0.47039  0.98715  1.0000
  H   H51       1.0  0.04830  0.40119  0.89637  1.0000
  H   H52       1.0  0.99324  0.46994  0.00960  1.0000
  C   C34       1.0  0.05378  0.41420  0.83628  1.0000
  H   H53       1.0  0.03789  0.48449  0.53633  1.0000
  H   H54       1.0  0.06214  0.43945  0.75195  1.0000
  H   H55       1.0  0.00281  0.40609  0.32650  1.0000
  C   C35       1.0  0.06149  0.42973  0.76975  1.0000
  H   H56       1.0  0.03778  0.42895  0.84970  1.0000
  H   H57       1.0  0.99954  0.45936  0.40458  1.0000
  Fe  Fe7       1.0  0.07697  0.49336  0.84454  1.0000
  C   C36       1.0  0.00878  0.46173  0.00982  1.0000
  H   H58       1.0  0.04384  0.44421  0.76183  1.0000
  C   C37       1.0  0.02411  0.43245  0.29750  1.0000
  C   C38       1.0  0.12214  0.48711  0.44099  1.0000
  H   H59       1.0  0.03654  0.42282  0.80846  1.0000
  H   H60       1.0  0.00790  0.39923  0.39001  1.0000
  C   C39       1.0  0.07432  0.43366  0.84328  1.0000
  Fe  Fe8       1.0  0.07073  0.48660  0.51061  1.0000
  H   H61       1.0  0.05683  0.43882  0.85639  1.0000
  H   H62       1.0  0.15177  0.49283  0.86414  1.0000
  H   H63       1.0  0.99543  0.47512  0.29978  1.0000
  H   H64       1.0  0.07791  0.42630  0.83167  1.0000
  H   H65       1.0  0.03411  0.48430  0.39917  1.0000
  C   C40       1.0  0.02391  0.46775  0.54405  1.0000
  C   C41       1.0  0.07343  0.49501  0.62192  1.0000
  H   H66       1.0  0.00572  0.45551  0.88516  1.0000
  H   H67       1.0  0.01869  0.46322  0.99268  1.0000
  H   H68       1.0  0.04818  0.45112  0.80005  1.0000
  C   C42       1.0  0.04605  0.41660  0.31678  1.0000
  S   S17       1.0  0.10853  0.47586  0.44177  1.0000
  H   H69       1.0  0.00381  0.45154  0.01816  1.0000
  C   C43       1.0  0.00348  0.48098  0.51101  1.0000
  C   C44       1.0  0.01138  0.46774  0.92205  1.0000
  H   H70       1.0  0.99546  0.48381  0.50163  1.0000
  C   C45       1.0  0.99734  0.48919  0.20079  1.0000
  H   H71       1.0  0.02430  0.46359  0.57499  1.0000
  H   H72       1.0  0.02251  0.48527  0.55882  1.0000
  H   H73       1.0  0.08042  0.48928  0.62324  1.0000
  H   H74       1.0  0.99951  0.45723  0.27573  1.0000
  H   H75       1.0  0.99920  0.46458  0.22606  1.0000
  H   H76       1.0  0.01577  0.46045  0.93574  1.0000
  H   H77       1.0  0.07214  0.43089  0.87650  1.0000
  C   C46       1.0  0.04258  0.43007  0.81784  1.0000
  H   H78       1.0  0.01424  0.46411  0.54302  1.0000
  C   C47       1.0  0.03296  0.49078  0.41853  1.0000
  C   C48       1.0  0.04188  0.44323  0.79446  1.0000
  H   H79       1.0  0.05541  0.49542  0.76258  1.0000
  N   N3        1.0  0.05553  0.42786  0.81369  1.0000
  N   N4        1.0  0.99910  0.46726  0.95048  1.0000
  C   C49       1.0  0.01772  0.39958  0.37422  1.0000
  H   H80       1.0  0.03517  0.39995  0.39221  1.0000
  H   H81       1.0  0.01819  0.47708  0.91580  1.0000
  C   C50       1.0  0.01013  0.39135  0.30741  1.0000
  H   H82       1.0  0.08170  0.43569  0.76360  1.0000
  H   H83       1.0  0.07785  0.42939  0.72513  1.0000
  H   H84       1.0  0.02690  0.41132  0.40763  1.0000
  H   H85       1.0  0.01904  0.38901  0.29520  1.0000
  H   H86       1.0  0.03536  0.39858  0.31499  1.0000
  H   H87       1.0  0.01763  0.38979  0.37210  1.0000
  H   H88       1.0  0.06274  0.41141  0.83325  1.0000
  C   C51       1.0  0.06301  0.43722  0.82981  1.0000
  C   C52       1.0  0.13213  0.49195  0.40562  1.0000
  H   H89       1.0  0.00437  0.39036  0.28620  1.0000
  H   H90       1.0  0.99187  0.47663  0.90296  1.0000
  H   H91       1.0  0.13131  0.48887  0.37937  1.0000
  H   H92       1.0  0.04016  0.48074  0.46326  1.0000
  S   S18       1.0  0.99160  0.47667  0.10743  1.0000
  N   N5        1.0  0.99371  0.48720  0.24558  1.0000
  H   H93       1.0  0.02065  0.46641  0.86358  1.0000
  C   C53       1.0  0.12093  0.49232  0.96937  1.0000
  C   C54       1.0  0.03114  0.48329  0.46227  1.0000
  C   C55       1.0  0.15375  0.48916  0.89315  1.0000
  C   C56       1.0  0.11721  0.49292  0.93387  1.0000
  H   H94       1.0  0.15557  0.48193  0.03286  1.0000
  H   H95       1.0  0.01272  0.49242  0.14784  1.0000
  H   H96       1.0  0.00226  0.49490  0.31417  1.0000
  H   H97       1.0  0.08705  0.49135  0.67617  1.0000
  H   H98       1.0  0.15433  0.47929  0.89527  1.0000
  C   C57       1.0  0.01147  0.49179  0.18014  1.0000
  H   H99       1.0  0.02482  0.49452  0.41446  1.0000
  H   H100      1.0  0.08765  0.49244  0.73997  1.0000
  H   H101      1.0  0.99242  0.48092  0.19268  1.0000
  C   C58       1.0  0.99033  0.45416  0.96324  1.0000
  Fe  Fe9       1.0  0.99104  0.49675  0.08251  1.0000
  H   H102      1.0  0.07228  0.49661  0.59117  1.0000
  H   H103      1.0  0.05134  0.49686  0.03913  1.0000
  H   H104      1.0  0.15540  0.62235  0.57317  1.0000
  H   H105      1.0  0.08539  0.54746  0.51880  1.0000
  Fe  Fe10      1.0  0.09091  0.57387  0.60937  1.0000
  S   S19       1.0  0.08628  0.58897  0.56549  1.0000
  S   S20       1.0  0.08741  0.56898  0.67725  1.0000
  Fe  Fe11      1.0  0.10096  0.56212  0.54378  1.0000
  S   S21       1.0  0.09730  0.57621  0.49501  1.0000
  S   S22       1.0  0.10964  0.54655  0.53072  1.0000
  Fe  Fe12      1.0  0.10531  0.59038  0.52476  1.0000
  S   S23       1.0  0.11965  0.60875  0.48636  1.0000
  Fe  Fe13      1.0  0.07862  0.57328  0.53944  1.0000
  S   S24       1.0  0.05938  0.57121  0.52573  1.0000
  S   S25       1.0  0.11028  0.57633  0.57029  1.0000
  S   S26       1.0  0.08195  0.55818  0.58659  1.0000
  H   H106      1.0  0.04433  0.55226  0.28467  1.0000
  H   H107      1.0  0.03382  0.53764  0.31465  1.0000
  H   H108      1.0  0.15175  0.63220  0.60605  1.0000
  C   C59       1.0  0.09417  0.53026  0.64350  1.0000
  H   H109      1.0  0.02898  0.54409  0.04074  1.0000
  H   H110      1.0  0.07887  0.51190  0.01972  1.0000
  C   C60       1.0  0.07788  0.50803  0.62943  1.0000
  H   H111      1.0  0.06779  0.59744  0.75100  1.0000
  H   H112      1.0  0.07499  0.59586  0.86099  1.0000
  H   H113      1.0  0.12627  0.51626  0.42464  1.0000
  C   C61       1.0  0.13457  0.51180  0.90088  1.0000
  C   C62       1.0  0.06528  0.59927  0.78078  1.0000
  H   H114      1.0  0.08845  0.50405  0.94251  1.0000
  S   S27       1.0  0.07517  0.51329  0.82485  1.0000
  H   H115      1.0  0.03937  0.58224  0.23925  1.0000
  Fe  Fe14      1.0  0.10491  0.59031  0.85248  1.0000
  S   S28       1.0  0.10287  0.59630  0.90983  1.0000
  S   S29       1.0  0.10190  0.60108  0.79444  1.0000
  Fe  Fe15      1.0  0.11034  0.56573  0.88978  1.0000
  S   S30       1.0  0.10863  0.56934  0.94985  1.0000
  S   S31       1.0  0.11508  0.54799  0.87949  1.0000
  Fe  Fe16      1.0  0.09162  0.57591  0.93983  1.0000
  S   S32       1.0  0.07293  0.56937  0.98856  1.0000
  Fe  Fe17      1.0  0.12014  0.58921  0.91580  1.0000
  S   S33       1.0  0.13914  0.59665  0.92796  1.0000
  S   S34       1.0  0.09266  0.57069  0.88243  1.0000
  S   S35       1.0  0.12284  0.58489  0.85569  1.0000
  C   C63       1.0  0.08689  0.52329  0.83681  1.0000
  C   C64       1.0  0.08780  0.53634  0.82881  1.0000
  C   C65       1.0  0.09669  0.54415  0.84074  1.0000
  C   C66       1.0  0.10479  0.53894  0.86018  1.0000
  C   C67       1.0  0.10416  0.52601  0.86679  1.0000
  C   C68       1.0  0.09511  0.51818  0.85581  1.0000
  H   H116      1.0  0.08159  0.54035  0.81362  1.0000
  H   H117      1.0  0.09734  0.55418  0.83457  1.0000
  H   H118      1.0  0.11035  0.52192  0.88199  1.0000
  H   H119      1.0  0.09434  0.50814  0.86318  1.0000
  C   C69       1.0  0.03421  0.57517  0.26848  1.0000
  H   H120      1.0  0.06235  0.60831  0.77606  1.0000
  C   C70       1.0  0.14630  0.61809  0.00452  1.0000
  C   C71       1.0  0.04859  0.54590  0.95106  1.0000
  C   C72       1.0  0.05949  0.55403  0.95287  1.0000
  C   C73       1.0  0.05942  0.55880  0.98596  1.0000
  C   C74       1.0  0.04834  0.55510  0.01771  1.0000
  H   H121      1.0  0.04878  0.54233  0.92519  1.0000
  H   H122      1.0  0.06797  0.55654  0.92878  1.0000
  H   H123      1.0  0.04818  0.55870  0.04357  1.0000
  C   C75       1.0  0.13882  0.58037  0.45377  1.0000
  H   H124      1.0  0.03571  0.57839  0.88451  1.0000
  H   H125      1.0  0.15074  0.50433  0.37644  1.0000
  C   C76       1.0  0.14660  0.60593  0.95531  1.0000
  C   C77       1.0  0.13996  0.61104  0.98321  1.0000
  H   H126      1.0  0.07154  0.50169  0.75743  1.0000
  C   C78       1.0  0.13356  0.60552  0.62215  1.0000
  H   H127      1.0  0.99648  0.50760  0.23691  1.0000
  H   H128      1.0  0.12992  0.60958  0.98838  1.0000
  H   H129      1.0  0.14102  0.62198  0.02596  1.0000
  H   H130      1.0  0.11718  0.58889  0.64719  1.0000
  H   H131      1.0  0.14204  0.53618  0.40806  1.0000
  H   H132      1.0  0.13545  0.50245  0.49994  1.0000
  H   H133      1.0  0.13691  0.60192  0.59605  1.0000
  H   H134      1.0  0.03818  0.50474  0.54184  1.0000
  C   C79       1.0  0.02659  0.57198  0.35963  1.0000
  H   H135      1.0  0.05832  0.58972  0.88355  1.0000
  H   H136      1.0  0.02691  0.54703  0.36997  1.0000
  Fe  Fe18      1.0  0.00045  0.52849  0.35423  1.0000
  C   C80       1.0  0.09281  0.57859  0.70638  1.0000
  C   C81       1.0  0.09225  0.59128  0.69973  1.0000
  C   C82       1.0  0.09519  0.59815  0.72665  1.0000
  C   C83       1.0  0.09886  0.59245  0.76005  1.0000
  C   C84       1.0  0.09961  0.57984  0.76624  1.0000
  C   C85       1.0  0.09648  0.57292  0.73980  1.0000
  H   H137      1.0  0.08905  0.59562  0.67484  1.0000
  H   H138      1.0  0.09439  0.60784  0.72205  1.0000
  H   H139      1.0  0.10250  0.57538  0.79164  1.0000
  H   H140      1.0  0.09678  0.56306  0.74556  1.0000
  C   C86       1.0  0.13575  0.61233  0.48490  1.0000
  C   C87       1.0  0.14035  0.60502  0.51288  1.0000
  H   H141      1.0  0.01450  0.49880  0.46794  1.0000
  H   H142      1.0  0.03900  0.56455  0.83687  1.0000
  C   C88       1.0  0.06403  0.50256  0.74261  1.0000
  C   C89       1.0  0.14409  0.62304  0.45575  1.0000
  H   H143      1.0  0.13415  0.59658  0.53479  1.0000
  H   H144      1.0  0.10667  0.62633  0.59518  1.0000
  H   H145      1.0  0.05136  0.57263  0.28278  1.0000
  H   H146      1.0  0.14065  0.62875  0.43388  1.0000
  C   C90       1.0  0.05070  0.56059  0.50454  1.0000
  C   C91       1.0  0.03794  0.56019  0.50792  1.0000
  C   C92       1.0  0.03070  0.55211  0.49131  1.0000
  C   C93       1.0  0.03616  0.54440  0.47041  1.0000
  C   C94       1.0  0.05615  0.55289  0.48356  1.0000
  H   H147      1.0  0.03358  0.56612  0.52388  1.0000
  H   H148      1.0  0.02090  0.55187  0.49478  1.0000
  H   H149      1.0  0.06595  0.55314  0.48021  1.0000
  H   H150      1.0  0.02254  0.55318  0.32670  1.0000
  H   H151      1.0  0.04677  0.50136  0.47312  1.0000
  C   C95       1.0  0.04897  0.54495  0.46644  1.0000
  C   C96       1.0  0.09793  0.53522  0.52394  1.0000
  C   C97       1.0  0.09976  0.52326  0.52305  1.0000
  C   C98       1.0  0.09047  0.51425  0.51686  1.0000
  C   C99       1.0  0.07923  0.51710  0.51249  1.0000
  C   C100      1.0  0.07744  0.52908  0.51338  1.0000
  C   C101      1.0  0.08680  0.53816  0.51886  1.0000
  H   H152      1.0  0.10836  0.52097  0.52703  1.0000
  H   H153      1.0  0.14067  0.57334  0.89568  1.0000
  H   H154      1.0  0.06878  0.53134  0.50983  1.0000
  C   C102      1.0  0.15176  0.58867  0.45098  1.0000
  H   H155      1.0  0.10346  0.50037  0.71031  1.0000
  H   H156      1.0  0.05341  0.53917  0.45004  1.0000
  C   C103      1.0  0.12408  0.50281  0.89967  1.0000
  H   H157      1.0  0.04586  0.58514  0.29733  1.0000
  H   H158      1.0  0.05426  0.56240  0.34498  1.0000
  H   H159      1.0  0.09557  0.53961  0.65017  1.0000
  C   C104      1.0  0.06691  0.50010  0.70094  1.0000
  H   H160      1.0  0.04666  0.58349  0.38101  1.0000
  C   C105      1.0  0.12496  0.59402  0.65640  1.0000
  H   H161      1.0  0.05926  0.58532  0.33699  1.0000
  H   H162      1.0  0.09354  0.53212  0.61222  1.0000
  C   C106      1.0  0.99905  0.49938  0.25423  1.0000
  H   H163      1.0  0.13150  0.58550  0.46166  1.0000
  H   H164      1.0  0.05717  0.55049  0.81592  1.0000
  H   H165      1.0  0.06175  0.52010  0.03002  1.0000
  H   H166      1.0  0.11986  0.60604  0.57249  1.0000
  H   H167      1.0  0.09398  0.50195  0.98577  1.0000
  H   H168      1.0  0.04487  0.57024  0.91277  1.0000
  C   C107      1.0  0.02129  0.56628  0.40544  1.0000
  H   H169      1.0  0.14926  0.60542  0.38501  1.0000
  H   H170      1.0  0.15161  0.58836  0.13519  1.0000
  C   C108      1.0  0.06562  0.55848  0.80095  1.0000
  C   C109      1.0  0.09355  0.50096  0.71561  1.0000
  H   H171      1.0  0.11509  0.52105  0.45652  1.0000
  H   H172      1.0  0.13673  0.56804  0.14201  1.0000
  C   C110      1.0  0.04268  0.57510  0.29706  1.0000
  S   S36       1.0  0.99646  0.53804  0.40360  1.0000
  H   H173      1.0  0.06785  0.56860  0.86667  1.0000
  S   S37       1.0  0.00398  0.51317  0.09098  1.0000
  C   C111      1.0  0.03744  0.54681  0.01619  1.0000
  S   S38       1.0  0.02764  0.53418  0.44766  1.0000
  C   C112      1.0  0.13457  0.49957  0.47344  1.0000
  C   C113      1.0  0.00680  0.53519  0.21346  1.0000
  C   C114      1.0  0.99592  0.49923  0.29881  1.0000
  H   H174      1.0  0.01323  0.57015  0.41634  1.0000
  C   C115      1.0  0.00046  0.53232  0.18541  1.0000
  H   H175      1.0  0.04283  0.55907  0.39103  1.0000
  C   C116      1.0  0.14319  0.50069  0.40391  1.0000
  C   C117      1.0  0.13159  0.62542  0.66879  1.0000
  H   H176      1.0  0.13406  0.63591  0.57263  1.0000
  H   H177      1.0  0.00571  0.53330  0.15504  1.0000
  H   H178      1.0  0.04274  0.50226  0.00411  1.0000
  H   H179      1.0  0.14441  0.56717  0.03371  1.0000
  H   H180      1.0  0.04085  0.50660  0.04983  1.0000
  H   H181      1.0  0.15388  0.54363  0.83405  1.0000
  H   H182      1.0  0.05018  0.59250  0.83475  1.0000
  H   H183      1.0  0.07142  0.49844  0.00758  1.0000
  C   C118      1.0  0.13128  0.50144  0.97079  1.0000
  Fe  Fe19      1.0  0.00551  0.52250  0.02650  1.0000
  H   H184      1.0  0.15326  0.58574  0.48114  1.0000
  H   H185      1.0  0.99425  0.49740  0.18558  1.0000
  H   H186      1.0  0.04650  0.54419  0.33199  1.0000
  H   H187      1.0  0.02549  0.57793  0.28012  1.0000
  H   H188      1.0  0.05889  0.50192  0.68904  1.0000
  H   H189      1.0  0.07011  0.55669  0.77231  1.0000
  H   H190      1.0  0.05049  0.50865  0.91279  1.0000
  C   C119      1.0  0.04668  0.56602  0.36091  1.0000
  H   H191      1.0  0.10257  0.52674  0.64598  1.0000
  N   N6        1.0  0.06930  0.51622  0.97371  1.0000
  C   C120      1.0  0.07687  0.50851  0.99413  1.0000
  C   C121      1.0  0.03710  0.50265  0.48183  1.0000
  C   C122      1.0  0.07708  0.52940  0.95054  1.0000
  C   C123      1.0  0.06484  0.50977  0.94468  1.0000
  H   H192      1.0  0.08264  0.52185  0.70353  1.0000
  H   H193      1.0  0.13391  0.50079  0.99842  1.0000
  C   C124      1.0  0.08305  0.53731  0.97499  1.0000
  H   H194      1.0  0.09183  0.50995  0.41973  1.0000
  H   H195      1.0  0.01683  0.50100  0.18157  1.0000
  H   H196      1.0  0.06206  0.52373  0.89512  1.0000
  H   H197      1.0  0.15275  0.57400  0.92015  1.0000
  H   H198      1.0  0.07137  0.53501  0.93601  1.0000
  H   H199      1.0  0.07297  0.50965  0.92073  1.0000
  C   C125      1.0  0.05329  0.57873  0.36610  1.0000
  H   H200      1.0  0.13102  0.54346  0.43363  1.0000
  H   H201      1.0  0.15595  0.49768  0.97226  1.0000
  H   H202      1.0  0.13763  0.62469  0.54673  1.0000
  H   H203      1.0  0.04465  0.51872  0.50172  1.0000
  C   C126      1.0  0.05845  0.51717  0.00545  1.0000
  H   H204      1.0  0.07588  0.53929  0.99799  1.0000
  H   H205      1.0  0.09337  0.50956  0.72599  1.0000
  H   H206      1.0  0.04161  0.49865  0.40743  1.0000
  S   S39       1.0  0.99308  0.51046  0.46750  1.0000
  H   H207      1.0  0.00946  0.50201  0.24366  1.0000
  H   H208      1.0  0.12599  0.62407  0.70006  1.0000
  H   H209      1.0  0.13536  0.53037  0.46076  1.0000
  H   H210      1.0  0.14093  0.56489  0.84184  1.0000
  H   H211      1.0  0.14061  0.52637  0.35795  1.0000
  H   H212      1.0  0.13281  0.55036  0.92443  1.0000
  H   H213      1.0  0.10295  0.61617  0.56504  1.0000
  C   C127      1.0  0.13712  0.62691  0.57590  1.0000
  H   H214      1.0  0.12120  0.59674  0.68391  1.0000
  H   H215      1.0  0.02828  0.56889  0.42154  1.0000
  S   S40       1.0  0.02406  0.53211  0.97814  1.0000
  H   H216      1.0  0.13427  0.55818  0.96186  1.0000
  C   C128      1.0  0.08202  0.52124  0.67335  1.0000
  C   C129      1.0  0.08967  0.50143  0.67657  1.0000
  H   H217      1.0  0.11408  0.61449  0.66577  1.0000
  S   S41       1.0  0.00834  0.53799  0.28723  1.0000
  H   H218      1.0  0.13668  0.63559  0.65583  1.0000
  N   N7        1.0  0.12776  0.61636  0.60983  1.0000
  H   H219      1.0  0.06909  0.58255  0.90368  1.0000
  C   C130      1.0  0.12264  0.62135  0.64440  1.0000
  C   C131      1.0  0.15036  0.57677  0.01636  1.0000
  H   H220      1.0  0.11919  0.62982  0.63376  1.0000
  H   H221      1.0  0.01284  0.49828  0.51800  1.0000
  H   H222      1.0  0.13540  0.55939  0.10616  1.0000
  N   N8        1.0  0.05763  0.57630  0.82684  1.0000
  C   C132      1.0  0.11077  0.62119  0.57446  1.0000
  C   C133      1.0  0.14451  0.50449  0.43794  1.0000
  C   C134      1.0  0.03750  0.54226  0.98262  1.0000
  H   H223      1.0  0.04685  0.58676  0.79531  1.0000
  H   H224      1.0  0.15101  0.59407  0.06076  1.0000
  H   H225      1.0  0.11662  0.55470  0.39082  1.0000
  H   H226      1.0  0.07713  0.58154  0.82582  1.0000
  H   H227      1.0  0.01693  0.53835  0.20447  1.0000
  C   C135      1.0  0.13829  0.51121  0.93637  1.0000
  C   C136      1.0  0.15083  0.63007  0.57786  1.0000
  S   S42       1.0  0.01368  0.51909  0.38067  1.0000
  H   H228      1.0  0.09627  0.51766  0.95550  1.0000
  H   H229      1.0  0.08466  0.52911  0.92526  1.0000
  C   C137      1.0  0.08955  0.50817  0.96745  1.0000
  N   N9        1.0  0.03671  0.56662  0.33916  1.0000
  C   C138      1.0  0.05433  0.58853  0.81068  1.0000
  H   H230      1.0  0.08953  0.53284  0.98906  1.0000
  H   H231      1.0  0.15171  0.59264  0.85574  1.0000
  Fe  Fe20      1.0  0.99698  0.50304  0.41379  1.0000
  S   S43       1.0  0.99384  0.50519  0.01691  1.0000
  H   H232      1.0  0.15459  0.60474  0.10901  1.0000
  S   S44       1.0  0.06733  0.50593  0.50571  1.0000
  C   C139      1.0  0.03079  0.55336  0.33896  1.0000
  H   H233      1.0  0.06212  0.51203  0.74094  1.0000
  H   H234      1.0  0.15610  0.56064  0.09196  1.0000
  H   H235      1.0  0.07122  0.51378  0.62202  1.0000
  H   H236      1.0  0.06015  0.49952  0.95896  1.0000
  H   H237      1.0  0.07246  0.55834  0.81892  1.0000
  H   H238      1.0  0.13787  0.57825  0.42566  1.0000
  C   C140      1.0  0.06726  0.58708  0.87513  1.0000
  H   H239      1.0  0.13640  0.57130  0.47781  1.0000
  H   H240      1.0  0.13337  0.52629  0.31767  1.0000
  C   C141      1.0  0.15298  0.60876  0.51287  1.0000
  C   C142      1.0  0.04784  0.50492  0.02547  1.0000
  C   C143      1.0  0.03954  0.54669  0.31609  1.0000
  H   H241      1.0  0.11736  0.62802  0.54674  1.0000
  H   H242      1.0  0.15099  0.58656  0.81298  1.0000
  H   H243      1.0  0.01778  0.55584  0.41423  1.0000
  C   C144      1.0  0.10066  0.50682  0.41445  1.0000
  H   H244      1.0  0.07372  0.60079  0.79177  1.0000
  H   H245      1.0  0.13987  0.51919  0.87389  1.0000
  H   H246      1.0  0.09211  0.50521  0.51510  1.0000
  H   H247      1.0  0.14554  0.54970  0.94767  1.0000
  H   H248      1.0  0.14839  0.56212  0.43614  1.0000
  H   H249      1.0  0.13749  0.57617  0.09192  1.0000
  C   C145      1.0  0.14037  0.56844  0.10998  1.0000
  H   H250      1.0  0.07414  0.52552  0.66855  1.0000
  H   H251      1.0  0.09909  0.52802  0.43367  1.0000
  C   C146      1.0  0.06234  0.57144  0.79138  1.0000
  C   C147      1.0  0.05635  0.51596  0.92221  1.0000
  H   H252      1.0  0.10090  0.55079  0.42147  1.0000
  H   H253      1.0  0.04964  0.51973  0.94102  1.0000
  H   H254      1.0  0.03174  0.56586  0.26215  1.0000
  H   H255      1.0  0.12144  0.50343  0.87204  1.0000
  H   H256      1.0  0.15209  0.57698  0.98429  1.0000
  Fe  Fe21      1.0  0.00907  0.52762  0.43198  1.0000
  H   H257      1.0  0.07107  0.57817  0.77046  1.0000
  H   H258      1.0  0.04810  0.55736  0.86553  1.0000
  C   C148      1.0  0.06773  0.57796  0.84807  1.0000
  H   H259      1.0  0.05957  0.57684  0.38549  1.0000
  N   N10       1.0  0.07924  0.50770  0.67092  1.0000
  C   C149      1.0  0.04595  0.56655  0.85395  1.0000
  C   C150      1.0  0.13976  0.55577  0.93587  1.0000
  H   H260      1.0  0.10923  0.60422  0.61925  1.0000
  H   H261      1.0  0.03062  0.56177  0.90805  1.0000
  C   C151      1.0  0.00011  0.53401  0.25301  1.0000
  H   H262      1.0  0.10113  0.53586  0.38262  1.0000
  H   H263      1.0  0.01840  0.57059  0.34711  1.0000
  H   H264      1.0  0.02990  0.58244  0.35387  1.0000
  H   H265      1.0  0.13826  0.54419  0.83725  1.0000
  C   C152      1.0  0.14760  0.56820  0.90431  1.0000
  H   H266      1.0  0.14478  0.54007  0.31561  1.0000
  H   H267      1.0  0.05542  0.57071  0.77353  1.0000
  C   C153      1.0  0.03908  0.56969  0.89159  1.0000
  H   H268      1.0  0.11233  0.54612  0.44382  1.0000
  N   N11       1.0  0.11686  0.52858  0.39345  1.0000
  C   C154      1.0  0.11151  0.51692  0.38183  1.0000
  C   C155      1.0  0.12644  0.53769  0.35675  1.0000
  C   C156      1.0  0.10619  0.53446  0.40615  1.0000
  C   C157      1.0  0.12246  0.52454  0.42746  1.0000
  C   C158      1.0  0.11692  0.61128  0.59463  1.0000
  C   C159      1.0  0.13685  0.53219  0.33617  1.0000
  C   C160      1.0  0.10950  0.54725  0.41573  1.0000
  C   C161      1.0  0.13326  0.53436  0.43219  1.0000
  H   H269      1.0  0.10810  0.51960  0.35483  1.0000
  H   H270      1.0  0.11883  0.51182  0.37350  1.0000
  H   H271      1.0  0.13121  0.54625  0.36363  1.0000
  H   H272      1.0  0.12176  0.54134  0.33376  1.0000
  H   H273      1.0  0.05414  0.52480  0.99351  1.0000
  H   H274      1.0  0.08871  0.54664  0.95431  1.0000
  S   S45       1.0  0.15218  0.52240  0.93498  1.0000
  C   C162      1.0  0.14614  0.54701  0.84996  1.0000
  H   H275      1.0  0.13048  0.58711  0.66448  1.0000
  C   C163      1.0  0.15467  0.56953  0.09954  1.0000
  H   H276      1.0  0.15556  0.56520  0.80948  1.0000
  H   H277      1.0  0.14293  0.54181  0.88211  1.0000
  H   H278      1.0  0.15353  0.58470  0.37414  1.0000
  H   H279      1.0  0.02805  0.51334  0.52039  1.0000
  H   H280      1.0  0.14209  0.60853  0.63151  1.0000
  H   H281      1.0  0.13838  0.61962  0.67206  1.0000
  H   H282      1.0  0.14520  0.58408  0.02029  1.0000
  C   C164      1.0  0.03675  0.51008  0.51374  1.0000
  H   H283      1.0  0.99692  0.50910  0.30106  1.0000
  H   H284      1.0  0.09824  0.50560  0.65079  1.0000
  C   C165      1.0  0.14968  0.56163  0.84119  1.0000
  H   H285      1.0  0.10304  0.50392  0.44313  1.0000
  H   H286      1.0  0.03604  0.50919  0.45486  1.0000
  H   H287      1.0  0.09873  0.49818  0.40399  1.0000
  H   H288      1.0  0.08696  0.51278  0.60621  1.0000
  H   H289      1.0  0.15076  0.59850  0.44798  1.0000
  H   H290      1.0  0.15633  0.60595  0.33439  1.0000
  H   H291      1.0  0.15629  0.63863  0.55289  1.0000
  H   H292      1.0  0.15636  0.60326  0.53533  1.0000
  C   C166      1.0  0.17086  0.47091  0.92853  1.0000
  C   C167      1.0  0.16041  0.48980  0.96829  1.0000
  H   H293      1.0  0.16332  0.49209  0.58497  1.0000
  H   H294      1.0  0.17547  0.46385  0.94240  1.0000
  H   H295      1.0  0.17094  0.49214  0.01288  1.0000
  C   C168      1.0  0.17830  0.48440  0.92517  1.0000
  H   H296      1.0  0.17070  0.46980  0.89840  1.0000
  H   H297      1.0  0.16114  0.46817  0.94802  1.0000
  H   H298      1.0  0.16774  0.47628  0.00657  1.0000
  C   C169      1.0  0.16408  0.48481  0.00695  1.0000
  H   H299      1.0  0.18411  0.48353  0.94667  1.0000
  H   H300      1.0  0.18537  0.48757  0.89538  1.0000
  H   H301      1.0  0.17922  0.49487  0.52209  1.0000
  N   N12       1.0  0.17093  0.49416  0.92990  1.0000
  Fe  Fe22      1.0  0.29559  0.59321  0.48543  1.0000
  S   S46       1.0  0.27580  0.58815  0.52439  1.0000
  S   S47       1.0  0.30536  0.61388  0.45393  1.0000
  Fe  Fe23      1.0  0.29669  0.56594  0.50080  1.0000
  S   S48       1.0  0.27686  0.55864  0.54106  1.0000
  Fe  Fe24      1.0  0.27181  0.57253  0.49446  1.0000
  S   S49       1.0  0.25291  0.57052  0.47828  1.0000
  Fe  Fe25      1.0  0.28222  0.57468  0.56778  1.0000
  S   S50       1.0  0.27571  0.57232  0.63502  1.0000
  S   S51       1.0  0.29139  0.57872  0.45210  1.0000
  S   S52       1.0  0.30226  0.58091  0.53099  1.0000
  S   S53       1.0  0.30183  0.71086  0.86585  1.0000
  C   C170      1.0  0.18428  0.52680  0.51785  1.0000
  C   C171      1.0  0.17397  0.59872  0.41900  1.0000
  H   H302      1.0  0.21095  0.53233  0.49719  1.0000
  C   C172      1.0  0.19044  0.51311  0.89329  1.0000
  Fe  Fe26      1.0  0.30404  0.56868  0.90913  1.0000
  H   H303      1.0  0.25809  0.72626  0.86289  1.0000
  Fe  Fe27      1.0  0.27880  0.57446  0.90539  1.0000
  S   S54       1.0  0.28808  0.59209  0.85361  1.0000
  S   S55       1.0  0.25787  0.57135  0.93478  1.0000
  Fe  Fe28      1.0  0.29968  0.58000  0.82775  1.0000
  S   S56       1.0  0.30653  0.58169  0.76051  1.0000
  Fe  Fe29      1.0  0.30243  0.59610  0.88714  1.0000
  S   S57       1.0  0.31073  0.61591  0.89103  1.0000
  S   S58       1.0  0.28966  0.56209  0.87790  1.0000
  S   S59       1.0  0.29230  0.57956  0.94070  1.0000
  H   H304      1.0  0.30442  0.71276  0.77062  1.0000
  C   C173      1.0  0.30126  0.71667  0.74513  1.0000
  H   H305      1.0  0.28826  0.68638  0.45612  1.0000
  H   H306      1.0  0.28163  0.69033  0.85142  1.0000
  S   S60       1.0  0.30097  0.73798  0.77321  1.0000
  H   H307      1.0  0.32086  0.68649  0.39588  1.0000
  H   H308      1.0  0.22705  0.54497  0.16726  1.0000
  S   S61       1.0  0.18509  0.57565  0.94084  1.0000
  C   C174      1.0  0.17948  0.59596  0.45504  1.0000
  Fe  Fe30      1.0  0.20333  0.53957  0.36645  1.0000
  S   S62       1.0  0.18612  0.54432  0.39861  1.0000
  S   S63       1.0  0.22093  0.53838  0.38826  1.0000
  Fe  Fe31      1.0  0.19144  0.53522  0.29811  1.0000
  S   S64       1.0  0.17345  0.53962  0.32600  1.0000
  S   S65       1.0  0.19653  0.53154  0.23679  1.0000
  Fe  Fe32      1.0  0.18626  0.55542  0.33784  1.0000
  S   S66       1.0  0.18349  0.57506  0.32415  1.0000
  Fe  Fe33      1.0  0.17470  0.52782  0.38447  1.0000
  S   S67       1.0  0.31338  0.72138  0.93342  1.0000
  S   S68       1.0  0.20418  0.55197  0.30615  1.0000
  S   S69       1.0  0.19196  0.52220  0.35599  1.0000
  Fe  Fe34      1.0  0.22183  0.65199  0.41692  1.0000
  S   S70       1.0  0.22707  0.64839  0.35595  1.0000
  S   S71       1.0  0.23617  0.65900  0.45022  1.0000
  Fe  Fe35      1.0  0.21592  0.62831  0.38599  1.0000
  S   S72       1.0  0.22272  0.61126  0.37640  1.0000
  S   S73       1.0  0.17675  0.62444  0.48767  1.0000
  S   S74       1.0  0.22047  0.64055  0.05019  1.0000
  S   S75       1.0  0.22381  0.67405  0.97537  1.0000
  S   S76       1.0  0.28847  0.69336  0.56089  1.0000
  S   S77       1.0  0.22008  0.61021  0.01153  1.0000
  H   H309      1.0  0.30737  0.60775  0.69701  1.0000
  Fe  Fe36      1.0  0.17039  0.53446  0.05046  1.0000
  S   S78       1.0  0.18971  0.54652  0.01770  1.0000
  H   H310      1.0  0.24320  0.55815  0.02331  1.0000
  C   C175      1.0  0.24980  0.70365  0.84118  1.0000
  S   S79       1.0  0.18355  0.54085  0.93619  1.0000
  N   N13       1.0  0.18754  0.51501  0.50908  1.0000
  Fe  Fe37      1.0  0.19122  0.53174  0.98470  1.0000
  S   S80       1.0  0.20964  0.52638  0.96649  1.0000
  Fe  Fe38      1.0  0.18083  0.55480  0.97139  1.0000
  H   H311      1.0  0.22649  0.65057  0.12619  1.0000
  S   S81       1.0  0.17234  0.51856  0.02132  1.0000
  H   H312      1.0  0.21366  0.52021  0.04928  1.0000
  H   H313      1.0  0.17362  0.55824  0.81942  1.0000
  H   H314      1.0  0.18188  0.60064  0.39176  1.0000
  C   C176      1.0  0.15967  0.60795  0.94935  1.0000
  H   H315      1.0  0.16396  0.50744  0.89154  1.0000
  H   H316      1.0  0.17136  0.58026  0.81723  1.0000
  H   H317      1.0  0.17459  0.59084  0.20029  1.0000
  C   C177      1.0  0.21085  0.60083  0.98996  1.0000
  C   C178      1.0  0.20218  0.60547  0.97222  1.0000
  H   H318      1.0  0.24431  0.66741  0.07654  1.0000
  C   C179      1.0  0.19552  0.58537  0.95806  1.0000
  C   C180      1.0  0.20439  0.58079  0.97502  1.0000
  C   C181      1.0  0.21210  0.58855  0.99076  1.0000
  H   H319      1.0  0.26531  0.67606  0.00096  1.0000
  C   C182      1.0  0.25632  0.69520  0.43902  1.0000
  H   H320      1.0  0.20539  0.57134  0.97572  1.0000
  H   H321      1.0  0.19151  0.57325  0.07321  1.0000
  C   C183      1.0  0.25520  0.54857  0.04994  1.0000
  C   C184      1.0  0.18683  0.53226  0.20388  1.0000
  C   C185      1.0  0.17540  0.53555  0.21316  1.0000
  C   C186      1.0  0.16812  0.53622  0.18571  1.0000
  C   C187      1.0  0.17222  0.53367  0.14871  1.0000
  C   C188      1.0  0.18365  0.53039  0.13945  1.0000
  C   C189      1.0  0.19084  0.52958  0.16709  1.0000
  H   H322      1.0  0.17211  0.53745  0.24160  1.0000
  H   H323      1.0  0.20660  0.67653  0.06217  1.0000
  H   H324      1.0  0.18673  0.52815  0.11148  1.0000
  H   H325      1.0  0.19947  0.52666  0.16031  1.0000
  C   C190      1.0  0.19534  0.58526  0.33479  1.0000
  C   C191      1.0  0.20308  0.58029  0.35631  1.0000
  C   C192      1.0  0.21175  0.58837  0.36802  1.0000
  C   C193      1.0  0.21270  0.60144  0.35822  1.0000
  C   C194      1.0  0.20541  0.60646  0.33492  1.0000
  C   C195      1.0  0.19672  0.59838  0.32321  1.0000
  H   H326      1.0  0.20224  0.57020  0.36476  1.0000
  H   H327      1.0  0.21747  0.58444  0.38562  1.0000
  H   H328      1.0  0.20644  0.61657  0.32600  1.0000
  H   H329      1.0  0.27488  0.72784  0.84828  1.0000
  H   H330      1.0  0.21237  0.52057  0.09972  1.0000
  C   C196      1.0  0.23562  0.54413  0.14655  1.0000
  S   S82       1.0  0.16677  0.62882  0.02741  1.0000
  C   C197      1.0  0.26275  0.69330  0.46868  1.0000
  H   H331      1.0  0.20287  0.58063  0.25162  1.0000
  C   C198      1.0  0.23208  0.53663  0.11738  1.0000
  H   H332      1.0  0.25768  0.70472  0.42043  1.0000
  H   H333      1.0  0.25734  0.54561  0.07901  1.0000
  C   C199      1.0  0.31415  0.61494  0.63202  1.0000
  H   H334      1.0  0.16847  0.50830  0.58409  1.0000
  H   H335      1.0  0.22309  0.58945  0.14630  1.0000
  H   H336      1.0  0.29404  0.55081  0.68932  1.0000
  C   C200      1.0  0.31169  0.60883  0.96941  1.0000
  C   C201      1.0  0.17183  0.52922  0.51092  1.0000
  H   H337      1.0  0.17084  0.53839  0.51681  1.0000
  H   H338      1.0  0.16042  0.54943  0.89682  1.0000
  H   H339      1.0  0.30366  0.60108  0.97421  1.0000
  C   C202      1.0  0.24497  0.55885  0.93852  1.0000
  C   C203      1.0  0.23294  0.56100  0.94683  1.0000
  C   C204      1.0  0.22224  0.55129  0.95278  1.0000
  C   C205      1.0  0.22330  0.53905  0.95256  1.0000
  C   C206      1.0  0.23533  0.53683  0.94387  1.0000
  C   C207      1.0  0.24616  0.54673  0.93651  1.0000
  H   H340      1.0  0.23178  0.57018  0.94931  1.0000
  H   H341      1.0  0.21312  0.55323  0.95850  1.0000
  H   H342      1.0  0.23627  0.52739  0.94353  1.0000
  H   H343      1.0  0.25536  0.54489  0.93046  1.0000
  C   C208      1.0  0.28669  0.54032  0.62627  1.0000
  C   C209      1.0  0.29550  0.62031  0.55363  1.0000
  H   H344      1.0  0.17238  0.59413  0.48404  1.0000
  N   N14       1.0  0.15662  0.56708  0.86776  1.0000
  H   H345      1.0  0.20310  0.51022  0.42165  1.0000
  H   H346      1.0  0.18444  0.50361  0.95591  1.0000
  H   H347      1.0  0.17158  0.53003  0.47967  1.0000
  H   H348      1.0  0.26987  0.70516  0.86564  1.0000
  H   H349      1.0  0.26705  0.68441  0.84252  1.0000
  H   H350      1.0  0.21893  0.58503  0.00392  1.0000
  C   C210      1.0  0.25957  0.68116  0.98648  1.0000
  C   C211      1.0  0.24734  0.67472  0.98835  1.0000
  C   C212      1.0  0.23960  0.68136  0.97149  1.0000
  C   C213      1.0  0.24435  0.69439  0.95190  1.0000
  C   C214      1.0  0.25667  0.70077  0.94912  1.0000
  H   H351      1.0  0.24381  0.66469  0.00359  1.0000
  H   H352      1.0  0.23831  0.69966  0.93974  1.0000
  H   H353      1.0  0.26003  0.71089  0.93512  1.0000
  H   H354      1.0  0.30597  0.65595  0.90067  1.0000
  C   C215      1.0  0.17161  0.50038  0.57439  1.0000
  H   H355      1.0  0.17013  0.58439  0.86315  1.0000
  C   C216      1.0  0.30758  0.54044  0.66529  1.0000
  H   H356      1.0  0.18797  0.60148  0.94210  1.0000
  C   C217      1.0  0.29687  0.68617  0.43408  1.0000
  C   C218      1.0  0.28452  0.57514  0.66914  1.0000
  C   C219      1.0  0.29762  0.57932  0.65718  1.0000
  C   C220      1.0  0.30418  0.58107  0.68572  1.0000
  C   C221      1.0  0.29775  0.57893  0.72628  1.0000
  C   C222      1.0  0.28466  0.57489  0.73809  1.0000
  C   C223      1.0  0.27811  0.57295  0.70969  1.0000
  H   H357      1.0  0.30268  0.58114  0.62609  1.0000
  H   H358      1.0  0.31431  0.58417  0.67639  1.0000
  H   H359      1.0  0.27959  0.57319  0.76914  1.0000
  H   H360      1.0  0.26798  0.56971  0.71927  1.0000
  H   H361      1.0  0.18028  0.56202  0.20747  1.0000
  S   S83       1.0  0.30765  0.71154  0.47448  1.0000
  C   C224      1.0  0.16594  0.49793  0.89416  1.0000
  C   C225      1.0  0.17664  0.50350  0.52844  1.0000
  H   H362      1.0  0.22742  0.60495  0.11340  1.0000
  H   H363      1.0  0.30316  0.66395  0.38269  1.0000
  C   C226      1.0  0.19926  0.65083  0.19283  1.0000
  H   H364      1.0  0.23897  0.69525  0.15770  1.0000
  C   C227      1.0  0.15972  0.59327  0.06928  1.0000
  C   C228      1.0  0.24420  0.56140  0.45311  1.0000
  C   C229      1.0  0.24859  0.55233  0.43623  1.0000
  C   C230      1.0  0.24137  0.54546  0.41649  1.0000
  C   C231      1.0  0.22975  0.54764  0.41268  1.0000
  C   C232      1.0  0.22534  0.55668  0.42960  1.0000
  C   C233      1.0  0.23244  0.56338  0.44995  1.0000
  H   H365      1.0  0.25754  0.55058  0.43841  1.0000
  H   H366      1.0  0.24488  0.53845  0.40381  1.0000
  H   H367      1.0  0.21642  0.55845  0.42729  1.0000
  H   H368      1.0  0.22873  0.57013  0.46336  1.0000
  Fe  Fe39      1.0  0.16438  0.52893  0.97440  1.0000
  H   H369      1.0  0.17718  0.58487  0.09799  1.0000
  C   C234      1.0  0.31620  0.61076  0.00188  1.0000
  C   C235      1.0  0.31357  0.53717  0.59851  1.0000
  H   H370      1.0  0.30280  0.62293  0.52475  1.0000
  N   N15       1.0  0.31162  0.62237  0.59493  1.0000
  H   H371      1.0  0.21382  0.60975  0.16316  1.0000
  H   H372      1.0  0.19864  0.49981  0.47063  1.0000
  H   H373      1.0  0.30095  0.55397  0.57769  1.0000
  C   C236      1.0  0.26074  0.68088  0.49254  1.0000
  C   C237      1.0  0.25248  0.67063  0.48673  1.0000
  C   C238      1.0  0.24611  0.67253  0.45689  1.0000
  C   C239      1.0  0.24812  0.68494  0.43305  1.0000
  H   H374      1.0  0.32016  0.69002  0.01754  1.0000
  H   H375      1.0  0.26544  0.67919  0.51581  1.0000
  H   H376      1.0  0.25098  0.66113  0.50566  1.0000
  H   H377      1.0  0.24332  0.68666  0.41004  1.0000
  S   S84       1.0  0.30865  0.55207  0.49158  1.0000
  N   N16       1.0  0.25057  0.60830  0.89543  1.0000
  C   C240      1.0  0.25939  0.60544  0.92057  1.0000
  C   C241      1.0  0.25814  0.61205  0.85211  1.0000
  C   C242      1.0  0.24064  0.59620  0.90365  1.0000
  C   C243      1.0  0.24484  0.61856  0.90717  1.0000
  C   C244      1.0  0.25340  0.60011  0.96631  1.0000
  C   C245      1.0  0.26946  0.62370  0.83954  1.0000
  C   C246      1.0  0.23031  0.59683  0.88204  1.0000
  C   C247      1.0  0.23968  0.62651  0.87611  1.0000
  H   H378      1.0  0.26453  0.59860  0.91066  1.0000
  H   H379      1.0  0.26677  0.61414  0.91657  1.0000
  H   H380      1.0  0.25235  0.61395  0.83127  1.0000
  H   H381      1.0  0.26186  0.60400  0.84499  1.0000
  H   H382      1.0  0.24507  0.58861  0.89617  1.0000
  H   H383      1.0  0.23548  0.59266  0.93591  1.0000
  H   H384      1.0  0.23706  0.61440  0.93527  1.0000
  H   H385      1.0  0.25187  0.62551  0.91430  1.0000
  H   H386      1.0  0.24801  0.59005  0.97454  1.0000
  H   H387      1.0  0.26100  0.60017  0.98146  1.0000
  H   H388      1.0  0.24737  0.60586  0.97861  1.0000
  H   H389      1.0  0.27736  0.62122  0.85067  1.0000
  H   H390      1.0  0.27297  0.62692  0.80630  1.0000
  H   H391      1.0  0.26700  0.63179  0.84990  1.0000
  H   H392      1.0  0.22414  0.58711  0.88949  1.0000
  H   H393      1.0  0.23406  0.60006  0.84900  1.0000
  H   H394      1.0  0.22417  0.60271  0.89300  1.0000
  H   H395      1.0  0.23090  0.62840  0.89227  1.0000
  H   H396      1.0  0.23725  0.62203  0.85328  1.0000
  H   H397      1.0  0.24628  0.63600  0.86113  1.0000
  S   S85       1.0  0.16121  0.54390  0.00606  1.0000
  H   H398      1.0  0.16309  0.63495  0.43278  1.0000
  H   H399      1.0  0.30997  0.70316  0.38970  1.0000
  H   H400      1.0  0.19709  0.66623  0.21934  1.0000
  H   H401      1.0  0.21549  0.55360  0.03106  1.0000
  H   H402      1.0  0.21481  0.52064  0.47186  1.0000
  S   S86       1.0  0.29044  0.70433  0.65593  1.0000
  H   H403      1.0  0.31758  0.69788  0.95006  1.0000
  H   H404      1.0  0.21375  0.60385  0.24142  1.0000
  H   H405      1.0  0.25772  0.72674  0.79200  1.0000
  Fe  Fe40      1.0  0.28779  0.70896  0.51001  1.0000
  Fe  Fe41      1.0  0.31719  0.74135  0.89504  1.0000
  C   C248      1.0  0.29292  0.72657  0.67897  1.0000
  H   H406      1.0  0.20336  0.60437  0.13778  1.0000
  S   S87       1.0  0.20210  0.63047  0.16117  1.0000
  Fe  Fe42      1.0  0.18707  0.63419  0.03186  1.0000
  C   C249      1.0  0.29765  0.66411  0.45988  1.0000
  H   H407      1.0  0.29319  0.74304  0.70138  1.0000
  C   C250      1.0  0.29994  0.69799  0.39775  1.0000
  H   H408      1.0  0.20887  0.68477  0.09846  1.0000
  H   H409      1.0  0.16868  0.50436  0.51514  1.0000
  H   H410      1.0  0.17448  0.51288  0.93945  1.0000
  C   C251      1.0  0.29898  0.70944  0.71851  1.0000
  H   H411      1.0  0.18290  0.59058  0.04504  1.0000
  H   H412      1.0  0.30352  0.67976  0.36077  1.0000
  H   H413      1.0  0.18691  0.60447  0.45233  1.0000
  H   H414      1.0  0.18410  0.58803  0.45526  1.0000
  S   S88       1.0  0.31666  0.68010  0.51984  1.0000
  H   H415      1.0  0.16604  0.57269  0.45978  1.0000
  N   N17       1.0  0.30948  0.65535  0.95865  1.0000
  H   H416      1.0  0.32159  0.67008  0.40520  1.0000
  H   H417      1.0  0.26831  0.67093  0.39187  1.0000
  C   C252      1.0  0.30258  0.64164  0.97931  1.0000
  H   H418      1.0  0.16402  0.59892  0.81056  1.0000
  N   N18       1.0  0.16307  0.58096  0.06672  1.0000
  H   H419      1.0  0.20731  0.53205  0.06625  1.0000
  H   H420      1.0  0.18268  0.56813  0.04186  1.0000
  H   H421      1.0  0.16199  0.55634  0.42643  1.0000
  C   C253      1.0  0.29500  0.73372  0.70594  1.0000
  C   C254      1.0  0.26670  0.72949  0.83742  1.0000
  S   S89       1.0  0.31590  0.71061  0.55728  1.0000
  H   H422      1.0  0.19635  0.52124  0.89930  1.0000
  H   H423      1.0  0.21554  0.66432  0.10840  1.0000
  H   H424      1.0  0.30456  0.68779  0.44868  1.0000
  C   C255      1.0  0.17637  0.58248  0.06989  1.0000
  Fe  Fe43      1.0  0.21130  0.62582  0.02480  1.0000
  H   H425      1.0  0.18419  0.56784  0.83898  1.0000
  H   H426      1.0  0.24076  0.65025  0.13903  1.0000
  H   H427      1.0  0.15743  0.56909  0.12788  1.0000
  H   H428      1.0  0.28940  0.73033  0.65415  1.0000
  C   C256      1.0  0.32098  0.65806  0.97344  1.0000
  C   C257      1.0  0.23551  0.68476  0.16598  1.0000
  C   C258      1.0  0.24051  0.66908  0.10609  1.0000
  H   H429      1.0  0.24894  0.67271  0.11517  1.0000
  H   H430      1.0  0.22590  0.66966  0.05930  1.0000
  C   C259      1.0  0.20899  0.58656  0.22169  1.0000
  N   N19       1.0  0.20119  0.59109  0.19485  1.0000
  H   H431      1.0  0.24522  0.56209  0.06690  1.0000
  H   H432      1.0  0.16582  0.61293  0.36141  1.0000
  C   C260      1.0  0.18184  0.57082  0.07017  1.0000
  C   C261      1.0  0.29305  0.66780  0.94206  1.0000
  H   H433      1.0  0.22261  0.59259  0.25260  1.0000
  C   C262      1.0  0.15722  0.59001  0.83042  1.0000
  H   H434      1.0  0.19961  0.50316  0.52785  1.0000
  Fe  Fe44      1.0  0.31388  0.72564  0.50706  1.0000
  H   H435      1.0  0.24279  0.70797  0.82939  1.0000
  H   H436      1.0  0.25473  0.69651  0.10154  1.0000
  S   S90       1.0  0.27890  0.70236  0.97075  1.0000
  H   H437      1.0  0.19077  0.56393  0.23766  1.0000
  S   S91       1.0  0.19757  0.63104  0.37703  1.0000
  N   N20       1.0  0.29543  0.67337  0.42569  1.0000
  C   C263      1.0  0.30144  0.66417  0.96931  1.0000
  C   C264      1.0  0.20285  0.63938  0.19650  1.0000
  H   H438      1.0  0.22393  0.55816  0.10445  1.0000
  H   H439      1.0  0.29877  0.64012  0.01210  1.0000
  H   H440      1.0  0.29867  0.67421  0.91227  1.0000
  H   H441      1.0  0.21924  0.67235  0.16068  1.0000
  H   H442      1.0  0.28695  0.65952  0.93790  1.0000
  C   C265      1.0  0.16602  0.61505  0.97053  1.0000
  H   H443      1.0  0.31595  0.63845  0.61832  1.0000
  N   N21       1.0  0.24873  0.60977  0.45126  1.0000
  C   C266      1.0  0.24101  0.59886  0.44162  1.0000
  C   C267      1.0  0.24314  0.60882  0.49475  1.0000
  C   C268      1.0  0.26185  0.60797  0.44571  1.0000
  C   C269      1.0  0.24866  0.62208  0.42314  1.0000
  C   C270      1.0  0.24619  0.59686  0.40016  1.0000
  C   C271      1.0  0.22896  0.60807  0.50686  1.0000
  C   C272      1.0  0.27135  0.61769  0.45582  1.0000
  C   C273      1.0  0.25040  0.63406  0.43825  1.0000
  H   H444      1.0  0.23976  0.58980  0.46456  1.0000
  H   H445      1.0  0.23137  0.59998  0.44290  1.0000
  H   H446      1.0  0.24790  0.61692  0.50365  1.0000
  H   H447      1.0  0.24454  0.60022  0.51444  1.0000
  H   H448      1.0  0.26158  0.59836  0.46398  1.0000
  H   H449      1.0  0.26620  0.60834  0.41410  1.0000
  H   H450      1.0  0.25593  0.62424  0.39408  1.0000
  H   H451      1.0  0.23964  0.62132  0.41506  1.0000
  H   H452      1.0  0.25420  0.59242  0.39963  1.0000
  H   H453      1.0  0.23878  0.59013  0.39392  1.0000
  H   H454      1.0  0.24888  0.60580  0.37565  1.0000
  H   H455      1.0  0.22629  0.61485  0.48446  1.0000
  H   H456      1.0  0.22334  0.59833  0.51091  1.0000
  H   H457      1.0  0.22635  0.61031  0.53599  1.0000
  H   H458      1.0  0.26811  0.61867  0.48641  1.0000
  H   H459      1.0  0.27417  0.62700  0.43293  1.0000
  H   H460      1.0  0.28001  0.61431  0.45460  1.0000
  H   H461      1.0  0.24204  0.63365  0.46222  1.0000
  H   H462      1.0  0.25136  0.64247  0.41315  1.0000
  H   H463      1.0  0.25878  0.63590  0.44914  1.0000
  H   H464      1.0  0.15900  0.56658  0.38591  1.0000
  C   C274      1.0  0.31229  0.64601  0.56274  1.0000
  H   H465      1.0  0.29540  0.60447  0.67319  1.0000
  C   C275      1.0  0.15938  0.62021  0.99833  1.0000
  H   H466      1.0  0.18389  0.52677  0.54938  1.0000
  H   H467      1.0  0.24774  0.68462  0.87996  1.0000
  H   H468      1.0  0.30141  0.60504  0.58694  1.0000
  H   H469      1.0  0.18256  0.51806  0.45320  1.0000
  C   C276      1.0  0.31869  0.67772  0.38645  1.0000
  S   S92       1.0  0.16273  0.53442  0.11519  1.0000
  H   H470      1.0  0.19094  0.60233  0.30586  1.0000
  H   H471      1.0  0.28075  0.69287  0.80103  1.0000
  H   H472      1.0  0.26342  0.55619  0.02959  1.0000
  C   C277      1.0  0.31727  0.61720  0.93115  1.0000
  H   H473      1.0  0.22918  0.54087  0.02224  1.0000
  H   H474      1.0  0.16495  0.60401  0.92808  1.0000
  H   H475      1.0  0.28387  0.67759  0.36010  1.0000
  H   H476      1.0  0.19691  0.60622  0.22024  1.0000
  Fe  Fe45      1.0  0.29462  0.71711  0.92037  1.0000
  H   H477      1.0  0.32028  0.73255  0.59965  1.0000
  H   H478      1.0  0.23017  0.68138  0.19827  1.0000
  H   H479      1.0  0.18480  0.60576  0.16726  1.0000
  H   H480      1.0  0.24179  0.55375  0.13134  1.0000
  C   C278      1.0  0.21837  0.59704  0.22951  1.0000
  H   H481      1.0  0.31919  0.53924  0.37997  1.0000
  Fe  Fe46      1.0  0.29578  0.70887  0.58754  1.0000
  H   H482      1.0  0.17642  0.56250  0.09587  1.0000
  C   C279      1.0  0.18554  0.56904  0.21936  1.0000
  C   C280      1.0  0.30474  0.67356  0.38776  1.0000
  H   H483      1.0  0.19794  0.52601  0.44820  1.0000
  H   H484      1.0  0.24923  0.70628  0.86963  1.0000
  H   H485      1.0  0.27531  0.66737  0.45188  1.0000
  H   H486      1.0  0.31550  0.55405  0.36553  1.0000
  H   H487      1.0  0.17616  0.57709  0.41017  1.0000
  H   H488      1.0  0.27408  0.72800  0.77808  1.0000
  C   C281      1.0  0.21128  0.52227  0.50148  1.0000
  H   H489      1.0  0.30918  0.63546  0.97632  1.0000
  H   H490      1.0  0.30573  0.65204  0.56891  1.0000
  S   S93       1.0  0.29379  0.72467  0.53885  1.0000
  C   C282      1.0  0.16447  0.58034  0.84480  1.0000
  H   H491      1.0  0.27397  0.70992  0.75472  1.0000
  H   H492      1.0  0.28694  0.53254  0.61173  1.0000
  Fe  Fe47      1.0  0.30569  0.73138  0.83229  1.0000
  H   H493      1.0  0.28684  0.67319  0.95593  1.0000
  H   H494      1.0  0.30089  0.62034  0.67759  1.0000
  C   C283      1.0  0.19847  0.51296  0.52531  1.0000
  S   S94       1.0  0.20563  0.66146  0.29067  1.0000
  H   H495      1.0  0.16690  0.57114  0.02091  1.0000
  S   S95       1.0  0.31487  0.58551  0.85719  1.0000
  C   C284      1.0  0.26534  0.72345  0.80303  1.0000
  Fe  Fe48      1.0  0.20828  0.65144  0.35037  1.0000
  H   H496      1.0  0.28820  0.62565  0.98033  1.0000
  H   H497      1.0  0.29993  0.63366  0.61927  1.0000
  C   C285      1.0  0.16539  0.55943  0.88072  1.0000
  C   C286      1.0  0.20923  0.60095  0.15694  1.0000
  H   H498      1.0  0.25990  0.68969  0.06106  1.0000
  H   H499      1.0  0.28760  0.61312  0.55142  1.0000
  H   H500      1.0  0.28339  0.64002  0.97366  1.0000
  S   S96       1.0  0.20492  0.63942  0.98174  1.0000
  H   H501      1.0  0.24092  0.69014  0.04028  1.0000
  C   C287      1.0  0.21388  0.68178  0.07309  1.0000
  C   C288      1.0  0.28855  0.66174  0.50177  1.0000
  C   C289      1.0  0.16633  0.57599  0.42762  1.0000
  H   H502      1.0  0.22615  0.60221  0.20217  1.0000
  C   C290      1.0  0.22674  0.68075  0.14101  1.0000
  C   C291      1.0  0.29147  0.63600  0.96493  1.0000
  H   H503      1.0  0.29407  0.63678  0.93243  1.0000
  C   C292      1.0  0.24473  0.68910  0.85376  1.0000
  H   H504      1.0  0.23445  0.52923  0.05143  1.0000
  H   H505      1.0  0.25434  0.54060  0.03609  1.0000
  H   H506      1.0  0.18681  0.51719  0.86815  1.0000
  H   H507      1.0  0.26844  0.73996  0.82583  1.0000
  C   C293      1.0  0.17976  0.50589  0.93180  1.0000
  H   H508      1.0  0.18746  0.59110  0.24839  1.0000
  H   H509      1.0  0.22689  0.56727  0.03160  1.0000
  C   C294      1.0  0.18130  0.59971  0.19860  1.0000
  H   H510      1.0  0.22975  0.65679  0.16681  1.0000
  H   H511      1.0  0.32154  0.62900  0.53103  1.0000
  H   H512      1.0  0.16352  0.52182  0.53145  1.0000
  H   H513      1.0  0.27906  0.65604  0.50461  1.0000
  H   H514      1.0  0.19177  0.53543  0.49912  1.0000
  S   S97       1.0  0.15815  0.51558  0.43760  1.0000
  S   S98       1.0  0.19417  0.64990  0.05863  1.0000
  H   H515      1.0  0.29523  0.66016  0.00053  1.0000
  H   H516      1.0  0.27689  0.68533  0.39632  1.0000
  H   H517      1.0  0.31476  0.54103  0.56588  1.0000
  C   C295      1.0  0.24024  0.69087  0.07129  1.0000
  H   H518      1.0  0.22162  0.68829  0.13628  1.0000
  H   H519      1.0  0.28118  0.65848  0.41981  1.0000
  S   S99       1.0  0.31304  0.55568  0.94635  1.0000
  S   S100      1.0  0.21195  0.63133  0.44692  1.0000
  H   H520      1.0  0.21547  0.59290  0.10721  1.0000
  C   C296      1.0  0.24347  0.55385  0.05440  1.0000
  C   C297      1.0  0.20431  0.65272  0.25513  1.0000
  H   H521      1.0  0.19675  0.51372  0.55661  1.0000
  H   H522      1.0  0.23552  0.69865  0.07414  1.0000
  H   H523      1.0  0.28372  0.53642  0.65930  1.0000
  C   C298      1.0  0.22791  0.53550  0.05364  1.0000
  C   C299      1.0  0.26428  0.70551  0.77452  1.0000
  H   H524      1.0  0.25697  0.71965  0.73845  1.0000
  C   C300      1.0  0.31392  0.65710  0.91413  1.0000
  H   H525      1.0  0.21932  0.69021  0.04776  1.0000
  C   C301      1.0  0.28232  0.66825  0.42355  1.0000
  S   S101      1.0  0.20356  0.65656  0.40949  1.0000
  H   H526      1.0  0.31605  0.64481  0.03394  1.0000
  C   C302      1.0  0.15829  0.56481  0.41830  1.0000
  H   H527      1.0  0.26316  0.69517  0.77908  1.0000
  Fe  Fe49      1.0  0.20176  0.63577  0.09583  1.0000
  C   C303      1.0  0.30002  0.61449  0.58955  1.0000
  C   C304      1.0  0.19468  0.59783  0.95573  1.0000
  C   C305      1.0  0.21861  0.55945  0.05000  1.0000
  H   H528      1.0  0.29184  0.61247  0.61607  1.0000
  H   H529      1.0  0.19578  0.65449  0.16785  1.0000
  H   H530      1.0  0.21227  0.54490  0.10648  1.0000
  H   H531      1.0  0.28793  0.67068  0.50982  1.0000
  C   C306      1.0  0.27547  0.69244  0.83180  1.0000
  H   H532      1.0  0.17605  0.61654  0.96535  1.0000
  H   H533      1.0  0.21089  0.56383  0.06018  1.0000
  H   H534      1.0  0.25789  0.70536  0.05049  1.0000
  Fe  Fe50      1.0  0.21264  0.65384  0.01140  1.0000
  Fe  Fe51      1.0  0.30851  0.69666  0.52672  1.0000
  H   H535      1.0  0.29734  0.65470  0.45378  1.0000
  C   C307      1.0  0.22128  0.55148  0.08696  1.0000
  H   H536      1.0  0.16937  0.58780  0.00202  1.0000
  H   H537      1.0  0.30029  0.69991  0.72398  1.0000
  H   H538      1.0  0.24095  0.53908  0.16463  1.0000
  C   C308      1.0  0.29483  0.71435  0.68526  1.0000
  Fe  Fe52      1.0  0.32062  0.71643  0.87664  1.0000
  C   C309      1.0  0.22211  0.67292  0.08580  1.0000
  C   C310      1.0  0.27253  0.70529  0.83348  1.0000
  Fe  Fe53      1.0  0.19416  0.63558  0.43600  1.0000
  H   H539      1.0  0.29181  0.62858  0.55789  1.0000
  N   N22       1.0  0.23260  0.67850  0.10165  1.0000
  C   C311      1.0  0.26432  0.69421  0.96678  1.0000
  S   S102      1.0  0.27310  0.70672  0.47444  1.0000
  C   C312      1.0  0.25391  0.69573  0.07182  1.0000
  C   C313      1.0  0.23383  0.65600  0.13637  1.0000
  C   C314      1.0  0.21929  0.59668  0.12963  1.0000
  C   C315      1.0  0.31858  0.65518  0.01928  1.0000
  C   C316      1.0  0.19199  0.59703  0.21712  1.0000
  H   H540      1.0  0.21136  0.63764  0.28362  1.0000
  S   S103      1.0  0.19323  0.61984  0.07320  1.0000
  H   H541      1.0  0.17594  0.60501  0.21603  1.0000
  H   H542      1.0  0.20983  0.62579  0.23305  1.0000
  C   C317      1.0  0.20704  0.63462  0.22975  1.0000
  H   H543      1.0  0.22292  0.52979  0.13449  1.0000
  C   C318      1.0  0.20785  0.64127  0.25870  1.0000
  H   H544      1.0  0.30571  0.52848  0.60823  1.0000
  H   H545      1.0  0.24730  0.68470  0.82929  1.0000
  H   H546      1.0  0.29214  0.65614  0.52457  1.0000
  H   H547      1.0  0.25693  0.70553  0.72321  1.0000
  H   H548      1.0  0.31608  0.60581  0.62805  1.0000
  H   H549      1.0  0.17853  0.57230  0.23906  1.0000
  H   H550      1.0  0.28175  0.71243  0.81972  1.0000
  H   H551      1.0  0.20119  0.61494  0.97114  1.0000
  C   C319      1.0  0.29914  0.72880  0.73919  1.0000
  H   H552      1.0  0.23854  0.53035  0.11287  1.0000
  C   C320      1.0  0.19995  0.65743  0.22215  1.0000
  C   C321      1.0  0.21453  0.52667  0.06871  1.0000
  H   H553      1.0  0.31007  0.55712  0.68906  1.0000
  H   H554      1.0  0.24528  0.70492  0.76718  1.0000
  H   H555      1.0  0.16941  0.56308  0.90297  1.0000
  H   H556      1.0  0.18022  0.55092  0.85686  1.0000
  H   H557      1.0  0.32195  0.63885  0.42354  1.0000
  H   H558      1.0  0.18923  0.58301  0.16217  1.0000
  H   H559      1.0  0.16960  0.59198  0.35489  1.0000
  H   H560      1.0  0.29457  0.70476  0.40667  1.0000
  H   H561      1.0  0.21428  0.58007  0.21022  1.0000
  H   H562      1.0  0.24352  0.68040  0.16418  1.0000
  H   H563      1.0  0.31865  0.64956  0.90800  1.0000
  N   N23       1.0  0.23118  0.54438  0.07815  1.0000
  H   H564      1.0  0.31160  0.60438  0.03150  1.0000
  H   H565      1.0  0.23431  0.68671  0.86254  1.0000
  C   C322      1.0  0.19453  0.57993  0.18382  1.0000
  N   N24       1.0  0.26286  0.70914  0.81332  1.0000
  C   C323      1.0  0.32117  0.55824  0.60932  1.0000
  H   H566      1.0  0.20141  0.57555  0.16776  1.0000
  C   C324      1.0  0.25524  0.70921  0.74998  1.0000
  C   C325      1.0  0.27787  0.67613  0.39071  1.0000
  H   H567      1.0  0.29755  0.69621  0.37078  1.0000
  C   C326      1.0  0.32088  0.61962  0.45497  1.0000
  H   H568      1.0  0.18739  0.50010  0.44224  1.0000
  H   H569      1.0  0.17148  0.60796  0.41791  1.0000
  C   C327      1.0  0.16127  0.61958  0.48408  1.0000
  C   C328      1.0  0.17644  0.55916  0.84670  1.0000
  H   H570      1.0  0.29760  0.55889  0.62175  1.0000
  S   S104      1.0  0.29754  0.73771  0.88649  1.0000
  N   N25       1.0  0.16296  0.58859  0.41897  1.0000
  H   H571      1.0  0.30731  0.67336  0.96944  1.0000
  C   C329      1.0  0.19079  0.51692  0.46446  1.0000
  H   H572      1.0  0.30717  0.66745  0.46321  1.0000
  C   C330      1.0  0.30968  0.63492  0.60088  1.0000
  C   C331      1.0  0.19517  0.50609  0.44936  1.0000
  H   H573      1.0  0.31108  0.64327  0.53564  1.0000
  H   H574      1.0  0.16743  0.59853  0.11692  1.0000
  C   C332      1.0  0.29922  0.55062  0.61073  1.0000
  H   H575      1.0  0.27918  0.54469  0.61865  1.0000
  H   H576      1.0  0.30067  0.53105  0.67450  1.0000
  H   H577      1.0  0.19673  0.50716  0.88413  1.0000
  H   H578      1.0  0.31613  0.53832  0.67288  1.0000
  H   H579      1.0  0.32289  0.60157  0.48600  1.0000
  H   H580      1.0  0.31847  0.73009  0.65152  1.0000
  C   C333      1.0  0.30283  0.54835  0.69313  1.0000
  H   H581      1.0  0.30074  0.54271  0.72483  1.0000
  H   H582      1.0  0.31136  0.65959  0.03293  1.0000
  H   H583      1.0  0.31815  0.56582  0.62182  1.0000
  N   N26       1.0  0.31039  0.54661  0.62100  1.0000
  H   H584      1.0  0.32176  0.65239  0.55607  1.0000
  H   H585      1.0  0.30866  0.74601  0.59318  1.0000
  H   H586      1.0  0.32007  0.56668  0.54824  1.0000
  C   C334      1.0  0.16311  0.57929  0.02582  1.0000
  C   C335      1.0  0.30374  0.61182  0.67176  1.0000
  H   H587      1.0  0.31818  0.58324  0.03565  1.0000
  H   H588      1.0  0.15922  0.53861  0.19330  1.0000
  H   H589      1.0  0.16701  0.60141  0.04685  1.0000
  H   H590      1.0  0.17312  0.49897  0.86580  1.0000
  H   H591      1.0  0.21832  0.52072  0.51815  1.0000
  H   H592      1.0  0.32188  0.71447  0.01321  1.0000
  C   C336      1.0  0.16106  0.59191  0.37768  1.0000
  H   H593      1.0  0.32170  0.54713  0.32725  1.0000
  H   H594      1.0  0.17867  0.49770  0.58955  1.0000
  H   H595      1.0  0.32200  0.71690  0.06165  1.0000
  C   C337      1.0  0.15830  0.59616  0.11023  1.0000
  H   H596      1.0  0.32003  0.67804  0.89829  1.0000
  C   C338      1.0  0.32232  0.54850  0.35669  1.0000
  C   C339      1.0  0.15795  0.60481  0.36448  1.0000
  C   C340      1.0  0.15683  0.62656  0.45498  1.0000
  C   C341      1.0  0.32313  0.66998  0.88961  1.0000
  C   C342      1.0  0.32267  0.62385  0.55985  1.0000
  H   H597      1.0  0.32271  0.62020  0.63747  1.0000
  H   H598      1.0  0.30707  0.76088  0.60117  1.0000
  H   H599      1.0  0.32118  0.76110  0.48980  1.0000
  C   C343      1.0  0.31404  0.75550  0.59233  1.0000
  H   H600      1.0  0.31572  0.75066  0.65206  1.0000
  H   H601      1.0  0.31896  0.76140  0.97911  1.0000
  H   H602      1.0  0.31960  0.76063  0.56115  1.0000
  C   C344      1.0  0.32229  0.75481  0.62157  1.0000
  H   H603      1.0  0.48946  0.00200  0.37454  1.0000
  H   H604      1.0  0.48550  0.07349  0.14578  1.0000
  H   H605      1.0  0.48414  0.02956  0.20922  1.0000
  S   S105      1.0  0.48772  0.01245  0.44328  1.0000
  H   H606      1.0  0.45424  0.99897  0.48269  1.0000
  H   H607      1.0  0.48828  0.05777  0.15622  1.0000
  H   H608      1.0  0.48443  0.06294  0.09465  1.0000
  H   H609      1.0  0.48072  0.44824  0.45403  1.0000
  H   H610      1.0  0.47737  0.47071  0.02250  1.0000
  Fe  Fe54      1.0  0.46659  0.49075  0.56969  1.0000
  S   S106      1.0  0.46503  0.48252  0.51803  1.0000
  S   S107      1.0  0.46463  0.47970  0.63306  1.0000
  H   H611      1.0  0.47419  0.47212  0.77598  1.0000
  H   H612      1.0  0.47239  0.45552  0.77799  1.0000
  H   H613      1.0  0.42996  0.45473  0.81061  1.0000
  C   C345      1.0  0.48338  0.45501  0.94268  1.0000
  C   C346      1.0  0.46523  0.45917  0.83654  1.0000
  H   H614      1.0  0.43359  0.45048  0.88398  1.0000
  C   C347      1.0  0.47436  0.46272  0.79419  1.0000
  H   H615      1.0  0.46109  0.49404  0.29294  1.0000
  S   S108      1.0  0.44461  0.49122  0.89396  1.0000
  H   H616      1.0  0.45888  0.43269  0.86292  1.0000
  H   H617      1.0  0.44468  0.45771  0.46069  1.0000
  Fe  Fe55      1.0  0.46327  0.48696  0.89601  1.0000
  S   S109      1.0  0.46573  0.46816  0.92929  1.0000
  H   H618      1.0  0.48173  0.46833  0.47374  1.0000
  H   H619      1.0  0.46334  0.49601  0.39800  1.0000
  Fe  Fe56      1.0  0.48399  0.49573  0.48536  1.0000
  H   H620      1.0  0.44191  0.46837  0.39504  1.0000
  H   H621      1.0  0.42893  0.46571  0.84143  1.0000
  C   C348      1.0  0.44552  0.44242  0.91434  1.0000
  C   C349      1.0  0.44765  0.47427  0.40912  1.0000
  H   H622      1.0  0.47567  0.44788  0.96498  1.0000
  H   H623      1.0  0.44565  0.46198  0.89029  1.0000
  H   H624      1.0  0.45333  0.46715  0.78043  1.0000
  N   N27       1.0  0.46148  0.47725  0.38828  1.0000
  C   C350      1.0  0.45997  0.48698  0.67100  1.0000
  H   H625      1.0  0.45536  0.44361  0.91553  1.0000
  C   C351      1.0  0.44454  0.49557  0.70835  1.0000
  H   H626      1.0  0.44881  0.42328  0.84299  1.0000
  C   C352      1.0  0.45900  0.49235  0.32594  1.0000
  C   C353      1.0  0.46658  0.48739  0.69986  1.0000
  H   H627      1.0  0.43364  0.46715  0.46705  1.0000
  C   C354      1.0  0.44379  0.45297  0.88147  1.0000
  H   H628      1.0  0.46135  0.44542  0.41416  1.0000
  H   H629      1.0  0.47503  0.48404  0.69689  1.0000
  H   H630      1.0  0.44008  0.44283  0.94396  1.0000
  H   H631      1.0  0.47699  0.46836  0.38452  1.0000
  H   H632      1.0  0.45802  0.47251  0.33538  1.0000
  C   C355      1.0  0.46682  0.46607  0.40023  1.0000
  H   H633      1.0  0.46658  0.46382  0.43248  1.0000
  H   H634      1.0  0.46316  0.43329  0.81040  1.0000
  C   C356      1.0  0.44370  0.46761  0.45445  1.0000
  C   C357      1.0  0.45534  0.43275  0.83642  1.0000
  H   H635      1.0  0.48859  0.48163  0.05841  1.0000
  H   H636      1.0  0.44169  0.43288  0.91140  1.0000
  H   H637      1.0  0.45148  0.47479  0.81942  1.0000
  C   C358      1.0  0.43434  0.46408  0.81376  1.0000
  H   H638      1.0  0.43813  0.43860  0.83669  1.0000
  H   H639      1.0  0.43356  0.47144  0.78832  1.0000
  C   C359      1.0  0.46226  0.49200  0.73265  1.0000
  C   C360      1.0  0.48638  0.47764  0.00467  1.0000
  H   H640      1.0  0.46798  0.48519  0.43242  1.0000
  C   C361      1.0  0.48211  0.49416  0.37673  1.0000
  N   N28       1.0  0.45150  0.45491  0.83914  1.0000
  C   C362      1.0  0.48110  0.46593  0.92013  1.0000
  H   H641      1.0  0.46613  0.45338  0.36116  1.0000
  H   H642      1.0  0.46842  0.45204  0.85611  1.0000
  H   H643      1.0  0.45090  0.45257  0.39231  1.0000
  H   H644      1.0  0.48408  0.46356  0.79677  1.0000
  H   H645      1.0  0.48404  0.45268  0.02669  1.0000
  C   C363      1.0  0.44838  0.44315  0.82530  1.0000
  H   H646      1.0  0.44431  0.48312  0.40572  1.0000
  H   H647      1.0  0.44903  0.47293  0.47069  1.0000
  H   H648      1.0  0.45053  0.44579  0.79196  1.0000
  H   H649      1.0  0.44873  0.49094  0.33768  1.0000
  C   C364      1.0  0.44907  0.49134  0.67489  1.0000
  H   H650      1.0  0.46694  0.46761  0.84811  1.0000
  C   C365      1.0  0.46820  0.48819  0.40031  1.0000
  C   C366      1.0  0.44831  0.46567  0.81240  1.0000
  C   C367      1.0  0.46330  0.48053  0.34369  1.0000
  C   C368      1.0  0.46092  0.45376  0.39112  1.0000
  C   C369      1.0  0.48921  0.45585  0.44185  1.0000
  H   H651      1.0  0.48551  0.46029  0.09037  1.0000
  H   H652      1.0  0.48793  0.48725  0.37931  1.0000
  H   H653      1.0  0.47328  0.48186  0.32734  1.0000
  S   S110      1.0  0.47246  0.49536  0.82997  1.0000
  H   H654      1.0  0.48423  0.48652  0.98988  1.0000
  H   H655      1.0  0.48134  0.44081  0.07265  1.0000
  H   H656      1.0  0.46744  0.49232  0.75457  1.0000
  H   H657      1.0  0.44385  0.49095  0.65297  1.0000
  H   H658      1.0  0.48946  0.48334  0.87313  1.0000
  C   C370      1.0  0.48853  0.44881  0.04956  1.0000
  C   C371      1.0  0.45102  0.49575  0.73758  1.0000
  C   C372      1.0  0.48975  0.46722  0.45297  1.0000
  H   H659      1.0  0.44946  0.62809  0.05091  1.0000
  Fe  Fe57      1.0  0.39782  0.54312  0.42780  1.0000
  S   S111      1.0  0.40959  0.54751  0.36458  1.0000
  H   H660      1.0  0.36366  0.53587  0.35889  1.0000
  Fe  Fe58      1.0  0.38196  0.56169  0.40487  1.0000
  S   S112      1.0  0.39297  0.56770  0.33991  1.0000
  S   S113      1.0  0.36770  0.57304  0.41938  1.0000
  Fe  Fe59      1.0  0.39153  0.54698  0.34776  1.0000
  S   S114      1.0  0.38777  0.53689  0.30158  1.0000
  Fe  Fe60      1.0  0.40992  0.56774  0.36252  1.0000
  S   S115      1.0  0.42858  0.58196  0.33502  1.0000
  S   S116      1.0  0.37940  0.54076  0.41174  1.0000
  S   S117      1.0  0.39923  0.56354  0.42675  1.0000
  Fe  Fe61      1.0  0.46371  0.61940  0.44318  1.0000
  S   S118      1.0  0.47269  0.62768  0.48497  1.0000
  S   S119      1.0  0.44289  0.61199  0.45612  1.0000
  H   H661      1.0  0.34032  0.72642  0.58919  1.0000
  H   H662      1.0  0.38320  0.71028  0.90080  1.0000
  S   S120      1.0  0.47401  0.63555  0.38882  1.0000
  Fe  Fe62      1.0  0.38072  0.56009  0.08798  1.0000
  S   S121      1.0  0.37056  0.54903  0.05360  1.0000
  S   S122      1.0  0.37296  0.56324  0.14827  1.0000
  Fe  Fe63      1.0  0.40388  0.57172  0.01854  1.0000
  S   S123      1.0  0.39602  0.56203  0.97771  1.0000
  S   S124      1.0  0.42329  0.58451  0.99681  1.0000
  Fe  Fe64      1.0  0.37804  0.56685  0.00259  1.0000
  S   S125      1.0  0.36842  0.57575  0.95802  1.0000
  Fe  Fe65      1.0  0.38927  0.54490  0.03069  1.0000
  S   S126      1.0  0.39093  0.52636  0.01697  1.0000
  S   S127      1.0  0.38672  0.57831  0.03850  1.0000
  S   S128      1.0  0.39863  0.55422  0.07008  1.0000
  Fe  Fe66      1.0  0.46510  0.61544  0.09615  1.0000
  S   S129      1.0  0.47375  0.62048  0.02995  1.0000
  S   S130      1.0  0.44562  0.60279  0.12749  1.0000
  Fe  Fe67      1.0  0.47817  0.64064  0.03200  1.0000
  H   H663      1.0  0.36667  0.53984  0.83372  1.0000
  S   S131      1.0  0.46815  0.63574  0.09699  1.0000
  H   H664      1.0  0.44448  0.64261  0.04050  1.0000
  C   C373      1.0  0.42217  0.53615  0.21627  1.0000
  Fe  Fe68      1.0  0.46289  0.73570  0.53554  1.0000
  S   S132      1.0  0.44342  0.73129  0.57725  1.0000
  Fe  Fe69      1.0  0.46453  0.70800  0.55953  1.0000
  S   S133      1.0  0.44543  0.70212  0.60309  1.0000
  S   S134      1.0  0.47368  0.69138  0.56156  1.0000
  Fe  Fe70      1.0  0.43950  0.71398  0.55468  1.0000
  S   S135      1.0  0.42067  0.70537  0.54581  1.0000
  Fe  Fe71      1.0  0.45105  0.71972  0.62232  1.0000
  S   S136      1.0  0.44477  0.71646  0.69055  1.0000
  S   S137      1.0  0.45834  0.71903  0.50985  1.0000
  S   S138      1.0  0.47074  0.72497  0.58184  1.0000
  S   S139      1.0  0.44627  0.52246  0.94338  1.0000
  H   H665      1.0  0.36940  0.63059  0.28067  1.0000
  C   C374      1.0  0.38604  0.65125  0.20471  1.0000
  H   H666      1.0  0.41248  0.74151  0.78483  1.0000
  S   S140      1.0  0.41476  0.68405  0.39752  1.0000
  C   C375      1.0  0.44380  0.64053  0.48422  1.0000
  H   H667      1.0  0.43688  0.54101  0.97610  1.0000
  C   C376      1.0  0.42887  0.53385  0.97660  1.0000
  H   H668      1.0  0.33671  0.56578  0.33762  1.0000
  S   S141      1.0  0.44626  0.73177  0.99169  1.0000
  Fe  Fe72      1.0  0.46165  0.73521  0.87936  1.0000
  S   S142      1.0  0.45024  0.71638  0.92164  1.0000
  H   H669      1.0  0.39546  0.65011  0.19561  1.0000
  Fe  Fe73      1.0  0.43709  0.72742  0.94502  1.0000
  S   S143      1.0  0.41596  0.72053  0.96104  1.0000
  Fe  Fe74      1.0  0.46020  0.72173  0.96568  1.0000
  S   S144      1.0  0.46409  0.70671  0.01293  1.0000
  H   H670      1.0  0.43697  0.65790  0.99193  1.0000
  H   H671      1.0  0.33980  0.72452  0.64162  1.0000
  H   H672      1.0  0.43598  0.57218  0.13787  1.0000
  H   H673      1.0  0.36528  0.51444  0.94099  1.0000
  S   S145      1.0  0.39214  0.66185  0.99298  1.0000
  H   H674      1.0  0.40812  0.60525  0.99207  1.0000
  C   C377      1.0  0.40950  0.70428  0.96830  1.0000
  C   C378      1.0  0.39647  0.69945  0.98257  1.0000
  C   C379      1.0  0.39106  0.68648  0.98935  1.0000
  C   C380      1.0  0.39866  0.67825  0.98204  1.0000
  C   C381      1.0  0.41167  0.68313  0.96677  1.0000
  C   C382      1.0  0.41707  0.69608  0.96035  1.0000
  H   H675      1.0  0.39053  0.70571  0.98878  1.0000
  H   H676      1.0  0.38099  0.68289  0.00001  1.0000
  H   H677      1.0  0.41759  0.67687  0.96050  1.0000
  H   H678      1.0  0.42708  0.69966  0.94917  1.0000
  H   H679      1.0  0.44975  0.62271  0.94133  1.0000
  H   H680      1.0  0.41860  0.68801  0.85313  1.0000
  H   H681      1.0  0.47177  0.52573  0.95740  1.0000
  H   H682      1.0  0.44990  0.64111  0.45451  1.0000
  H   H683      1.0  0.42104  0.65854  0.00681  1.0000
  C   C383      1.0  0.45192  0.72314  0.72345  1.0000
  C   C384      1.0  0.44682  0.71770  0.76503  1.0000
  C   C385      1.0  0.45216  0.72249  0.79259  1.0000
  C   C386      1.0  0.46285  0.73265  0.77881  1.0000
  C   C387      1.0  0.39517  0.71052  0.84243  1.0000
  C   C388      1.0  0.46259  0.73333  0.70963  1.0000
  H   H684      1.0  0.43876  0.70963  0.77594  1.0000
  H   H685      1.0  0.44825  0.71814  0.82446  1.0000
  H   H686      1.0  0.35948  0.70875  0.51775  1.0000
  C   C389      1.0  0.41940  0.69914  0.50486  1.0000
  C   C390      1.0  0.42899  0.70310  0.46894  1.0000
  C   C391      1.0  0.42734  0.69854  0.43616  1.0000
  C   C392      1.0  0.41613  0.68995  0.43897  1.0000
  C   C393      1.0  0.40667  0.68571  0.47521  1.0000
  C   C394      1.0  0.40826  0.69038  0.50789  1.0000
  H   H687      1.0  0.43760  0.70986  0.46616  1.0000
  H   H688      1.0  0.43479  0.70173  0.40839  1.0000
  H   H689      1.0  0.39819  0.67876  0.47812  1.0000
  H   H690      1.0  0.40085  0.68717  0.53572  1.0000
  C   C395      1.0  0.47015  0.66897  0.99240  1.0000
  C   C396      1.0  0.47104  0.67915  0.95970  1.0000
  C   C397      1.0  0.46868  0.69062  0.96567  1.0000
  C   C398      1.0  0.46545  0.69198  0.00444  1.0000
  C   C399      1.0  0.46399  0.68158  0.03726  1.0000
  C   C400      1.0  0.46623  0.67008  0.03127  1.0000
  C   C401      1.0  0.39714  0.71769  0.47875  1.0000
  H   H691      1.0  0.46982  0.69856  0.94019  1.0000
  H   H692      1.0  0.46134  0.68252  0.06738  1.0000
  H   H693      1.0  0.46521  0.66217  0.05664  1.0000
  C   C402      1.0  0.35309  0.56973  0.95503  1.0000
  C   C403      1.0  0.34880  0.57661  0.92508  1.0000
  H   H694      1.0  0.34398  0.64722  0.42312  1.0000
  H   H695      1.0  0.36636  0.54797  0.95462  1.0000
  H   H696      1.0  0.35966  0.55613  0.37031  1.0000
  C   C404      1.0  0.34504  0.55857  0.98219  1.0000
  C   C405      1.0  0.38674  0.54348  0.90784  1.0000
  H   H697      1.0  0.40425  0.61951  0.99853  1.0000
  H   H698      1.0  0.43994  0.54308  0.40902  1.0000
  H   H699      1.0  0.34813  0.55337  0.00596  1.0000
  C   C406      1.0  0.40628  0.52554  0.99471  1.0000
  C   C407      1.0  0.33511  0.67481  0.46679  1.0000
  H   H700      1.0  0.33563  0.63974  0.31360  1.0000
  H   H701      1.0  0.43745  0.63066  0.08685  1.0000
  C   C408      1.0  0.41671  0.53490  0.99287  1.0000
  H   H702      1.0  0.39285  0.66825  0.09672  1.0000
  H   H703      1.0  0.33271  0.67030  0.89300  1.0000
  H   H704      1.0  0.41542  0.54282  0.00472  1.0000
  C   C409      1.0  0.42913  0.58828  0.03546  1.0000
  C   C410      1.0  0.42110  0.58854  0.07126  1.0000
  C   C411      1.0  0.42613  0.59277  0.10013  1.0000
  C   C412      1.0  0.43918  0.59648  0.09340  1.0000
  C   C413      1.0  0.44708  0.59541  0.05878  1.0000
  C   C414      1.0  0.44210  0.59161  0.02947  1.0000
  H   H705      1.0  0.41104  0.58589  0.07609  1.0000
  H   H706      1.0  0.41993  0.59347  0.12701  1.0000
  H   H707      1.0  0.45706  0.59737  0.05462  1.0000
  H   H708      1.0  0.44832  0.59118  0.00216  1.0000
  S   S146      1.0  0.33278  0.74039  0.47659  1.0000
  H   H709      1.0  0.34220  0.63167  0.27964  1.0000
  S   S147      1.0  0.47628  0.51196  0.46055  1.0000
  C   C415      1.0  0.47624  0.68370  0.52303  1.0000
  C   C416      1.0  0.47596  0.67071  0.53323  1.0000
  C   C417      1.0  0.47886  0.66448  0.50331  1.0000
  H   H710      1.0  0.43912  0.65128  0.52487  1.0000
  C   C418      1.0  0.46601  0.69574  0.73287  1.0000
  H   H711      1.0  0.47354  0.66545  0.56448  1.0000
  C   C419      1.0  0.32533  0.53256  0.60330  1.0000
  H   H712      1.0  0.45226  0.62199  0.99001  1.0000
  H   H713      1.0  0.46206  0.63426  0.94682  1.0000
  H   H714      1.0  0.33002  0.62297  0.32511  1.0000
  C   C420      1.0  0.35203  0.57445  0.09383  1.0000
  H   H715      1.0  0.42458  0.65957  0.40970  1.0000
  H   H716      1.0  0.47852  0.65448  0.51157  1.0000
  C   C421      1.0  0.34380  0.57535  0.44417  1.0000
  C   C422      1.0  0.35138  0.56682  0.44080  1.0000
  C   C423      1.0  0.34578  0.55377  0.45362  1.0000
  H   H717      1.0  0.43157  0.64710  0.42920  1.0000
  C   C424      1.0  0.38477  0.51691  0.91190  1.0000
  H   H718      1.0  0.34814  0.58543  0.43496  1.0000
  H   H719      1.0  0.35156  0.54712  0.45160  1.0000
  S   S148      1.0  0.45706  0.50615  0.55150  1.0000
  C   C425      1.0  0.38443  0.54468  0.25788  1.0000
  C   C426      1.0  0.38227  0.53794  0.23019  1.0000
  C   C427      1.0  0.37942  0.54379  0.19526  1.0000
  C   C428      1.0  0.37839  0.55632  0.18838  1.0000
  C   C429      1.0  0.38078  0.56314  0.21567  1.0000
  C   C430      1.0  0.38398  0.55741  0.25000  1.0000
  H   H720      1.0  0.38271  0.52813  0.23588  1.0000
  H   H721      1.0  0.37753  0.53844  0.17442  1.0000
  H   H722      1.0  0.38011  0.57289  0.21023  1.0000
  H   H723      1.0  0.38596  0.56281  0.27045  1.0000
  C   C431      1.0  0.43241  0.59003  0.36942  1.0000
  C   C432      1.0  0.44498  0.59407  0.36863  1.0000
  C   C433      1.0  0.44825  0.60095  0.39483  1.0000
  C   C434      1.0  0.43894  0.60361  0.42253  1.0000
  C   C435      1.0  0.42635  0.59950  0.42349  1.0000
  C   C436      1.0  0.42309  0.59281  0.39675  1.0000
  H   H724      1.0  0.45220  0.59171  0.34815  1.0000
  H   H725      1.0  0.45799  0.60417  0.39351  1.0000
  H   H726      1.0  0.41910  0.60159  0.44472  1.0000
  H   H727      1.0  0.41338  0.58999  0.39695  1.0000
  H   H728      1.0  0.40961  0.60972  0.03610  1.0000
  C   C437      1.0  0.33286  0.55423  0.97881  1.0000
  H   H729      1.0  0.45848  0.70046  0.72773  1.0000
  Fe  Fe75      1.0  0.37175  0.65619  0.02825  1.0000
  H   H730      1.0  0.42697  0.64956  0.04254  1.0000
  C   C438      1.0  0.42737  0.51282  0.43392  1.0000
  C   C439      1.0  0.42847  0.51197  0.50143  1.0000
  H   H731      1.0  0.36798  0.52416  0.85653  1.0000
  C   C440      1.0  0.36182  0.70916  0.48539  1.0000
  C   C441      1.0  0.36257  0.62111  0.29110  1.0000
  H   H732      1.0  0.32668  0.54557  0.99979  1.0000
  H   H733      1.0  0.35658  0.61825  0.39248  1.0000
  C   C442      1.0  0.42671  0.56736  0.47753  1.0000
  H   H734      1.0  0.40392  0.73300  0.85171  1.0000
  C   C443      1.0  0.41980  0.57094  0.20448  1.0000
  C   C444      1.0  0.34655  0.57730  0.05790  1.0000
  C   C445      1.0  0.36574  0.60180  0.00519  1.0000
  H   H735      1.0  0.34584  0.58931  0.98611  1.0000
  N   N29       1.0  0.35444  0.61867  0.33316  1.0000
  H   H736      1.0  0.41621  0.54821  0.14337  1.0000
  H   H737      1.0  0.35303  0.57596  0.03166  1.0000
  C   C446      1.0  0.48232  0.54700  0.87369  1.0000
  H   H738      1.0  0.36944  0.59328  0.01121  1.0000
  H   H739      1.0  0.36376  0.60336  0.97560  1.0000
  C   C447      1.0  0.45166  0.66690  0.42454  1.0000
  N   N30       1.0  0.43066  0.63100  0.99647  1.0000
  C   C448      1.0  0.42458  0.62069  0.98050  1.0000
  C   C449      1.0  0.44350  0.63731  0.96770  1.0000
  C   C450      1.0  0.42277  0.64049  0.99652  1.0000
  C   C451      1.0  0.43116  0.62504  0.03834  1.0000
  C   C452      1.0  0.41085  0.61354  0.00357  1.0000
  C   C453      1.0  0.45228  0.62844  0.96146  1.0000
  C   C454      1.0  0.42745  0.65222  0.01024  1.0000
  C   C455      1.0  0.44124  0.63224  0.05407  1.0000
  H   H740      1.0  0.42481  0.62458  0.94859  1.0000
  H   H741      1.0  0.42984  0.61320  0.98061  1.0000
  H   H742      1.0  0.44865  0.64515  0.97670  1.0000
  H   H743      1.0  0.44267  0.64197  0.93762  1.0000
  H   H744      1.0  0.42161  0.64401  0.96602  1.0000
  H   H745      1.0  0.41314  0.63599  0.01676  1.0000
  H   H746      1.0  0.42188  0.62325  0.06041  1.0000
  H   H747      1.0  0.43308  0.61558  0.04000  1.0000
  H   H748      1.0  0.36948  0.73778  0.95743  1.0000
  C   C456      1.0  0.43136  0.68672  0.03583  1.0000
  H   H749      1.0  0.34041  0.63678  0.95325  1.0000
  H   H750      1.0  0.39412  0.52114  0.91489  1.0000
  C   C457      1.0  0.43814  0.67480  0.52316  1.0000
  H   H751      1.0  0.43386  0.63616  0.48707  1.0000
  C   C458      1.0  0.33865  0.68763  0.99538  1.0000
  C   C459      1.0  0.36262  0.72969  0.98139  1.0000
  H   H752      1.0  0.40409  0.72702  0.46452  1.0000
  H   H753      1.0  0.42461  0.60305  0.26854  1.0000
  H   H754      1.0  0.39742  0.56304  0.87913  1.0000
  H   H755      1.0  0.40281  0.68845  0.85507  1.0000
  S   S149      1.0  0.47717  0.60745  0.43234  1.0000
  H   H756      1.0  0.45156  0.52269  0.64468  1.0000
  H   H757      1.0  0.35672  0.68598  0.96451  1.0000
  H   H758      1.0  0.35885  0.58270  0.09546  1.0000
  H   H759      1.0  0.47082  0.56096  0.47805  1.0000
  H   H760      1.0  0.47185  0.57039  0.42826  1.0000
  H   H761      1.0  0.46153  0.66860  0.42636  1.0000
  C   C460      1.0  0.34590  0.62912  0.45415  1.0000
  C   C461      1.0  0.37600  0.69554  0.49274  1.0000
  H   H762      1.0  0.45599  0.67825  0.36262  1.0000
  C   C462      1.0  0.47944  0.69042  0.48254  1.0000
  H   H763      1.0  0.32489  0.73013  0.01986  1.0000
  H   H764      1.0  0.41680  0.73685  0.74010  1.0000
  H   H765      1.0  0.43586  0.49851  0.71187  1.0000
  H   H766      1.0  0.37779  0.70068  0.54823  1.0000
  H   H767      1.0  0.35445  0.69481  0.89660  1.0000
  C   C463      1.0  0.37759  0.70912  0.42642  1.0000
  H   H768      1.0  0.43304  0.69694  0.02050  1.0000
  C   C464      1.0  0.47705  0.54628  0.98555  1.0000
  H   H769      1.0  0.41587  0.64689  0.45215  1.0000
  C   C465      1.0  0.34065  0.72075  0.02067  1.0000
  C   C466      1.0  0.46836  0.56925  0.46082  1.0000
  H   H770      1.0  0.47353  0.57777  0.46704  1.0000
  H   H771      1.0  0.45567  0.53444  0.52259  1.0000
  H   H772      1.0  0.47640  0.74579  0.72623  1.0000
  H   H773      1.0  0.47760  0.68246  0.12669  1.0000
  H   H774      1.0  0.45052  0.55086  0.71958  1.0000
  C   C467      1.0  0.42560  0.61323  0.26743  1.0000
  H   H775      1.0  0.48928  0.63801  0.53927  1.0000
  C   C468      1.0  0.33881  0.59092  0.01048  1.0000
  H   H776      1.0  0.48601  0.50172  0.38951  1.0000
  C   C469      1.0  0.32766  0.69105  0.99120  1.0000
  C   C470      1.0  0.33414  0.72449  0.61993  1.0000
  S   S150      1.0  0.37683  0.67182  0.42560  1.0000
  C   C471      1.0  0.41425  0.52298  0.47377  1.0000
  C   C472      1.0  0.35848  0.55845  0.33949  1.0000
  C   C473      1.0  0.34462  0.60637  0.34346  1.0000
  H   H777      1.0  0.32886  0.55619  0.62256  1.0000
  H   H778      1.0  0.37847  0.62714  0.37732  1.0000
  H   H779      1.0  0.36332  0.54570  0.89272  1.0000
  H   H780      1.0  0.36043  0.70894  0.99978  1.0000
  H   H781      1.0  0.42579  0.61865  0.23723  1.0000
  H   H782      1.0  0.41700  0.61370  0.28880  1.0000
  H   H783      1.0  0.35175  0.53242  0.01546  1.0000
  C   C474      1.0  0.37048  0.65786  0.24839  1.0000
  H   H784      1.0  0.42164  0.50642  0.95061  1.0000
  N   N31       1.0  0.34621  0.55045  0.33858  1.0000
  C   C475      1.0  0.32649  0.62089  0.99642  1.0000
  C   C476      1.0  0.45091  0.67847  0.39289  1.0000
  C   C477      1.0  0.34880  0.74398  0.98750  1.0000
  H   H785      1.0  0.43595  0.61163  0.31029  1.0000
  H   H786      1.0  0.43608  0.62751  0.28782  1.0000
  H   H787      1.0  0.32821  0.59359  0.38921  1.0000
  S   S151      1.0  0.36220  0.63648  0.06884  1.0000
  C   C478      1.0  0.36568  0.53632  0.89700  1.0000
  H   H788      1.0  0.33528  0.63933  0.57261  1.0000
  C   C479      1.0  0.42476  0.69017  0.11711  1.0000
  C   C480      1.0  0.44875  0.54023  0.52025  1.0000
  H   H789      1.0  0.45155  0.56764  0.50648  1.0000
  H   H790      1.0  0.45877  0.54573  0.45674  1.0000
  H   H791      1.0  0.48702  0.56538  0.98450  1.0000
  H   H792      1.0  0.48332  0.49878  0.34471  1.0000
  C   C481      1.0  0.43713  0.61845  0.28090  1.0000
  C   C482      1.0  0.32507  0.55791  0.47207  1.0000
  C   C483      1.0  0.33329  0.74270  0.68818  1.0000
  H   H793      1.0  0.35895  0.57661  0.29717  1.0000
  H   H794      1.0  0.36788  0.66217  0.27227  1.0000
  C   C484      1.0  0.45417  0.56831  0.47392  1.0000
  H   H795      1.0  0.45292  0.57774  0.45934  1.0000
  H   H796      1.0  0.43924  0.53422  0.53765  1.0000
  H   H797      1.0  0.45134  0.54778  0.53460  1.0000
  H   H798      1.0  0.46398  0.50106  0.33143  1.0000
  H   H799      1.0  0.40007  0.50801  0.98063  1.0000
  H   H800      1.0  0.43441  0.55937  0.24877  1.0000
  C   C485      1.0  0.48242  0.67129  0.46283  1.0000
  Fe  Fe76      1.0  0.45240  0.50999  0.90440  1.0000
  H   H801      1.0  0.40839  0.54715  0.21113  1.0000
  H   H802      1.0  0.34110  0.56690  0.27535  1.0000
  H   H803      1.0  0.34014  0.74626  0.98148  1.0000
  H   H804      1.0  0.45567  0.67867  0.47818  1.0000
  C   C486      1.0  0.36050  0.57300  0.32665  1.0000
  H   H805      1.0  0.33818  0.56927  0.06475  1.0000
  H   H806      1.0  0.32773  0.65264  0.96282  1.0000
  H   H807      1.0  0.48419  0.67810  0.75622  1.0000
  H   H808      1.0  0.44652  0.60022  0.25668  1.0000
  H   H809      1.0  0.46188  0.63817  0.29050  1.0000
  H   H810      1.0  0.35795  0.74478  0.03604  1.0000
  H   H811      1.0  0.36261  0.69070  0.55250  1.0000
  H   H812      1.0  0.48053  0.51759  0.58862  1.0000
  H   H813      1.0  0.34007  0.74453  0.70580  1.0000
  C   C487      1.0  0.45843  0.53160  0.68674  1.0000
  H   H814      1.0  0.45684  0.56186  0.40306  1.0000
  H   H815      1.0  0.42875  0.72782  0.86665  1.0000
  H   H816      1.0  0.45776  0.60959  0.29555  1.0000
  H   H817      1.0  0.44317  0.60923  0.21489  1.0000
  H   H818      1.0  0.48803  0.67208  0.71440  1.0000
  H   H819      1.0  0.33206  0.63377  0.89593  1.0000
  H   H820      1.0  0.47153  0.55976  0.01694  1.0000
  H   H821      1.0  0.42482  0.56121  0.10070  1.0000
  C   C488      1.0  0.44936  0.54539  0.47569  1.0000
  H   H822      1.0  0.42596  0.56930  0.44640  1.0000
  Fe  Fe77      1.0  0.48729  0.61697  0.46935  1.0000
  N   N32       1.0  0.44994  0.62022  0.25294  1.0000
  C   C489      1.0  0.44987  0.60955  0.23330  1.0000
  H   H823      1.0  0.36357  0.73528  0.90093  1.0000
  C   C490      1.0  0.44538  0.65338  0.49407  1.0000
  N   N33       1.0  0.44578  0.55777  0.46461  1.0000
  S   S152      1.0  0.34046  0.68269  0.04341  1.0000
  C   C491      1.0  0.42054  0.55858  0.13364  1.0000
  H   H824      1.0  0.39054  0.70790  0.37334  1.0000
  S   S153      1.0  0.35590  0.65788  0.00027  1.0000
  C   C492      1.0  0.45920  0.61949  0.27752  1.0000
  C   C493      1.0  0.45916  0.62791  0.30654  1.0000
  H   H825      1.0  0.35468  0.51941  0.99730  1.0000
  C   C494      1.0  0.46808  0.73797  0.73719  1.0000
  H   H826      1.0  0.34365  0.72096  0.04831  1.0000
  Fe  Fe78      1.0  0.37263  0.67988  0.36781  1.0000
  S   S154      1.0  0.40258  0.53147  0.48061  1.0000
  H   H827      1.0  0.43889  0.68527  0.05029  1.0000
  H   H828      1.0  0.39881  0.68634  0.14670  1.0000
  C   C495      1.0  0.46259  0.60969  0.20604  1.0000
  H   H829      1.0  0.45007  0.62549  0.32980  1.0000
  H   H830      1.0  0.46924  0.60740  0.22357  1.0000
  H   H831      1.0  0.46688  0.61887  0.18275  1.0000
  H   H832      1.0  0.44408  0.62774  0.17982  1.0000
  H   H833      1.0  0.34093  0.74103  0.05234  1.0000
  H   H834      1.0  0.42776  0.73969  0.82424  1.0000
  H   H835      1.0  0.37644  0.71819  0.40903  1.0000
  C   C496      1.0  0.39175  0.67673  0.10726  1.0000
  H   H836      1.0  0.43217  0.68162  0.01231  1.0000
  C   C497      1.0  0.38742  0.55763  0.89048  1.0000
  C   C498      1.0  0.35844  0.72123  0.46459  1.0000
  H   H837      1.0  0.41093  0.56942  0.19547  1.0000
  H   H838      1.0  0.42556  0.58039  0.18470  1.0000
  H   H839      1.0  0.41700  0.56503  0.49737  1.0000
  H   H840      1.0  0.43202  0.57609  0.48207  1.0000
  H   H841      1.0  0.46895  0.62213  0.25790  1.0000
  H   H842      1.0  0.47824  0.52153  0.68800  1.0000
  H   H843      1.0  0.40637  0.70904  0.12310  1.0000
  H   H844      1.0  0.40642  0.71796  0.07476  1.0000
  H   H845      1.0  0.41605  0.52106  0.53365  1.0000
  C   C499      1.0  0.42542  0.65324  0.43737  1.0000
  C   C500      1.0  0.43245  0.55601  0.48837  1.0000
  H   H846      1.0  0.42615  0.54746  0.48580  1.0000
  C   C501      1.0  0.33607  0.69748  0.91893  1.0000
  H   H847      1.0  0.34449  0.57052  0.12251  1.0000
  C   C502      1.0  0.45420  0.63313  0.22288  1.0000
  H   H848      1.0  0.45381  0.64067  0.23856  1.0000
  H   H849      1.0  0.46626  0.62621  0.32280  1.0000
  H   H850      1.0  0.48555  0.71604  0.70057  1.0000
  H   H851      1.0  0.45559  0.68750  0.39746  1.0000
  H   H852      1.0  0.35493  0.58531  0.90410  1.0000
  H   H853      1.0  0.38263  0.67388  0.13072  1.0000
  H   H854      1.0  0.34290  0.55766  0.24157  1.0000
  C   C503      1.0  0.40493  0.70819  0.09408  1.0000
  C   C504      1.0  0.44673  0.63580  0.19207  1.0000
  H   H855      1.0  0.46112  0.60224  0.19030  1.0000
  H   H856      1.0  0.33386  0.54044  0.59510  1.0000
  C   C505      1.0  0.43243  0.50876  0.46572  1.0000
  H   H857      1.0  0.40976  0.56346  0.26905  1.0000
  C   C506      1.0  0.44718  0.56144  0.42017  1.0000
  H   H858      1.0  0.44601  0.57117  0.40999  1.0000
  H   H859      1.0  0.44300  0.53777  0.46897  1.0000
  H   H860      1.0  0.32343  0.61436  0.55590  1.0000
  H   H861      1.0  0.37200  0.60593  0.31061  1.0000
  H   H862      1.0  0.47829  0.53700  0.87490  1.0000
  S   S155      1.0  0.32525  0.73639  0.83818  1.0000
  C   C507      1.0  0.32852  0.56121  0.94905  1.0000
  H   H863      1.0  0.43170  0.55407  0.52096  1.0000
  N   N34       1.0  0.42637  0.56065  0.19853  1.0000
  H   H864      1.0  0.46432  0.63544  0.20636  1.0000
  H   H865      1.0  0.45280  0.64358  0.16558  1.0000
  H   H866      1.0  0.43972  0.55681  0.37255  1.0000
  H   H867      1.0  0.40376  0.67242  0.14481  1.0000
  C   C508      1.0  0.40243  0.68111  0.12545  1.0000
  N   N35       1.0  0.34314  0.58980  0.04802  1.0000
  H   H868      1.0  0.37382  0.53820  0.98270  1.0000
  C   C509      1.0  0.34855  0.62965  0.33496  1.0000
  Fe  Fe79      1.0  0.39641  0.67500  0.38683  1.0000
  S   S156      1.0  0.46093  0.51995  0.83899  1.0000
  C   C510      1.0  0.41623  0.57223  0.24754  1.0000
  H   H869      1.0  0.43827  0.63883  0.20487  1.0000
  H   H870      1.0  0.42376  0.70706  0.13847  1.0000
  H   H871      1.0  0.47839  0.55979  0.90876  1.0000
  H   H872      1.0  0.39499  0.70329  0.09886  1.0000
  H   H873      1.0  0.41360  0.69229  0.17408  1.0000
  C   C511      1.0  0.42266  0.69676  0.15079  1.0000
  H   H874      1.0  0.41124  0.57988  0.24795  1.0000
  H   H875      1.0  0.42454  0.57500  0.25830  1.0000
  H   H876      1.0  0.47910  0.55304  0.85077  1.0000
  H   H877      1.0  0.44113  0.67856  0.39277  1.0000
  H   H878      1.0  0.38290  0.56188  0.91323  1.0000
  C   C512      1.0  0.36205  0.61766  0.36312  1.0000
  H   H879      1.0  0.42910  0.53760  0.18730  1.0000
  H   H880      1.0  0.35689  0.62179  0.26929  1.0000
  C   C513      1.0  0.33940  0.63727  0.43684  1.0000
  C   C514      1.0  0.36765  0.53819  0.96233  1.0000
  H   H881      1.0  0.36511  0.73035  0.00948  1.0000
  H   H882      1.0  0.35752  0.56733  0.09029  1.0000
  C   C515      1.0  0.43816  0.55265  0.40518  1.0000
  C   C516      1.0  0.32691  0.63252  0.43727  1.0000
  C   C517      1.0  0.46960  0.69441  0.66346  1.0000
  H   H883      1.0  0.34411  0.71888  0.94732  1.0000
  C   C518      1.0  0.37287  0.69282  0.53874  1.0000
  H   H884      1.0  0.32813  0.71467  0.62782  1.0000
  C   C519      1.0  0.47540  0.52588  0.71258  1.0000
  H   H885      1.0  0.41312  0.56372  0.13883  1.0000
  H   H886      1.0  0.42612  0.68067  0.13051  1.0000
  C   C520      1.0  0.46263  0.68038  0.67281  1.0000
  C   C521      1.0  0.41726  0.54795  0.22003  1.0000
  H   H887      1.0  0.41418  0.54686  0.25276  1.0000
  C   C522      1.0  0.43085  0.56218  0.15412  1.0000
  H   H888      1.0  0.43399  0.69580  0.09589  1.0000
  N   N36       1.0  0.41472  0.68876  0.09554  1.0000
  C   C523      1.0  0.41399  0.70158  0.07228  1.0000
  H   H889      1.0  0.35002  0.73540  0.88318  1.0000
  C   C524      1.0  0.33980  0.61628  0.47249  1.0000
  H   H890      1.0  0.39399  0.70403  0.82312  1.0000
  H   H891      1.0  0.37921  0.69599  0.88542  1.0000
  C   C525      1.0  0.34544  0.72895  0.94800  1.0000
  C   C526      1.0  0.43748  0.56158  0.21547  1.0000
  S   S157      1.0  0.39245  0.68454  0.32992  1.0000
  S   S158      1.0  0.39267  0.65581  0.37516  1.0000
  H   H892      1.0  0.46272  0.70013  0.65840  1.0000
  H   H893      1.0  0.34907  0.59829  0.34381  1.0000
  Fe  Fe80      1.0  0.38705  0.66513  0.32138  1.0000
  H   H894      1.0  0.37336  0.61008  0.00284  1.0000
  C   C527      1.0  0.35425  0.73737  0.90720  1.0000
  C   C528      1.0  0.33342  0.69653  0.45142  1.0000
  H   H895      1.0  0.41420  0.71487  0.77653  1.0000
  S   S159      1.0  0.39386  0.66092  0.26185  1.0000
  H   H896      1.0  0.43791  0.55672  0.14716  1.0000
  H   H897      1.0  0.42816  0.55177  0.41957  1.0000
  C   C529      1.0  0.44735  0.57446  0.19912  1.0000
  C   C530      1.0  0.43074  0.52360  0.96127  1.0000
  C   C531      1.0  0.35422  0.60098  0.03925  1.0000
  H   H898      1.0  0.41452  0.52300  0.41318  1.0000
  H   H899      1.0  0.41421  0.52827  0.21808  1.0000
  H   H900      1.0  0.44253  0.55427  0.20937  1.0000
  H   H901      1.0  0.48329  0.67232  0.07424  1.0000
  H   H902      1.0  0.47269  0.54441  0.74885  1.0000
  H   H903      1.0  0.39124  0.68428  0.08196  1.0000
  C   C532      1.0  0.34819  0.68863  0.96130  1.0000
  H   H904      1.0  0.44357  0.68399  0.46061  1.0000
  C   C533      1.0  0.41843  0.52003  0.43772  1.0000
  H   H905      1.0  0.45172  0.57670  0.16641  1.0000
  C   C534      1.0  0.48612  0.69148  0.69825  1.0000
  H   H906      1.0  0.35585  0.63881  0.32314  1.0000
  H   H907      1.0  0.39243  0.54076  0.88306  1.0000
  H   H908      1.0  0.41104  0.70092  0.04492  1.0000
  H   H909      1.0  0.33538  0.53085  0.36575  1.0000
  C   C535      1.0  0.47901  0.54690  0.66357  1.0000
  C   C536      1.0  0.45978  0.55340  0.72537  1.0000
  H   H910      1.0  0.42344  0.70837  0.06080  1.0000
  H   H911      1.0  0.34026  0.60556  0.10542  1.0000
  H   H912      1.0  0.43009  0.69597  0.16639  1.0000
  C   C537      1.0  0.46529  0.54178  0.73435  1.0000
  H   H913      1.0  0.35207  0.52123  0.38052  1.0000
  H   H914      1.0  0.38321  0.50645  0.92273  1.0000
  N   N37       1.0  0.48375  0.54457  0.94620  1.0000
  H   H915      1.0  0.48110  0.54233  0.00984  1.0000
  H   H916      1.0  0.38160  0.62654  0.32642  1.0000
  C   C538      1.0  0.33555  0.63066  0.56259  1.0000
  C   C539      1.0  0.37453  0.62789  0.35120  1.0000
  H   H917      1.0  0.36419  0.60822  0.37032  1.0000
  H   H918      1.0  0.41148  0.68030  0.04826  1.0000
  H   H919      1.0  0.33954  0.60636  0.32002  1.0000
  H   H920      1.0  0.42644  0.53308  0.24088  1.0000
  H   H921      1.0  0.32648  0.57167  0.02312  1.0000
  H   H922      1.0  0.34883  0.72115  0.48115  1.0000
  C   C540      1.0  0.32660  0.72061  0.02892  1.0000
  H   H923      1.0  0.38526  0.72819  0.45301  1.0000
  H   H924      1.0  0.41787  0.67131  0.08269  1.0000
  H   H925      1.0  0.35137  0.61003  0.03140  1.0000
  Fe  Fe81      1.0  0.48655  0.63366  0.10785  1.0000
  H   H926      1.0  0.45499  0.57405  0.21393  1.0000
  H   H927      1.0  0.34243  0.63359  0.53253  1.0000
  H   H928      1.0  0.35768  0.60127  0.06585  1.0000
  H   H929      1.0  0.39758  0.71500  0.51030  1.0000
  N   N38       1.0  0.46987  0.53683  0.69910  1.0000
  H   H930      1.0  0.32616  0.66823  0.96099  1.0000
  H   H931      1.0  0.33199  0.66520  0.48611  1.0000
  C   C541      1.0  0.42030  0.51440  0.96209  1.0000
  C   C542      1.0  0.34682  0.54907  0.29704  1.0000
  H   H932      1.0  0.46621  0.56130  0.70012  1.0000
  H   H933      1.0  0.44341  0.58237  0.20565  1.0000
  S   S160      1.0  0.33774  0.64760  0.09330  1.0000
  H   H934      1.0  0.37588  0.68421  0.55110  1.0000
  H   H935      1.0  0.43483  0.74683  0.06816  1.0000
  C   C543      1.0  0.40810  0.51531  0.97912  1.0000
  C   C544      1.0  0.41828  0.68121  0.06637  1.0000
  H   H936      1.0  0.44659  0.63380  0.50657  1.0000
  S   S161      1.0  0.36136  0.69431  0.36271  1.0000
  C   C545      1.0  0.38270  0.65653  0.23659  1.0000
  C   C546      1.0  0.36479  0.64797  0.19827  1.0000
  H   H937      1.0  0.37883  0.61562  0.26080  1.0000
  H   H938      1.0  0.42626  0.67004  0.45687  1.0000
  N   N39       1.0  0.34938  0.73083  0.98441  1.0000
  H   H939      1.0  0.33917  0.60193  0.40944  1.0000
  Fe  Fe82      1.0  0.47651  0.51752  0.51691  1.0000
  C   C547      1.0  0.33070  0.57094  0.45959  1.0000
  N   N40       1.0  0.40879  0.71632  0.83743  1.0000
  C   C548      1.0  0.37713  0.64703  0.18547  1.0000
  H   H940      1.0  0.45818  0.55702  0.75223  1.0000
  H   H941      1.0  0.36324  0.71555  0.94635  1.0000
  Fe  Fe83      1.0  0.45735  0.49932  0.49655  1.0000
  S   S162      1.0  0.47442  0.65524  0.98345  1.0000
  H   H942      1.0  0.34609  0.70911  0.39615  1.0000
  H   H943      1.0  0.43997  0.68440  0.52802  1.0000
  H   H944      1.0  0.37560  0.71805  0.96941  1.0000
  H   H945      1.0  0.45793  0.53412  0.75854  1.0000
  H   H946      1.0  0.32421  0.58356  0.98479  1.0000
  H   H947      1.0  0.37965  0.64258  0.16183  1.0000
  S   S163      1.0  0.46995  0.50464  0.91283  1.0000
  H   H948      1.0  0.33914  0.54107  0.29753  1.0000
  C   C549      1.0  0.36543  0.71730  0.97374  1.0000
  H   H949      1.0  0.35575  0.52842  0.32798  1.0000
  C   C550      1.0  0.44553  0.67577  0.48009  1.0000
  C   C551      1.0  0.46071  0.52614  0.65029  1.0000
  C   C552      1.0  0.33656  0.57244  0.92229  1.0000
  C   C553      1.0  0.37070  0.53435  0.85549  1.0000
  C   C554      1.0  0.41102  0.73338  0.77188  1.0000
  H   H950      1.0  0.39050  0.71797  0.83149  1.0000
  H   H951      1.0  0.46699  0.54092  0.99482  1.0000
  S   S164      1.0  0.36573  0.66606  0.07491  1.0000
  C   C555      1.0  0.37436  0.52103  0.93822  1.0000
  C   C556      1.0  0.35463  0.52954  0.98759  1.0000
  H   H952      1.0  0.45050  0.65875  0.41170  1.0000
  C   C557      1.0  0.48189  0.53047  0.95142  1.0000
  C   C558      1.0  0.47740  0.56002  0.98712  1.0000
  H   H953      1.0  0.34949  0.67068  0.42424  1.0000
  H   H954      1.0  0.42562  0.72543  0.78820  1.0000
  C   C559      1.0  0.34885  0.69023  0.40602  1.0000
  H   H955      1.0  0.41520  0.69570  0.80858  1.0000
  H   H956      1.0  0.39206  0.54274  0.93082  1.0000
  H   H957      1.0  0.35546  0.54617  0.28485  1.0000
  Fe  Fe84      1.0  0.48419  0.64304  0.42972  1.0000
  H   H958      1.0  0.45513  0.65616  0.49634  1.0000
  H   H959      1.0  0.38538  0.69397  0.48266  1.0000
  N   N41       1.0  0.37373  0.53472  0.92534  1.0000
  H   H960      1.0  0.34735  0.53062  0.97165  1.0000
  H   H961      1.0  0.46660  0.53347  0.62251  1.0000
  H   H962      1.0  0.37581  0.51869  0.96868  1.0000
  C   C560      1.0  0.42911  0.66107  0.46571  1.0000
  Fe  Fe85      1.0  0.34916  0.66618  0.05043  1.0000
  C   C561      1.0  0.34499  0.67789  0.43171  1.0000
  H   H963      1.0  0.39301  0.69935  0.41794  1.0000
  S   S165      1.0  0.35292  0.64051  0.18024  1.0000
  Fe  Fe86      1.0  0.35503  0.64662  0.11356  1.0000
  H   H964      1.0  0.42296  0.65607  0.49656  1.0000
  S   S166      1.0  0.36678  0.66129  0.35480  1.0000
  H   H965      1.0  0.47984  0.70045  0.47424  1.0000
  C   C562      1.0  0.34696  0.56085  0.26446  1.0000
  H   H966      1.0  0.38096  0.53806  0.84286  1.0000
  H   H967      1.0  0.44133  0.66869  0.54592  1.0000
  Fe  Fe87      1.0  0.37266  0.65343  0.40926  1.0000
  C   C563      1.0  0.33245  0.59024  0.08150  1.0000
  S   S167      1.0  0.47038  0.73846  0.81231  1.0000
  C   C564      1.0  0.48265  0.68426  0.45263  1.0000
  C   C565      1.0  0.36154  0.65351  0.22950  1.0000
  H   H968      1.0  0.43031  0.51031  0.40631  1.0000
  Fe  Fe88      1.0  0.34567  0.63907  0.04502  1.0000
  H   H969      1.0  0.48544  0.68963  0.42139  1.0000
  H   H970      1.0  0.45349  0.53907  0.67853  1.0000
  H   H971      1.0  0.35450  0.57619  0.34968  1.0000
  N   N42       1.0  0.44272  0.66407  0.46566  1.0000
  H   H972      1.0  0.45148  0.52401  0.71221  1.0000
  S   S168      1.0  0.33165  0.62265  0.03870  1.0000
  C   C566      1.0  0.47754  0.54947  0.91463  1.0000
  H   H973      1.0  0.37035  0.57757  0.32452  1.0000
  Fe  Fe89      1.0  0.45449  0.50099  0.82865  1.0000
  H   H974      1.0  0.46722  0.54513  0.92529  1.0000
  C   C567      1.0  0.33233  0.62909  0.95797  1.0000
  H   H975      1.0  0.35204  0.65435  0.23933  1.0000
  H   H976      1.0  0.34261  0.53777  0.39802  1.0000
  H   H977      1.0  0.46102  0.68560  0.74574  1.0000
  S   S169      1.0  0.36164  0.63460  0.45330  1.0000
  C   C568      1.0  0.35456  0.53050  0.35742  1.0000
  H   H978      1.0  0.35632  0.52944  0.91027  1.0000
  H   H979      1.0  0.34110  0.71114  0.01765  1.0000
  C   C569      1.0  0.38394  0.71928  0.47682  1.0000
  H   H980      1.0  0.47231  0.67270  0.73297  1.0000
  H   H981      1.0  0.42787  0.67151  0.52838  1.0000
  C   C570      1.0  0.38708  0.70357  0.88586  1.0000
  S   S170      1.0  0.44775  0.74597  0.89987  1.0000
  C   C571      1.0  0.34303  0.69953  0.41580  1.0000
  C   C572      1.0  0.32559  0.73371  0.62196  1.0000
  C   C573      1.0  0.34693  0.69364  0.92299  1.0000
  C   C574      1.0  0.39060  0.70816  0.40432  1.0000
  C   C575      1.0  0.41521  0.70648  0.85375  1.0000
  H   H982      1.0  0.37326  0.63761  0.34256  1.0000
  H   H983      1.0  0.37057  0.70144  0.42243  1.0000
  H   H984      1.0  0.42556  0.71038  0.84422  1.0000
  C   C576      1.0  0.36970  0.61095  0.28376  1.0000
  H   H985      1.0  0.36960  0.68785  0.48617  1.0000
  H   H986      1.0  0.47396  0.67832  0.92953  1.0000
  H   H987      1.0  0.34480  0.60993  0.48590  1.0000
  H   H988      1.0  0.35668  0.56665  0.24908  1.0000
  H   H989      1.0  0.33337  0.57790  0.89925  1.0000
  H   H990      1.0  0.38489  0.51923  0.87999  1.0000
  H   H991      1.0  0.40062  0.71100  0.46328  1.0000
  H   H992      1.0  0.47343  0.56516  0.96464  1.0000
  H   H993      1.0  0.37964  0.72111  0.50567  1.0000
  H   H994      1.0  0.35509  0.70084  0.48300  1.0000
  H   H995      1.0  0.39222  0.69865  0.90469  1.0000
  S   S171      1.0  0.48273  0.61270  0.11230  1.0000
  C   C577      1.0  0.41931  0.51891  0.50557  1.0000
  H   H996      1.0  0.36417  0.60380  0.27291  1.0000
  H   H997      1.0  0.46823  0.51827  0.73716  1.0000
  H   H998      1.0  0.45790  0.67936  0.64905  1.0000
  H   H999      1.0  0.38332  0.55917  0.86481  1.0000
  Fe  Fe90      1.0  0.47786  0.51333  0.84683  1.0000
  C   C578      1.0  0.34405  0.53737  0.36635  1.0000
  C   C579      1.0  0.33265  0.54933  0.46926  1.0000
  H   H1000     1.0  0.39804  0.71665  0.40122  1.0000
  H   H1001     1.0  0.46475  0.51783  0.65539  1.0000
  N   N43       1.0  0.37519  0.70839  0.47034  1.0000
  H   H1002     1.0  0.41275  0.70392  0.88695  1.0000
  C   C580      1.0  0.41270  0.69402  0.84155  1.0000
  C   C581      1.0  0.32620  0.58174  0.01446  1.0000
  H   H1003     1.0  0.47923  0.69713  0.77034  1.0000
  H   H1004     1.0  0.46664  0.73764  0.67776  1.0000
  H   H1005     1.0  0.34405  0.62925  0.36648  1.0000
  C   C582      1.0  0.48512  0.67735  0.12685  1.0000
  C   C583      1.0  0.48216  0.67791  0.72723  1.0000
  S   S172      1.0  0.48306  0.53761  0.51842  1.0000
  H   H1006     1.0  0.36482  0.73008  0.46466  1.0000
  H   H1007     1.0  0.33539  0.55650  0.38570  1.0000
  S   S173      1.0  0.47308  0.73987  0.92155  1.0000
  C   C584      1.0  0.33478  0.60290  0.38446  1.0000
  H   H1008     1.0  0.32678  0.59650  0.06964  1.0000
  C   C585      1.0  0.32763  0.62732  0.92554  1.0000
  H   H1009     1.0  0.36653  0.55622  0.32059  1.0000
  H   H1010     1.0  0.32984  0.73225  0.69546  1.0000
  H   H1011     1.0  0.40523  0.72170  0.89280  1.0000
  H   H1012     1.0  0.33793  0.60072  0.99861  1.0000
  H   H1013     1.0  0.33925  0.62418  0.58278  1.0000
  C   C586      1.0  0.33553  0.55586  0.35486  1.0000
  C   C587      1.0  0.40955  0.72620  0.86010  1.0000
  H   H1014     1.0  0.32835  0.53923  0.47918  1.0000
  H   H1015     1.0  0.47654  0.69650  0.63394  1.0000
  H   H1016     1.0  0.46926  0.67423  0.67142  1.0000
  C   C588      1.0  0.42290  0.73394  0.85551  1.0000
  H   H1017     1.0  0.47433  0.71744  0.67307  1.0000
  S   S174      1.0  0.33494  0.70490  0.87151  1.0000
  C   C589      1.0  0.41533  0.72209  0.79336  1.0000
  H   H1018     1.0  0.40113  0.73059  0.77134  1.0000
  H   H1019     1.0  0.32497  0.57762  0.46200  1.0000
  H   H1020     1.0  0.45515  0.67696  0.70151  1.0000
  H   H1021     1.0  0.35810  0.72147  0.43358  1.0000
  H   H1022     1.0  0.48054  0.66756  0.14647  1.0000
  C   C590      1.0  0.48667  0.52317  0.98472  1.0000
  H   H1023     1.0  0.48563  0.53283  0.75337  1.0000
  H   H1024     1.0  0.33612  0.73094  0.94923  1.0000
  N   N44       1.0  0.47587  0.69814  0.69382  1.0000
  C   C591      1.0  0.32734  0.61153  0.47276  1.0000
  C   C592      1.0  0.48801  0.52554  0.58643  1.0000
  H   H1025     1.0  0.33409  0.57342  0.55908  1.0000
  H   H1026     1.0  0.47395  0.55293  0.64715  1.0000
  C   C593      1.0  0.48708  0.52871  0.72772  1.0000
  C   C594      1.0  0.33858  0.63090  0.31185  1.0000
  H   H1027     1.0  0.32463  0.67969  0.35528  1.0000
  S   S175      1.0  0.48714  0.66419  0.42401  1.0000
  H   H1028     1.0  0.32578  0.58070  0.09529  1.0000
  H   H1029     1.0  0.48681  0.52859  0.92343  1.0000
  H   H1030     1.0  0.48634  0.51343  0.98167  1.0000
  C   C595      1.0  0.48162  0.71231  0.67830  1.0000
  C   C596      1.0  0.32629  0.69574  0.95303  1.0000
  C   C597      1.0  0.33588  0.59518  0.11586  1.0000
  S   S176      1.0  0.48611  0.50264  0.53828  1.0000
  H   H1031     1.0  0.33218  0.55829  0.54942  1.0000
  H   H1032     1.0  0.32715  0.59375  0.13987  1.0000
  H   H1033     1.0  0.32385  0.67135  0.85724  1.0000
  H   H1034     1.0  0.34844  0.74524  0.63544  1.0000
  S   S177      1.0  0.44458  0.50037  0.78033  1.0000
  H   H1035     1.0  0.46323  0.69590  0.79527  1.0000
  H   H1036     1.0  0.34210  0.59020  0.12952  1.0000
  H   H1037     1.0  0.47244  0.71055  0.76095  1.0000
  H   H1038     1.0  0.48331  0.69725  0.05665  1.0000
  H   H1039     1.0  0.32905  0.60988  0.38636  1.0000
  H   H1040     1.0  0.42223  0.74069  0.87411  1.0000
  C   C598      1.0  0.47068  0.70011  0.76640  1.0000
  H   H1041     1.0  0.43217  0.50876  0.52631  1.0000
  C   C599      1.0  0.32710  0.56437  0.56391  1.0000
  S   S178      1.0  0.44315  0.49916  0.46055  1.0000
  H   H1042     1.0  0.48056  0.52204  0.01500  1.0000
  H   H1043     1.0  0.32739  0.65920  0.02590  1.0000
  H   H1044     1.0  0.32386  0.52657  0.63414  1.0000
  H   H1045     1.0  0.48351  0.54240  0.64137  1.0000
  Fe  Fe91      1.0  0.48828  0.62423  0.38016  1.0000
  C   C600      1.0  0.34944  0.74660  0.02780  1.0000
  C   C601      1.0  0.32928  0.68413  0.47663  1.0000
  H   H1046     1.0  0.32934  0.70389  0.45941  1.0000
  H   H1047     1.0  0.32724  0.52653  0.58283  1.0000
  H   H1048     1.0  0.48939  0.51957  0.73882  1.0000
  H   H1049     1.0  0.48937  0.56603  0.66014  1.0000
  H   H1050     1.0  0.48980  0.71472  0.61326  1.0000
  H   H1051     1.0  0.32545  0.74681  0.69915  1.0000
  H   H1052     1.0  0.48959  0.65329  0.22177  1.0000
  C   C602      1.0  0.48971  0.55603  0.67167  1.0000
  H   H1053     1.0  0.48972  0.55445  0.70333  1.0000
  H   H1054     1.0  0.33584  0.81679  0.92215  1.0000
  H   H1055     1.0  0.48131  0.94295  0.71424  1.0000
  C   C603      1.0  0.34770  0.79855  0.24678  1.0000
  Fe  Fe92      1.0  0.47977  0.84556  0.42745  1.0000
  H   H1056     1.0  0.34919  0.81401  0.36278  1.0000
  S   S179      1.0  0.45985  0.84665  0.43603  1.0000
  S   S180      1.0  0.48062  0.84097  0.02162  1.0000
  H   H1057     1.0  0.44844  0.96066  0.52534  1.0000
  H   H1058     1.0  0.41721  0.85661  0.10222  1.0000
  H   H1059     1.0  0.44309  0.80022  0.09166  1.0000
  H   H1060     1.0  0.37376  0.80326  0.26496  1.0000
  H   H1061     1.0  0.48143  0.89090  0.99421  1.0000
  Fe  Fe93      1.0  0.40363  0.81645  0.38971  1.0000
  S   S181      1.0  0.38947  0.81788  0.44277  1.0000
  S   S182      1.0  0.42041  0.80844  0.39064  1.0000
  Fe  Fe94      1.0  0.39248  0.83015  0.32870  1.0000
  S   S183      1.0  0.37757  0.83325  0.37677  1.0000
  S   S184      1.0  0.39787  0.83591  0.26032  1.0000
  Fe  Fe95      1.0  0.39282  0.83826  0.40702  1.0000
  S   S185      1.0  0.39381  0.85353  0.44148  1.0000
  Fe  Fe96      1.0  0.37536  0.81272  0.40940  1.0000
  S   S186      1.0  0.40780  0.83693  0.35592  1.0000
  S   S187      1.0  0.38939  0.80950  0.35941  1.0000
  Fe  Fe97      1.0  0.44142  0.91130  0.49861  1.0000
  S   S188      1.0  0.44307  0.90613  0.56203  1.0000
  S   S189      1.0  0.43591  0.89785  0.46101  1.0000
  Fe  Fe98      1.0  0.45827  0.93877  0.48032  1.0000
  S   S190      1.0  0.46121  0.93561  0.54116  1.0000
  Fe  Fe99      1.0  0.46328  0.91646  0.53607  1.0000
  S   S191      1.0  0.47843  0.90830  0.55455  1.0000
  Fe  Fe100     1.0  0.44078  0.92563  0.56420  1.0000
  S   S192      1.0  0.42980  0.92876  0.62171  1.0000
  S   S193      1.0  0.46215  0.92036  0.47289  1.0000
  S   S194      1.0  0.43735  0.93018  0.50258  1.0000
  H   H1062     1.0  0.44276  0.78204  0.54593  1.0000
  H   H1063     1.0  0.43848  0.99220  0.48472  1.0000
  C   C604      1.0  0.43834  0.75731  0.05609  1.0000
  H   H1064     1.0  0.34412  0.80589  0.94042  1.0000
  H   H1065     1.0  0.44564  0.88016  0.95741  1.0000
  H   H1066     1.0  0.33746  0.77025  0.38885  1.0000
  Fe  Fe101     1.0  0.46708  0.83959  0.07991  1.0000
  S   S195      1.0  0.44738  0.84192  0.09147  1.0000
  Fe  Fe102     1.0  0.45834  0.74960  0.94484  1.0000
  S   S196      1.0  0.47135  0.82241  0.11415  1.0000
  H   H1067     1.0  0.35656  0.75132  0.96389  1.0000
  H   H1068     1.0  0.47009  0.96637  0.49865  1.0000
  H   H1069     1.0  0.37128  0.83301  0.26652  1.0000
  H   H1070     1.0  0.38913  0.85540  0.04755  1.0000
  Fe  Fe103     1.0  0.39324  0.81241  0.02824  1.0000
  S   S197      1.0  0.38512  0.81637  0.97583  1.0000
  S   S198      1.0  0.41181  0.80735  0.02204  1.0000
  Fe  Fe104     1.0  0.38234  0.83374  0.99540  1.0000
  S   S199      1.0  0.38582  0.85328  0.95228  1.0000
  H   H1071     1.0  0.44471  0.77763  0.10685  1.0000
  S   S200      1.0  0.39177  0.83048  0.04418  1.0000
  S   S201      1.0  0.46927  0.95642  0.42938  1.0000
  Fe  Fe105     1.0  0.45284  0.93597  0.82116  1.0000
  S   S202      1.0  0.43783  0.93619  0.87520  1.0000
  S   S203      1.0  0.45663  0.94182  0.75296  1.0000
  Fe  Fe106     1.0  0.46939  0.92766  0.87305  1.0000
  S   S204      1.0  0.45591  0.92726  0.92971  1.0000
  H   H1072     1.0  0.36702  0.78635  0.28431  1.0000
  Fe  Fe107     1.0  0.44118  0.91744  0.90558  1.0000
  S   S205      1.0  0.42981  0.89857  0.95156  1.0000
  Fe  Fe108     1.0  0.45395  0.94593  0.89535  1.0000
  S   S206      1.0  0.45512  0.91686  0.85056  1.0000
  S   S207      1.0  0.46851  0.94686  0.83971  1.0000
  C   C605      1.0  0.37005  0.79516  0.29250  1.0000
  S   S208      1.0  0.46053  0.76986  0.95267  1.0000
  H   H1073     1.0  0.34980  0.75678  0.02517  1.0000
  H   H1074     1.0  0.47180  0.85317  0.95271  1.0000
  H   H1075     1.0  0.44182  0.76499  0.48963  1.0000
  H   H1076     1.0  0.47711  0.98845  0.50288  1.0000
  H   H1077     1.0  0.34375  0.75916  0.64034  1.0000
  C   C606      1.0  0.47098  0.86137  0.54877  1.0000
  H   H1078     1.0  0.43313  0.97020  0.47619  1.0000
  C   C607      1.0  0.33881  0.75700  0.46729  1.0000
  C   C608      1.0  0.39890  0.86566  0.94836  1.0000
  C   C609      1.0  0.40013  0.87811  0.92563  1.0000
  C   C610      1.0  0.41000  0.88825  0.92424  1.0000
  C   C611      1.0  0.41868  0.88602  0.94582  1.0000
  C   C612      1.0  0.41761  0.87351  0.96753  1.0000
  C   C613      1.0  0.40786  0.86340  0.96861  1.0000
  H   H1079     1.0  0.39329  0.87999  0.90966  1.0000
  H   H1080     1.0  0.41060  0.89784  0.90768  1.0000
  H   H1081     1.0  0.42420  0.87159  0.98435  1.0000
  H   H1082     1.0  0.40722  0.85387  0.98554  1.0000
  C   C614      1.0  0.48066  0.79613  0.01604  1.0000
  C   C615      1.0  0.47401  0.80065  0.98953  1.0000
  C   C616      1.0  0.46827  0.79257  0.96969  1.0000
  C   C617      1.0  0.46890  0.77980  0.97632  1.0000
  C   C618      1.0  0.47560  0.77529  0.00270  1.0000
  C   C619      1.0  0.48760  0.87640  0.20664  1.0000
  H   H1083     1.0  0.47339  0.81040  0.98401  1.0000
  H   H1084     1.0  0.46321  0.79624  0.94918  1.0000
  H   H1085     1.0  0.47624  0.76554  0.00818  1.0000
  H   H1086     1.0  0.34752  0.77798  0.29726  1.0000
  C   C620      1.0  0.43764  0.83201  0.07270  1.0000
  C   C621      1.0  0.42462  0.82922  0.08845  1.0000
  C   C622      1.0  0.41669  0.82151  0.07330  1.0000
  C   C623      1.0  0.42171  0.81693  0.04143  1.0000
  C   C624      1.0  0.43475  0.81972  0.02569  1.0000
  C   C625      1.0  0.44272  0.82712  0.04165  1.0000
  H   H1087     1.0  0.42066  0.83279  0.11295  1.0000
  H   H1088     1.0  0.40669  0.81889  0.08688  1.0000
  H   H1089     1.0  0.43870  0.81626  0.00091  1.0000
  H   H1090     1.0  0.45278  0.82919  0.02947  1.0000
  C   C626      1.0  0.43725  0.93093  0.65975  1.0000
  C   C627      1.0  0.43001  0.92947  0.69894  1.0000
  C   C628      1.0  0.43576  0.93209  0.72869  1.0000
  C   C629      1.0  0.44881  0.93659  0.71910  1.0000
  C   C630      1.0  0.45600  0.93806  0.67994  1.0000
  C   C631      1.0  0.45031  0.93498  0.65084  1.0000
  H   H1091     1.0  0.41990  0.92639  0.70628  1.0000
  H   H1092     1.0  0.43007  0.93108  0.75852  1.0000
  H   H1093     1.0  0.45878  0.79893  0.07652  1.0000
  H   H1094     1.0  0.46067  0.94768  0.09082  1.0000
  H   H1095     1.0  0.45763  0.78217  0.51614  1.0000
  C   C632      1.0  0.48286  0.78494  0.53552  1.0000
  H   H1096     1.0  0.35776  0.75619  0.44216  1.0000
  H   H1097     1.0  0.47229  0.92605  0.59943  1.0000
  S   S209      1.0  0.45328  0.96187  0.92693  1.0000
  C   C633      1.0  0.39394  0.82810  0.19525  1.0000
  C   C634      1.0  0.38686  0.82516  0.16910  1.0000
  H   H1098     1.0  0.45814  0.81726  0.51477  1.0000
  H   H1099     1.0  0.41837  0.76856  0.02070  1.0000
  H   H1100     1.0  0.46605  0.94176  0.67178  1.0000
  H   H1101     1.0  0.40381  0.82837  0.18771  1.0000
  H   H1102     1.0  0.39127  0.82309  0.14189  1.0000
  C   C635      1.0  0.40586  0.86548  0.44718  1.0000
  C   C636      1.0  0.40284  0.87152  0.47760  1.0000
  C   C637      1.0  0.41186  0.88128  0.48266  1.0000
  C   C638      1.0  0.42404  0.88539  0.45680  1.0000
  C   C639      1.0  0.42707  0.87934  0.42642  1.0000
  C   C640      1.0  0.41813  0.86940  0.42187  1.0000
  H   H1103     1.0  0.39341  0.86864  0.49736  1.0000
  H   H1104     1.0  0.40930  0.88577  0.50617  1.0000
  H   H1105     1.0  0.43641  0.88239  0.40608  1.0000
  H   H1106     1.0  0.42066  0.86493  0.39831  1.0000
  H   H1107     1.0  0.40938  0.95812  0.60400  1.0000
  H   H1108     1.0  0.36444  0.83543  0.93982  1.0000
  C   C641      1.0  0.47812  0.77257  0.53299  1.0000
  C   C642      1.0  0.47852  0.77038  0.49558  1.0000
  C   C643      1.0  0.46589  0.86308  0.51164  1.0000
  C   C644      1.0  0.32853  0.76712  0.96967  1.0000
  H   H1109     1.0  0.48080  0.97252  0.89361  1.0000
  H   H1110     1.0  0.47418  0.76474  0.55992  1.0000
  H   H1111     1.0  0.33983  0.79052  0.38726  1.0000
  H   H1112     1.0  0.38177  0.83642  0.85148  1.0000
  H   H1113     1.0  0.48833  0.93453  0.99902  1.0000
  C   C645      1.0  0.35703  0.77545  0.44112  1.0000
  N   N45       1.0  0.39203  0.86892  0.08155  1.0000
  H   H1114     1.0  0.47940  0.88727  0.46079  1.0000
  S   S210      1.0  0.48827  0.80593  0.04165  1.0000
  H   H1115     1.0  0.42097  0.79567  0.50948  1.0000
  H   H1116     1.0  0.44887  0.93988  0.05212  1.0000
  H   H1117     1.0  0.38457  0.84830  0.09963  1.0000
  H   H1118     1.0  0.47587  0.83521  0.27574  1.0000
  C   C646      1.0  0.34000  0.74894  0.64315  1.0000
  H   H1119     1.0  0.41832  0.78479  0.99975  1.0000
  C   C647      1.0  0.44936  0.83643  0.42056  1.0000
  C   C648      1.0  0.43669  0.83649  0.43097  1.0000
  C   C649      1.0  0.42785  0.82801  0.42127  1.0000
  C   C650      1.0  0.43163  0.81938  0.40122  1.0000
  C   C651      1.0  0.44436  0.81955  0.38958  1.0000
  C   C652      1.0  0.45327  0.82811  0.39917  1.0000
  H   H1120     1.0  0.43364  0.84303  0.44704  1.0000
  H   H1121     1.0  0.41806  0.82802  0.43004  1.0000
  H   H1122     1.0  0.44733  0.81308  0.37313  1.0000
  H   H1123     1.0  0.46308  0.82820  0.39038  1.0000
  N   N46       1.0  0.43534  0.97029  0.55194  1.0000
  H   H1124     1.0  0.43876  0.85022  0.17654  1.0000
  H   H1125     1.0  0.46674  0.85047  0.23269  1.0000
  N   N47       1.0  0.43860  0.83611  0.25526  1.0000
  H   H1126     1.0  0.42898  0.76025  0.11199  1.0000
  C   C653      1.0  0.45170  0.87102  0.47487  1.0000
  C   C654      1.0  0.44752  0.96403  0.60399  1.0000
  C   C655      1.0  0.36862  0.82794  0.21322  1.0000
  H   H1127     1.0  0.47883  0.87646  0.93144  1.0000
  C   C656      1.0  0.38299  0.86173  0.15918  1.0000
  H   H1128     1.0  0.47369  0.87038  0.55653  1.0000
  C   C657      1.0  0.44449  0.84866  0.30504  1.0000
  H   H1129     1.0  0.48585  0.95362  0.09741  1.0000
  H   H1130     1.0  0.41276  0.95276  0.55935  1.0000
  H   H1131     1.0  0.41139  0.89218  0.03590  1.0000
  H   H1132     1.0  0.40103  0.89946  0.01366  1.0000
  C   C658      1.0  0.46316  0.85484  0.94496  1.0000
  C   C659      1.0  0.34243  0.78009  0.32441  1.0000
  H   H1133     1.0  0.33636  0.82369  0.97758  1.0000
  H   H1134     1.0  0.39863  0.89652  0.06648  1.0000
  H   H1135     1.0  0.33316  0.80961  0.39054  1.0000
  H   H1136     1.0  0.40522  0.84799  0.08649  1.0000
  C   C660      1.0  0.44569  0.86494  0.54782  1.0000
  C   C661      1.0  0.35177  0.76230  0.44966  1.0000
  H   H1137     1.0  0.36975  0.86327  0.05278  1.0000
  H   H1138     1.0  0.41000  0.87554  0.09225  1.0000
  H   H1139     1.0  0.34177  0.76084  0.35654  1.0000
  C   C662      1.0  0.46205  0.88459  0.51096  1.0000
  S   S211      1.0  0.36498  0.82204  0.14526  1.0000
  C   C663      1.0  0.46001  0.98170  0.95895  1.0000
  H   H1140     1.0  0.44298  0.95988  0.46851  1.0000
  H   H1141     1.0  0.34984  0.80127  0.87565  1.0000
  H   H1142     1.0  0.45819  0.89273  0.95436  1.0000
  C   C664      1.0  0.47517  0.97174  0.43422  1.0000
  H   H1143     1.0  0.43143  0.97177  0.61314  1.0000
  H   H1144     1.0  0.46608  0.79612  0.45189  1.0000
  S   S212      1.0  0.47227  0.75518  0.49009  1.0000
  H   H1145     1.0  0.36728  0.81595  0.86507  1.0000
  S   S213      1.0  0.48643  0.84276  0.48235  1.0000
  C   C665      1.0  0.38462  0.85687  0.07675  1.0000
  H   H1146     1.0  0.45973  0.77484  0.44368  1.0000
  C   C666      1.0  0.48149  0.78343  0.02214  1.0000
  H   H1147     1.0  0.46555  0.78665  0.39709  1.0000
  C   C667      1.0  0.42988  0.84789  0.20066  1.0000
  C   C668      1.0  0.48374  0.78070  0.46094  1.0000
  H   H1148     1.0  0.47724  0.90100  0.47569  1.0000
  H   H1149     1.0  0.34436  0.81441  0.85118  1.0000
  H   H1150     1.0  0.44447  0.81041  0.47299  1.0000
  C   C669      1.0  0.45938  0.80938  0.50119  1.0000
  H   H1151     1.0  0.46644  0.85208  0.18156  1.0000
  H   H1152     1.0  0.46277  0.80263  0.52152  1.0000
  C   C670      1.0  0.39256  0.87960  0.04609  1.0000
  C   C671      1.0  0.43503  0.96123  0.49055  1.0000
  H   H1153     1.0  0.47949  0.85773  0.54262  1.0000
  H   H1154     1.0  0.34640  0.80593  0.22250  1.0000
  S   S214      1.0  0.33188  0.75769  0.90222  1.0000
  C   C672      1.0  0.42436  0.77810  0.00371  1.0000
  C   C673      1.0  0.41140  0.96099  0.57086  1.0000
  C   C674      1.0  0.44513  0.78249  0.07546  1.0000
  N   N48       1.0  0.46108  0.87396  0.97519  1.0000
  C   C675      1.0  0.45706  0.87491  0.01756  1.0000
  C   C676      1.0  0.47522  0.87711  0.96236  1.0000
  C   C677      1.0  0.45562  0.86043  0.97547  1.0000
  C   C678      1.0  0.45602  0.88317  0.94923  1.0000
  C   C679      1.0  0.44275  0.87140  0.03715  1.0000
  C   C680      1.0  0.34405  0.77056  0.36031  1.0000
  H   H1155     1.0  0.35270  0.76977  0.57649  1.0000
  H   H1156     1.0  0.46120  0.86874  0.03744  1.0000
  H   H1157     1.0  0.46057  0.88474  0.01915  1.0000
  C   C681      1.0  0.34456  0.81359  0.91382  1.0000
  H   H1158     1.0  0.47861  0.87000  0.98182  1.0000
  H   H1159     1.0  0.45449  0.85371  0.00504  1.0000
  H   H1160     1.0  0.44597  0.85921  0.97169  1.0000
  H   H1161     1.0  0.47893  0.97093  0.99612  1.0000
  Fe  Fe109     1.0  0.48599  0.82448  0.05720  1.0000
  H   H1162     1.0  0.48605  0.94375  0.61283  1.0000
  C   C682      1.0  0.48365  0.99677  0.43898  1.0000
  H   H1163     1.0  0.47202  0.92353  0.71190  1.0000
  S   S215      1.0  0.48817  0.83100  0.40525  1.0000
  H   H1164     1.0  0.43837  0.87870  0.02347  1.0000
  H   H1165     1.0  0.47229  0.90801  0.73714  1.0000
  C   C683      1.0  0.44229  0.76688  0.51842  1.0000
  H   H1166     1.0  0.33237  0.77751  0.32478  1.0000
  C   C684      1.0  0.43476  0.78324  0.02195  1.0000
  C   C685      1.0  0.44951  0.79688  0.07025  1.0000
  H   H1167     1.0  0.45295  0.78004  0.05608  1.0000
  H   H1168     1.0  0.43617  0.79371  0.01386  1.0000
  H   H1169     1.0  0.44362  0.78191  0.00448  1.0000
  H   H1170     1.0  0.45085  0.80255  0.03918  1.0000
  C   C686      1.0  0.47412  0.97412  0.47161  1.0000
  H   H1171     1.0  0.45603  0.93634  0.62100  1.0000
  C   C687      1.0  0.34520  0.78220  0.98206  1.0000
  H   H1172     1.0  0.42462  0.79334  0.07703  1.0000
  H   H1173     1.0  0.48221  0.88961  0.50699  1.0000
  H   H1174     1.0  0.42835  0.95591  0.60956  1.0000
  H   H1175     1.0  0.44842  0.76116  0.52999  1.0000
  H   H1176     1.0  0.42877  0.77720  0.97361  1.0000
  C   C688      1.0  0.43498  0.96546  0.59549  1.0000
  C   C689      1.0  0.34421  0.80212  0.28653  1.0000
  H   H1177     1.0  0.34137  0.78950  0.24781  1.0000
  C   C690      1.0  0.45759  0.78302  0.42482  1.0000
  C   C691      1.0  0.40722  0.85536  0.10223  1.0000
  C   C692      1.0  0.47597  0.89064  0.48704  1.0000
  H   H1178     1.0  0.45645  0.87555  0.41015  1.0000
  N   N49       1.0  0.43286  0.77800  0.06633  1.0000
  H   H1179     1.0  0.47155  0.91960  0.76446  1.0000
  H   H1180     1.0  0.43333  0.95074  0.55068  1.0000
  H   H1181     1.0  0.40158  0.85182  0.13384  1.0000
  C   C693      1.0  0.42313  0.78299  0.09041  1.0000
  C   C694      1.0  0.34451  0.83201  0.96227  1.0000
  H   H1182     1.0  0.37796  0.79378  0.30528  1.0000
  H   H1183     1.0  0.36099  0.79394  0.35411  1.0000
  S   S216      1.0  0.35533  0.80018  0.43872  1.0000
  H   H1184     1.0  0.42412  0.78194  0.12135  1.0000
  H   H1185     1.0  0.35674  0.85411  0.88185  1.0000
  H   H1186     1.0  0.44360  0.98936  0.55261  1.0000
  H   H1187     1.0  0.48329  0.93594  0.77924  1.0000
  H   H1188     1.0  0.48858  0.83405  0.57625  1.0000
  H   H1189     1.0  0.32804  0.79186  0.36230  1.0000
  H   H1190     1.0  0.45158  0.95483  0.01462  1.0000
  C   C695      1.0  0.48601  0.83779  0.26546  1.0000
  C   C696      1.0  0.33962  0.80963  0.36196  1.0000
  H   H1191     1.0  0.47573  0.97013  0.08488  1.0000
  H   H1192     1.0  0.37477  0.86277  0.18089  1.0000
  H   H1193     1.0  0.43796  0.86192  0.03595  1.0000
  C   C697      1.0  0.48117  0.99486  0.94646  1.0000
  C   C698      1.0  0.42945  0.76368  0.07968  1.0000
  H   H1194     1.0  0.48813  0.84217  0.32002  1.0000
  C   C699      1.0  0.48530  0.99428  0.40168  1.0000
  C   C700      1.0  0.45373  0.94543  0.02069  1.0000
  H   H1195     1.0  0.45580  0.89177  0.88892  1.0000
  C   C701      1.0  0.46799  0.94644  0.00959  1.0000
  C   C702      1.0  0.48867  0.95172  0.01993  1.0000
  C   C703      1.0  0.40922  0.77691  0.09561  1.0000
  C   C704      1.0  0.42211  0.78623  0.50648  1.0000
  H   H1196     1.0  0.38016  0.85199  0.15686  1.0000
  H   H1197     1.0  0.45673  0.80221  0.42248  1.0000
  H   H1198     1.0  0.40615  0.76702  0.11517  1.0000
  H   H1199     1.0  0.34657  0.83654  0.98569  1.0000
  C   C705      1.0  0.34322  0.80735  0.87991  1.0000
  C   C706      1.0  0.44760  0.78091  0.51652  1.0000
  H   H1200     1.0  0.45750  0.87611  0.89586  1.0000
  H   H1201     1.0  0.48058  0.93655  0.11543  1.0000
  H   H1202     1.0  0.47181  0.94617  0.13644  1.0000
  C   C707      1.0  0.48554  0.98787  0.92018  1.0000
  H   H1203     1.0  0.46602  0.93442  0.08089  1.0000
  C   C708      1.0  0.46831  0.99164  0.96586  1.0000
  C   C709      1.0  0.44710  0.98980  0.49034  1.0000
  H   H1204     1.0  0.46875  0.93658  0.01107  1.0000
  H   H1205     1.0  0.43178  0.83058  0.32009  1.0000
  H   H1206     1.0  0.48045  0.98353  0.04205  1.0000
  H   H1207     1.0  0.36274  0.80835  0.31948  1.0000
  H   H1208     1.0  0.45010  0.97944  0.97397  1.0000
  C   C710      1.0  0.45691  0.79371  0.44541  1.0000
  H   H1209     1.0  0.32636  0.77467  0.02096  1.0000
  H   H1210     1.0  0.47410  0.86672  0.48487  1.0000
  C   C711      1.0  0.48207  0.89037  0.96312  1.0000
  H   H1211     1.0  0.34191  0.83901  0.94032  1.0000
  H   H1212     1.0  0.44564  0.95924  0.63639  1.0000
  H   H1213     1.0  0.33367  0.80090  0.88858  1.0000
  H   H1214     1.0  0.47873  0.89811  0.94685  1.0000
  H   H1215     1.0  0.36294  0.78764  0.93707  1.0000
  N   N50       1.0  0.34643  0.79392  0.32287  1.0000
  C   C712      1.0  0.33117  0.76501  0.47669  1.0000
  C   C713      1.0  0.46927  0.94470  0.07856  1.0000
  H   H1216     1.0  0.44865  0.86529  0.57540  1.0000
  H   H1217     1.0  0.45100  0.98458  0.46946  1.0000
  H   H1218     1.0  0.48194  0.98009  0.37027  1.0000
  C   C714      1.0  0.47570  0.91821  0.73498  1.0000
  H   H1219     1.0  0.35684  0.81958  0.96587  1.0000
  H   H1220     1.0  0.36701  0.85411  0.83647  1.0000
  Fe  Fe110     1.0  0.37297  0.81905  0.08450  1.0000
  H   H1221     1.0  0.40696  0.77736  0.06682  1.0000
  H   H1222     1.0  0.35299  0.76903  0.52703  1.0000
  C   C715      1.0  0.44534  0.98264  0.53430  1.0000
  H   H1223     1.0  0.42851  0.86775  0.53126  1.0000
  S   S217      1.0  0.48671  0.92107  0.87754  1.0000
  C   C716      1.0  0.34672  0.76674  0.55785  1.0000
  H   H1224     1.0  0.48266  0.87013  0.23737  1.0000
  N   N51       1.0  0.35607  0.82438  0.90452  1.0000
  C   C717      1.0  0.35612  0.82784  0.94307  1.0000
  H   H1225     1.0  0.41995  0.75951  0.07800  1.0000
  C   C718      1.0  0.36303  0.84870  0.86859  1.0000
  H   H1226     1.0  0.45470  0.98108  0.53504  1.0000
  S   S218      1.0  0.37499  0.80051  0.07215  1.0000
  H   H1227     1.0  0.34558  0.83584  0.87507  1.0000
  C   C719      1.0  0.45081  0.83757  0.22489  1.0000
  C   C720      1.0  0.43413  0.81155  0.27601  1.0000
  C   C721      1.0  0.34903  0.77464  0.92218  1.0000
  H   H1228     1.0  0.47070  0.88916  0.89144  1.0000
  H   H1229     1.0  0.44218  0.85467  0.55037  1.0000
  H   H1230     1.0  0.42679  0.80302  0.27844  1.0000
  C   C722      1.0  0.34939  0.78346  0.45052  1.0000
  C   C723      1.0  0.35548  0.83523  0.87152  1.0000
  H   H1231     1.0  0.36748  0.81122  0.91603  1.0000
  S   S219      1.0  0.48266  0.83326  0.19585  1.0000
  H   H1232     1.0  0.44909  0.77996  0.41533  1.0000
  C   C724      1.0  0.33645  0.77814  0.46853  1.0000
  N   N52       1.0  0.47521  0.95210  0.03518  1.0000
  H   H1233     1.0  0.42037  0.82254  0.27854  1.0000
  H   H1234     1.0  0.44294  0.81101  0.25598  1.0000
  C   C725      1.0  0.48100  0.98183  0.39935  1.0000
  C   C726      1.0  0.40144  0.89258  0.04093  1.0000
  H   H1235     1.0  0.35858  0.83340  0.84182  1.0000
  C   C727      1.0  0.47461  0.96577  0.02830  1.0000
  C   C728      1.0  0.33812  0.79579  0.35955  1.0000
  C   C729      1.0  0.38834  0.83078  0.23082  1.0000
  H   H1236     1.0  0.35758  0.79812  0.23765  1.0000
  C   C730      1.0  0.33278  0.77466  0.99346  1.0000
  H   H1237     1.0  0.48257  0.78650  0.56457  1.0000
  C   C731      1.0  0.36744  0.81948  0.89177  1.0000
  S   S220      1.0  0.36313  0.82360  0.03680  1.0000
  N   N53       1.0  0.44624  0.79099  0.48270  1.0000
  H   H1238     1.0  0.33521  0.74999  0.55086  1.0000
  H   H1239     1.0  0.47199  0.95188  0.97731  1.0000
  H   H1240     1.0  0.35892  0.82838  0.21943  1.0000
  H   H1241     1.0  0.36544  0.85724  0.10724  1.0000
  Fe  Fe111     1.0  0.36652  0.80579  0.02073  1.0000
  H   H1242     1.0  0.38778  0.82393  0.87427  1.0000
  H   H1243     1.0  0.46575  0.86077  0.91368  1.0000
  H   H1244     1.0  0.48424  0.77911  0.43181  1.0000
  C   C732      1.0  0.37417  0.82512  0.17791  1.0000
  H   H1245     1.0  0.36698  0.77940  0.42713  1.0000
  H   H1246     1.0  0.42802  0.86713  0.58198  1.0000
  C   C733      1.0  0.37560  0.83059  0.23986  1.0000
  H   H1247     1.0  0.48727  0.94056  0.41050  1.0000
  H   H1248     1.0  0.44415  0.87601  0.47513  1.0000
  C   C734      1.0  0.34044  0.75236  0.57234  1.0000
  H   H1249     1.0  0.38190  0.83355  0.90365  1.0000
  H   H1250     1.0  0.45640  0.89099  0.49966  1.0000
  H   H1251     1.0  0.44721  0.86113  0.47595  1.0000
  C   C735      1.0  0.46111  0.87742  0.43335  1.0000
  H   H1252     1.0  0.43694  0.88120  0.54333  1.0000
  H   H1253     1.0  0.46382  0.88788  0.42780  1.0000
  C   C736      1.0  0.43423  0.87071  0.55081  1.0000
  H   H1254     1.0  0.43293  0.76293  0.54063  1.0000
  H   H1255     1.0  0.46950  0.87360  0.42870  1.0000
  H   H1256     1.0  0.46477  0.96657  0.03521  1.0000
  N   N54       1.0  0.45661  0.87117  0.51080  1.0000
  H   H1257     1.0  0.44681  0.84691  0.33420  1.0000
  C   C737      1.0  0.47820  0.98661  0.47392  1.0000
  H   H1258     1.0  0.45194  0.95808  0.58697  1.0000
  H   H1259     1.0  0.43722  0.85578  0.24253  1.0000
  C   C738      1.0  0.44058  0.83583  0.29604  1.0000
  H   H1260     1.0  0.42215  0.97673  0.52066  1.0000
  C   C739      1.0  0.35987  0.79792  0.32386  1.0000
  S   S221      1.0  0.48047  0.85317  0.09762  1.0000
  C   C740      1.0  0.42268  0.97270  0.55136  1.0000
  H   H1261     1.0  0.46670  0.81373  0.47222  1.0000
  C   C741      1.0  0.37077  0.85623  0.07845  1.0000
  H   H1262     1.0  0.42284  0.84448  0.26483  1.0000
  H   H1263     1.0  0.45418  0.97334  0.59828  1.0000
  C   C742      1.0  0.38033  0.82905  0.87986  1.0000
  H   H1264     1.0  0.44770  0.83052  0.30168  1.0000
  H   H1265     1.0  0.36630  0.84672  0.07640  1.0000
  H   H1266     1.0  0.46147  0.88503  0.54225  1.0000
  C   C743      1.0  0.43395  0.78761  0.47281  1.0000
  H   H1267     1.0  0.43661  0.85332  0.30867  1.0000
  H   H1268     1.0  0.45287  0.85522  0.28234  1.0000
  H   H1269     1.0  0.33408  0.80206  0.29197  1.0000
  H   H1270     1.0  0.39106  0.86260  0.17225  1.0000
  H   H1271     1.0  0.43376  0.79492  0.44611  1.0000
  C   C744      1.0  0.43209  0.84629  0.24255  1.0000
  H   H1272     1.0  0.38314  0.88137  0.04744  1.0000
  C   C745      1.0  0.47724  0.97779  0.91371  1.0000
  H   H1273     1.0  0.48669  0.77983  0.04228  1.0000
  H   H1274     1.0  0.43516  0.81081  0.30661  1.0000
  H   H1275     1.0  0.42686  0.95331  0.49433  1.0000
  C   C746      1.0  0.43833  0.96046  0.53085  1.0000
  C   C747      1.0  0.33659  0.76712  0.93358  1.0000
  H   H1276     1.0  0.46401  0.85427  0.57513  1.0000
  C   C748      1.0  0.48832  0.79307  0.46350  1.0000
  H   H1277     1.0  0.39198  0.88055  0.12264  1.0000
  C   C749      1.0  0.46054  0.85047  0.21252  1.0000
  H   H1278     1.0  0.44952  0.94037  0.00140  1.0000
  H   H1279     1.0  0.45571  0.83040  0.23637  1.0000
  H   H1280     1.0  0.41370  0.78176  0.49852  1.0000
  H   H1281     1.0  0.43960  0.80155  0.52399  1.0000
  H   H1282     1.0  0.33709  0.81569  0.33735  1.0000
  H   H1283     1.0  0.39547  0.87704  0.01754  1.0000
  C   C750      1.0  0.35334  0.78203  0.94630  1.0000
  C   C751      1.0  0.46436  0.97464  0.93299  1.0000
  H   H1284     1.0  0.44928  0.83528  0.19715  1.0000
  H   H1285     1.0  0.45739  0.84542  0.94633  1.0000
  H   H1286     1.0  0.45645  0.85872  0.21115  1.0000
  H   H1287     1.0  0.42538  0.85586  0.19444  1.0000
  H   H1288     1.0  0.41103  0.87013  0.04877  1.0000
  H   H1289     1.0  0.42864  0.82285  0.22945  1.0000
  C   C752      1.0  0.42993  0.82353  0.25902  1.0000
  H   H1290     1.0  0.42332  0.83941  0.19901  1.0000
  C   C753      1.0  0.44679  0.80314  0.49515  1.0000
  S   S222      1.0  0.34977  0.79194  0.01282  1.0000
  H   H1291     1.0  0.40342  0.78238  0.11079  1.0000
  H   H1292     1.0  0.37102  0.84911  0.88176  1.0000
  H   H1293     1.0  0.37714  0.87493  0.11718  1.0000
  C   C754      1.0  0.38593  0.87201  0.11914  1.0000
  H   H1294     1.0  0.42093  0.98008  0.56694  1.0000
  H   H1295     1.0  0.32667  0.76473  0.62062  1.0000
  H   H1296     1.0  0.46157  0.85340  0.51028  1.0000
  H   H1297     1.0  0.48655  0.93070  0.47847  1.0000
  H   H1298     1.0  0.44104  0.87106  0.06936  1.0000
  C   C755      1.0  0.40532  0.86812  0.08027  1.0000
  H   H1299     1.0  0.35382  0.77255  0.36248  1.0000
  Fe  Fe112     1.0  0.48582  0.83609  0.12864  1.0000
  C   C756      1.0  0.47755  0.94546  0.10770  1.0000
  C   C757      1.0  0.46045  0.88499  0.90386  1.0000
  H   H1300     1.0  0.43264  0.77869  0.46384  1.0000
  C   C758      1.0  0.48229  0.92715  0.59182  1.0000
  H   H1301     1.0  0.34928  0.81219  0.28076  1.0000
  H   H1302     1.0  0.42217  0.78020  0.53567  1.0000
  H   H1303     1.0  0.44801  0.75978  0.05899  1.0000
  C   C759      1.0  0.48088  0.97350  0.05257  1.0000
  H   H1304     1.0  0.33045  0.78427  0.47568  1.0000
  H   H1305     1.0  0.35541  0.77469  0.89452  1.0000
  H   H1306     1.0  0.40288  0.96341  0.56402  1.0000
  H   H1307     1.0  0.33981  0.77255  0.55610  1.0000
  H   H1308     1.0  0.43862  0.75964  0.02393  1.0000
  H   H1309     1.0  0.48529  0.94572  0.88822  1.0000
  C   C760      1.0  0.48745  0.91872  0.57368  1.0000
  H   H1310     1.0  0.48591  0.93151  0.05260  1.0000
  C   C761      1.0  0.48788  0.79528  0.50083  1.0000
  H   H1311     1.0  0.48060  0.87776  0.18963  1.0000
  H   H1312     1.0  0.35533  0.74762  0.90478  1.0000
  H   H1313     1.0  0.46474  0.99686  0.98612  1.0000
  N   N55       1.0  0.33208  0.74745  0.61473  1.0000
  H   H1314     1.0  0.34822  0.74756  0.56836  1.0000
  Fe  Fe113     1.0  0.58334  0.13146  0.53459  1.0000
  S   S223      1.0  0.56352  0.12073  0.56523  1.0000
  S   S224      1.0  0.59880  0.12371  0.55275  1.0000
  Fe  Fe114     1.0  0.57615  0.15197  0.47866  1.0000
  S   S225      1.0  0.55539  0.14247  0.50518  1.0000
  S   S226      1.0  0.58730  0.17008  0.42939  1.0000
  Fe  Fe115     1.0  0.56012  0.13984  0.56472  1.0000
  S   S227      1.0  0.55028  0.14387  0.62188  1.0000
  Fe  Fe116     1.0  0.56062  0.12380  0.50325  1.0000
  S   S228      1.0  0.55273  0.10475  0.49087  1.0000
  S   S229      1.0  0.58025  0.15041  0.53778  1.0000
  S   S230      1.0  0.58099  0.13364  0.47288  1.0000
  Fe  Fe117     1.0  0.52046  0.05546  0.37757  1.0000
  S   S231      1.0  0.53489  0.05160  0.33027  1.0000
  S   S232      1.0  0.52479  0.07579  0.38468  1.0000
  Fe  Fe118     1.0  0.50363  0.02799  0.39651  1.0000
  S   S233      1.0  0.51725  0.02275  0.35052  1.0000
  H   H1315     1.0  0.62216  0.17639  0.44020  1.0000
  Fe  Fe119     1.0  0.53165  0.03283  0.37446  1.0000
  S   S234      1.0  0.54729  0.02453  0.38834  1.0000
  Fe  Fe120     1.0  0.51888  0.04205  0.31032  1.0000
  S   S235      1.0  0.52325  0.04644  0.24199  1.0000
  S   S236      1.0  0.51810  0.03700  0.42301  1.0000
  S   S237      1.0  0.50436  0.04699  0.35505  1.0000
  Fe  Fe121     1.0  0.62317  0.07502  0.44272  1.0000
  S   S238      1.0  0.60918  0.07856  0.40786  1.0000
  Fe  Fe122     1.0  0.61653  0.06659  0.36967  1.0000
  S   S239      1.0  0.61581  0.07293  0.30463  1.0000
  Fe  Fe123     1.0  0.59652  0.06038  0.44919  1.0000
  S   S240      1.0  0.57612  0.05897  0.47371  1.0000
  S   S241      1.0  0.60959  0.05728  0.48691  1.0000
  Fe  Fe124     1.0  0.50013  0.03301  0.05926  1.0000
  H   H1316     1.0  0.60680  0.17018  0.47287  1.0000
  H   H1317     1.0  0.62239  0.01599  0.38457  1.0000
  Fe  Fe125     1.0  0.52394  0.03107  0.00612  1.0000
  S   S242      1.0  0.51778  0.03573  0.95017  1.0000
  S   S243      1.0  0.54255  0.02662  0.00560  1.0000
  Fe  Fe126     1.0  0.51074  0.05080  0.97444  1.0000
  S   S244      1.0  0.51377  0.07115  0.93685  1.0000
  Fe  Fe127     1.0  0.49918  0.02205  0.98666  1.0000
  H   H1318     1.0  0.61916  0.18293  0.97689  1.0000
  S   S245      1.0  0.51846  0.04718  0.02699  1.0000
  S   S246      1.0  0.50609  0.01648  0.04133  1.0000
  Fe  Fe128     1.0  0.62148  0.06789  0.03459  1.0000
  S   S247      1.0  0.60927  0.06607  0.09576  1.0000
  Fe  Fe129     1.0  0.59404  0.05503  0.07719  1.0000
  S   S248      1.0  0.57505  0.05886  0.08875  1.0000
  Fe  Fe130     1.0  0.61377  0.04737  0.11488  1.0000
  S   S249      1.0  0.60564  0.05814  0.01472  1.0000
  Fe  Fe131     1.0  0.59376  0.14303  0.86815  1.0000
  S   S250      1.0  0.59491  0.16123  0.82473  1.0000
  S   S251      1.0  0.61101  0.13602  0.86974  1.0000
  Fe  Fe132     1.0  0.56547  0.13667  0.89897  1.0000
  S   S252      1.0  0.56441  0.15485  0.85717  1.0000
  S   S253      1.0  0.55046  0.12057  0.94767  1.0000
  Fe  Fe133     1.0  0.57856  0.15026  0.81007  1.0000
  S   S254      1.0  0.58279  0.15116  0.74356  1.0000
  Fe  Fe134     1.0  0.58107  0.16461  0.87506  1.0000
  S   S255      1.0  0.58615  0.18539  0.87798  1.0000
  S   S256      1.0  0.57845  0.13167  0.85084  1.0000
  S   S257      1.0  0.58106  0.14679  0.91976  1.0000
  Fe  Fe135     1.0  0.60630  0.23624  0.00497  1.0000
  S   S258      1.0  0.59760  0.21578  0.00494  1.0000
  H   H1319     1.0  0.55102  0.01534  0.30850  1.0000
  S   S259      1.0  0.61827  0.02616  0.46578  1.0000
  H   H1320     1.0  0.60198  0.17715  0.55189  1.0000
  S   S260      1.0  0.59020  0.22575  0.45072  1.0000
  H   H1321     1.0  0.53009  0.06982  0.10821  1.0000
  C   C762      1.0  0.59525  0.20732  0.96884  1.0000
  C   C763      1.0  0.58871  0.19439  0.98235  1.0000
  C   C764      1.0  0.58629  0.18738  0.95512  1.0000
  C   C765      1.0  0.59020  0.19326  0.91379  1.0000
  C   C766      1.0  0.59697  0.20612  0.90029  1.0000
  C   C767      1.0  0.59967  0.21303  0.92748  1.0000
  H   H1322     1.0  0.58533  0.18978  0.01421  1.0000
  H   H1323     1.0  0.58104  0.17754  0.96618  1.0000
  H   H1324     1.0  0.60012  0.21079  0.86845  1.0000
  H   H1325     1.0  0.60502  0.22281  0.91644  1.0000
  C   C768      1.0  0.52454  0.08464  0.93908  1.0000
  C   C769      1.0  0.53331  0.08363  0.96111  1.0000
  C   C770      1.0  0.54157  0.09466  0.96225  1.0000
  C   C771      1.0  0.54134  0.10680  0.94085  1.0000
  C   C772      1.0  0.53251  0.10777  0.91913  1.0000
  C   C773      1.0  0.52425  0.09677  0.91798  1.0000
  H   H1326     1.0  0.53366  0.07436  0.97750  1.0000
  H   H1327     1.0  0.54799  0.09376  0.98047  1.0000
  H   H1328     1.0  0.53174  0.11704  0.90429  1.0000
  H   H1329     1.0  0.51738  0.09767  0.90137  1.0000
  C   C774      1.0  0.55126  0.03490  0.03119  1.0000
  C   C775      1.0  0.54587  0.04178  0.05558  1.0000
  C   C776      1.0  0.55319  0.04922  0.07303  1.0000
  C   C777      1.0  0.56587  0.04941  0.06735  1.0000
  C   C778      1.0  0.57112  0.04194  0.04494  1.0000
  C   C779      1.0  0.56385  0.03478  0.02657  1.0000
  H   H1330     1.0  0.53604  0.04127  0.06143  1.0000
  H   H1331     1.0  0.54900  0.05474  0.09108  1.0000
  H   H1332     1.0  0.58081  0.04175  0.04116  1.0000
  H   H1333     1.0  0.56804  0.02928  0.00839  1.0000
  H   H1334     1.0  0.49876  0.01347  0.51822  1.0000
  S   S261      1.0  0.63160  0.06403  0.40131  1.0000
  H   H1335     1.0  0.57280  0.00951  0.49498  1.0000
  H   H1336     1.0  0.61381  0.14911  0.39577  1.0000
  C   C780      1.0  0.61562  0.06342  0.27079  1.0000
  C   C781      1.0  0.61191  0.06063  0.20768  1.0000
  C   C782      1.0  0.61132  0.06731  0.23701  1.0000
  H   H1337     1.0  0.60859  0.06376  0.18190  1.0000
  C   C783      1.0  0.62047  0.05272  0.27501  1.0000
  C   C784      1.0  0.51405  0.04178  0.21067  1.0000
  C   C785      1.0  0.52000  0.04385  0.16978  1.0000
  C   C786      1.0  0.51317  0.04053  0.14347  1.0000
  C   C787      1.0  0.50018  0.03546  0.15732  1.0000
  H   H1338     1.0  0.54239  0.02515  0.14635  1.0000
  C   C788      1.0  0.50109  0.03648  0.22481  1.0000
  H   H1339     1.0  0.52997  0.04814  0.15817  1.0000
  H   H1340     1.0  0.51793  0.04212  0.11230  1.0000
  H   H1341     1.0  0.60906  0.15445  0.67242  1.0000
  C   C789      1.0  0.59050  0.01039  0.28949  1.0000
  C   C790      1.0  0.55440  0.03320  0.41633  1.0000
  C   C791      1.0  0.55034  0.04363  0.42478  1.0000
  C   C792      1.0  0.55649  0.05096  0.44522  1.0000
  C   C793      1.0  0.56709  0.04828  0.45549  1.0000
  C   C794      1.0  0.57086  0.03758  0.44843  1.0000
  C   C795      1.0  0.56444  0.02994  0.42928  1.0000
  H   H1342     1.0  0.54281  0.04645  0.41427  1.0000
  H   H1343     1.0  0.55338  0.05906  0.45145  1.0000
  H   H1344     1.0  0.57868  0.03517  0.45795  1.0000
  H   H1345     1.0  0.56736  0.02166  0.42403  1.0000
  C   C796      1.0  0.58835  0.18539  0.43699  1.0000
  C   C797      1.0  0.59906  0.19532  0.41532  1.0000
  C   C798      1.0  0.59982  0.20777  0.41888  1.0000
  C   C799      1.0  0.58980  0.21043  0.44386  1.0000
  C   C800      1.0  0.57906  0.20053  0.46506  1.0000
  C   C801      1.0  0.57838  0.18805  0.46208  1.0000
  H   H1346     1.0  0.60679  0.19338  0.39558  1.0000
  H   H1347     1.0  0.60816  0.21530  0.40240  1.0000
  H   H1348     1.0  0.57116  0.20259  0.48359  1.0000
  H   H1349     1.0  0.56998  0.18057  0.47824  1.0000
  C   C802      1.0  0.57302  0.14837  0.71231  1.0000
  C   C803      1.0  0.57764  0.14405  0.67920  1.0000
  C   C804      1.0  0.57056  0.14226  0.65220  1.0000
  C   C805      1.0  0.55883  0.14499  0.65755  1.0000
  C   C806      1.0  0.55407  0.14910  0.69110  1.0000
  C   C807      1.0  0.56116  0.15085  0.71831  1.0000
  H   H1350     1.0  0.58681  0.14212  0.67419  1.0000
  H   H1351     1.0  0.57423  0.13888  0.62696  1.0000
  H   H1352     1.0  0.54498  0.15121  0.69553  1.0000
  H   H1353     1.0  0.55758  0.15438  0.74335  1.0000
  C   C808      1.0  0.54514  0.09699  0.46028  1.0000
  C   C809      1.0  0.54079  0.10352  0.42995  1.0000
  C   C810      1.0  0.53459  0.09688  0.40738  1.0000
  C   C811      1.0  0.53267  0.08362  0.41445  1.0000
  C   C812      1.0  0.53716  0.07711  0.44439  1.0000
  C   C813      1.0  0.54336  0.08374  0.46700  1.0000
  H   H1354     1.0  0.54201  0.11367  0.42431  1.0000
  H   H1355     1.0  0.53114  0.10206  0.38445  1.0000
  H   H1356     1.0  0.53559  0.06692  0.45073  1.0000
  H   H1357     1.0  0.54663  0.07852  0.49033  1.0000
  H   H1358     1.0  0.62098  0.02205  0.33526  1.0000
  H   H1359     1.0  0.55287  0.07872  0.83710  1.0000
  C   C814      1.0  0.50554  0.10047  0.09476  1.0000
  S   S262      1.0  0.60277  0.04873  0.40909  1.0000
  H   H1360     1.0  0.52530  0.08940  0.04028  1.0000
  H   H1361     1.0  0.52602  0.09110  0.08822  1.0000
  H   H1362     1.0  0.54094  0.07970  0.06242  1.0000
  H   H1363     1.0  0.55452  0.01590  0.23956  1.0000
  C   C815      1.0  0.64152  0.16970  0.68822  1.0000
  N   N56       1.0  0.58966  0.21970  0.30084  1.0000
  C   C816      1.0  0.60186  0.22350  0.26802  1.0000
  C   C817      1.0  0.57924  0.21966  0.28069  1.0000
  C   C818      1.0  0.58836  0.20639  0.32539  1.0000
  C   C819      1.0  0.59018  0.22891  0.32611  1.0000
  C   C820      1.0  0.61386  0.22333  0.28185  1.0000
  C   C821      1.0  0.61531  0.12913  0.44657  1.0000
  C   C822      1.0  0.57618  0.20011  0.35945  1.0000
  C   C823      1.0  0.57751  0.23020  0.35037  1.0000
  H   H1364     1.0  0.60158  0.21736  0.24730  1.0000
  H   H1365     1.0  0.60342  0.23331  0.24902  1.0000
  H   H1366     1.0  0.56986  0.21677  0.30248  1.0000
  H   H1367     1.0  0.57902  0.21241  0.26361  1.0000
  H   H1368     1.0  0.58927  0.19995  0.30566  1.0000
  H   H1369     1.0  0.59603  0.20611  0.34010  1.0000
  H   H1370     1.0  0.59572  0.22650  0.34771  1.0000
  H   H1371     1.0  0.59532  0.23866  0.30673  1.0000
  H   H1372     1.0  0.62217  0.22793  0.25549  1.0000
  H   H1373     1.0  0.57841  0.23132  0.37993  1.0000
  H   H1374     1.0  0.54164  0.02251  0.25353  1.0000
  C   C824      1.0  0.50514  0.06836  0.06851  1.0000
  H   H1375     1.0  0.64206  0.07166  0.08860  1.0000
  C   C825      1.0  0.62372  0.15160  0.70109  1.0000
  H   H1376     1.0  0.56763  0.19946  0.34897  1.0000
  H   H1377     1.0  0.57560  0.20489  0.38366  1.0000
  H   H1378     1.0  0.57629  0.19018  0.37326  1.0000
  C   C826      1.0  0.61577  0.16012  0.68424  1.0000
  H   H1379     1.0  0.56938  0.22208  0.35694  1.0000
  H   H1380     1.0  0.56878  0.23755  0.00091  1.0000
  H   H1381     1.0  0.51549  0.10593  0.08230  1.0000
  C   C827      1.0  0.62677  0.13936  0.44554  1.0000
  H   H1382     1.0  0.59447  0.09729  0.06034  1.0000
  C   C828      1.0  0.59809  0.18352  0.53209  1.0000
  N   N57       1.0  0.63333  0.15768  0.71921  1.0000
  H   H1383     1.0  0.60594  0.18909  0.50524  1.0000
  C   C829      1.0  0.60429  0.01380  0.48046  1.0000
  H   H1384     1.0  0.60612  0.13179  0.00331  1.0000
  H   H1385     1.0  0.56987  0.09978  0.98002  1.0000
  C   C830      1.0  0.59261  0.19278  0.55266  1.0000
  H   H1386     1.0  0.58880  0.08491  0.99683  1.0000
  C   C831      1.0  0.53127  0.00343  0.49808  1.0000
  C   C832      1.0  0.57025  0.18196  0.57285  1.0000
  H   H1387     1.0  0.55017  0.17359  0.58946  1.0000
  S   S263      1.0  0.49159  0.03758  0.00753  1.0000
  N   N58       1.0  0.58115  0.18683  0.58802  1.0000
  H   H1388     1.0  0.49049  0.06792  0.18822  1.0000
  C   C833      1.0  0.61117  0.09314  0.93358  1.0000
  H   H1389     1.0  0.59591  0.14516  0.58436  1.0000
  Fe  Fe136     1.0  0.60991  0.03954  0.03919  1.0000
  H   H1390     1.0  0.60768  0.07564  0.23325  1.0000
  H   H1391     1.0  0.62663  0.10349  0.07314  1.0000
  C   C834      1.0  0.62137  0.13332  0.56374  1.0000
  H   H1392     1.0  0.58834  0.00026  0.28944  1.0000
  N   N59       1.0  0.57251  0.08463  0.34221  1.0000
  C   C835      1.0  0.57616  0.08165  0.38092  1.0000
  C   C836      1.0  0.56399  0.07260  0.34119  1.0000
  C   C837      1.0  0.56555  0.09491  0.34328  1.0000
  C   C838      1.0  0.58438  0.08912  0.30806  1.0000
  C   C839      1.0  0.58393  0.09297  0.39030  1.0000
  C   C840      1.0  0.57024  0.06164  0.33691  1.0000
  C   C841      1.0  0.55705  0.09657  0.31512  1.0000
  C   C842      1.0  0.58296  0.09082  0.26523  1.0000
  H   H1393     1.0  0.56765  0.07746  0.40694  1.0000
  H   H1394     1.0  0.58175  0.07445  0.38168  1.0000
  H   H1395     1.0  0.55959  0.07420  0.31631  1.0000
  H   H1396     1.0  0.55586  0.06907  0.36865  1.0000
  H   H1397     1.0  0.55929  0.09320  0.37399  1.0000
  H   H1398     1.0  0.57220  0.10433  0.33672  1.0000
  H   H1399     1.0  0.58992  0.09849  0.30799  1.0000
  H   H1400     1.0  0.59086  0.08284  0.31221  1.0000
  H   H1401     1.0  0.58601  0.08936  0.41907  1.0000
  H   H1402     1.0  0.59310  0.09735  0.36755  1.0000
  H   H1403     1.0  0.57868  0.10024  0.39442  1.0000
  H   H1404     1.0  0.56313  0.05346  0.33579  1.0000
  H   H1405     1.0  0.57794  0.06428  0.30881  1.0000
  H   H1406     1.0  0.57380  0.05820  0.36280  1.0000
  H   H1407     1.0  0.56199  0.09809  0.28337  1.0000
  H   H1408     1.0  0.55342  0.10505  0.31719  1.0000
  H   H1409     1.0  0.54865  0.08844  0.32465  1.0000
  H   H1410     1.0  0.58296  0.10079  0.25157  1.0000
  H   H1411     1.0  0.57455  0.08439  0.26326  1.0000
  H   H1412     1.0  0.59102  0.08855  0.24642  1.0000
  N   N60       1.0  0.58551  0.08409  0.54743  1.0000
  C   C843      1.0  0.59903  0.09141  0.53762  1.0000
  C   C844      1.0  0.58183  0.08643  0.50877  1.0000
  C   C845      1.0  0.58504  0.07020  0.56204  1.0000
  C   C846      1.0  0.57755  0.08845  0.57911  1.0000
  C   C847      1.0  0.60515  0.09010  0.57249  1.0000
  C   C848      1.0  0.58312  0.10048  0.48775  1.0000
  C   C849      1.0  0.57204  0.06079  0.57542  1.0000
  C   C850      1.0  0.56342  0.08633  0.58143  1.0000
  H   H1413     1.0  0.60501  0.08868  0.51321  1.0000
  H   H1414     1.0  0.60010  0.10176  0.52593  1.0000
  H   H1415     1.0  0.57208  0.08121  0.51267  1.0000
  H   H1416     1.0  0.58770  0.08269  0.48688  1.0000
  H   H1417     1.0  0.59114  0.06726  0.53841  1.0000
  H   H1418     1.0  0.58878  0.06833  0.58848  1.0000
  H   H1419     1.0  0.57831  0.08388  0.60931  1.0000
  H   H1420     1.0  0.58113  0.09886  0.57397  1.0000
  H   H1421     1.0  0.60728  0.08072  0.58063  1.0000
  H   H1422     1.0  0.61431  0.09728  0.56254  1.0000
  H   H1423     1.0  0.59946  0.09198  0.59915  1.0000
  H   H1424     1.0  0.57760  0.10099  0.46559  1.0000
  H   H1425     1.0  0.57954  0.10571  0.50893  1.0000
  H   H1426     1.0  0.59300  0.10539  0.47094  1.0000
  H   H1427     1.0  0.56624  0.06158  0.60387  1.0000
  H   H1428     1.0  0.57328  0.05097  0.58133  1.0000
  H   H1429     1.0  0.56695  0.06178  0.55220  1.0000
  H   H1430     1.0  0.55801  0.08497  0.61285  1.0000
  H   H1431     1.0  0.55929  0.07808  0.57216  1.0000
  H   H1432     1.0  0.56156  0.09491  0.56371  1.0000
  N   N61       1.0  0.55246  0.10909  0.78797  1.0000
  C   C851      1.0  0.54845  0.11384  0.75090  1.0000
  C   C852      1.0  0.56656  0.11358  0.77759  1.0000
  C   C853      1.0  0.54678  0.11418  0.82158  1.0000
  C   C854      1.0  0.54807  0.09482  0.80175  1.0000
  C   C855      1.0  0.53419  0.11155  0.75638  1.0000
  C   C856      1.0  0.57404  0.10700  0.75048  1.0000
  C   C857      1.0  0.54892  0.12872  0.81148  1.0000
  C   C858      1.0  0.55167  0.08823  0.83906  1.0000
  H   H1433     1.0  0.55268  0.12417  0.73730  1.0000
  H   H1434     1.0  0.55203  0.10937  0.72723  1.0000
  H   H1435     1.0  0.56992  0.11276  0.80488  1.0000
  H   H1436     1.0  0.56976  0.12390  0.76186  1.0000
  H   H1437     1.0  0.53649  0.10989  0.83338  1.0000
  H   H1438     1.0  0.55060  0.11137  0.84753  1.0000
  H   H1439     1.0  0.53765  0.09173  0.81005  1.0000
  H   H1440     1.0  0.55104  0.09047  0.77710  1.0000
  H   H1441     1.0  0.52959  0.11597  0.77858  1.0000
  H   H1442     1.0  0.53263  0.11603  0.72731  1.0000
  H   H1443     1.0  0.52945  0.10131  0.76447  1.0000
  H   H1444     1.0  0.57276  0.09685  0.76582  1.0000
  H   H1445     1.0  0.57165  0.10793  0.72161  1.0000
  H   H1446     1.0  0.58420  0.11166  0.74317  1.0000
  H   H1447     1.0  0.54421  0.13235  0.78885  1.0000
  H   H1448     1.0  0.55902  0.13366  0.80127  1.0000
  H   H1449     1.0  0.54484  0.13134  0.83895  1.0000
  H   H1450     1.0  0.54422  0.08702  0.86691  1.0000
  H   H1451     1.0  0.56064  0.09337  0.84199  1.0000
  S   S264      1.0  0.59727  0.03596  0.10136  1.0000
  C   C859      1.0  0.52273  0.08409  0.07262  1.0000
  C   C860      1.0  0.58174  0.00465  0.37790  1.0000
  H   H1452     1.0  0.57139  0.17344  0.56246  1.0000
  C   C861      1.0  0.53093  0.07451  0.07650  1.0000
  H   H1453     1.0  0.52889  0.06723  0.06064  1.0000
  C   C862      1.0  0.64158  0.10187  0.48009  1.0000
  Fe  Fe137     1.0  0.61681  0.04658  0.44390  1.0000
  C   C863      1.0  0.61695  0.05004  0.21155  1.0000
  C   C864      1.0  0.55812  0.04804  0.22477  1.0000
  H   H1454     1.0  0.58997  0.24239  0.87409  1.0000
  H   H1455     1.0  0.55802  0.99743  0.93913  1.0000
  S   S265      1.0  0.49111  0.03223  0.12415  1.0000
  H   H1456     1.0  0.59052  0.19972  0.52889  1.0000
  H   H1457     1.0  0.51399  0.01625  0.52557  1.0000
  H   H1458     1.0  0.58706  0.23406  0.22233  1.0000
  H   H1459     1.0  0.63994  0.23783  0.93632  1.0000
  C   C865      1.0  0.54289  0.99797  0.49637  1.0000
  C   C866      1.0  0.64529  0.08459  0.19883  1.0000
  H   H1460     1.0  0.62834  0.14810  0.67603  1.0000
  H   H1461     1.0  0.50687  0.05932  0.08399  1.0000
  N   N62       1.0  0.63817  0.20527  0.96287  1.0000
  C   C867      1.0  0.60483  0.00111  0.48411  1.0000
  C   C868      1.0  0.52032  0.00031  0.94865  1.0000
  H   H1462     1.0  0.57624  0.11649  0.95381  1.0000
  H   H1463     1.0  0.58417  0.04188  0.33545  1.0000
  C   C869      1.0  0.49166  0.06776  0.15654  1.0000
  H   H1464     1.0  0.55599  0.24202  0.98606  1.0000
  H   H1465     1.0  0.57112  0.02641  0.18400  1.0000
  C   C870      1.0  0.64308  0.21919  0.95861  1.0000
  H   H1466     1.0  0.57080  0.23204  0.24430  1.0000
  C   C871      1.0  0.58167  0.00702  0.49256  1.0000
  H   H1467     1.0  0.61398  0.11343  0.92061  1.0000
  H   H1468     1.0  0.61641  0.10614  0.96624  1.0000
  C   C872      1.0  0.60775  0.12310  0.99502  1.0000
  H   H1469     1.0  0.55087  0.01766  0.90351  1.0000
  H   H1470     1.0  0.65469  0.17597  0.72233  1.0000
  H   H1471     1.0  0.59540  0.08198  0.05348  1.0000
  S   S266      1.0  0.62705  0.04959  0.05427  1.0000
  H   H1472     1.0  0.60759  0.08437  0.95891  1.0000
  C   C873      1.0  0.60548  0.14456  0.57966  1.0000
  C   C874      1.0  0.59076  0.09401  0.00501  1.0000
  C   C875      1.0  0.59761  0.09224  0.03792  1.0000
  H   H1473     1.0  0.58127  0.09459  0.02038  1.0000
  H   H1474     1.0  0.57108  0.10548  0.92811  1.0000
  H   H1475     1.0  0.58756  0.09488  0.93359  1.0000
  C   C876      1.0  0.62117  0.04611  0.24545  1.0000
  C   C877      1.0  0.57586  0.10668  0.95160  1.0000
  H   H1476     1.0  0.62154  0.16838  0.65890  1.0000
  H   H1477     1.0  0.60657  0.09225  0.90959  1.0000
  H   H1478     1.0  0.60792  0.09513  0.02661  1.0000
  H   H1479     1.0  0.56989  0.18906  0.54615  1.0000
  C   C878      1.0  0.58904  0.10439  0.93921  1.0000
  N   N63       1.0  0.59679  0.10522  0.96851  1.0000
  H   H1480     1.0  0.58796  0.11679  0.00184  1.0000
  H   H1481     1.0  0.49000  0.05655  0.05478  1.0000
  H   H1482     1.0  0.61684  0.12614  0.97150  1.0000
  H   H1483     1.0  0.60479  0.00138  0.38206  1.0000
  H   H1484     1.0  0.60903  0.15847  0.89559  1.0000
  C   C879      1.0  0.60991  0.10507  0.94748  1.0000
  C   C880      1.0  0.59686  0.11760  0.97920  1.0000
  H   H1485     1.0  0.59402  0.11135  0.90951  1.0000
  S   S267      1.0  0.61820  0.04147  0.17492  1.0000
  C   C881      1.0  0.60905  0.13434  0.56779  1.0000
  H   H1486     1.0  0.59725  0.12526  0.95250  1.0000
  H   H1487     1.0  0.60854  0.11652  0.02195  1.0000
  H   H1488     1.0  0.63791  0.17601  0.77140  1.0000
  N   N64       1.0  0.55826  0.03612  0.21146  1.0000
  C   C882      1.0  0.61744  0.15593  0.90044  1.0000
  C   C883      1.0  0.55711  0.17823  0.60288  1.0000
  H   H1489     1.0  0.62970  0.13734  0.78996  1.0000
  H   H1490     1.0  0.57404  0.00137  0.58287  1.0000
  H   H1491     1.0  0.59210  0.02623  0.48455  1.0000
  H   H1492     1.0  0.57063  0.19252  0.63690  1.0000
  C   C884      1.0  0.56411  0.06071  0.19178  1.0000
  H   H1493     1.0  0.57480  0.04255  0.16016  1.0000
  C   C885      1.0  0.58151  0.03774  0.21232  1.0000
  N   N65       1.0  0.50870  0.07858  0.08847  1.0000
  H   H1494     1.0  0.60028  0.19857  0.56084  1.0000
  H   H1495     1.0  0.55798  0.02421  0.14531  1.0000
  H   H1496     1.0  0.62128  0.09390  0.92070  1.0000
  C   C886      1.0  0.55043  0.03599  0.18222  1.0000
  H   H1497     1.0  0.58468  0.21438  0.55967  1.0000
  H   H1498     1.0  0.58072  0.04466  0.22998  1.0000
  C   C887      1.0  0.62065  0.14536  0.89019  1.0000
  H   H1499     1.0  0.56922  0.23628  0.89255  1.0000
  C   C888      1.0  0.59261  0.01658  0.48605  1.0000
  H   H1500     1.0  0.62528  0.03807  0.24838  1.0000
  H   H1501     1.0  0.62408  0.04980  0.30034  1.0000
  H   H1502     1.0  0.62413  0.12539  0.55484  1.0000
  C   C889      1.0  0.60037  0.00990  0.95811  1.0000
  H   H1503     1.0  0.51109  0.07102  0.03690  1.0000
  H   H1504     1.0  0.61865  0.15230  0.77581  1.0000
  C   C890      1.0  0.57864  0.19669  0.60934  1.0000
  C   C891      1.0  0.63879  0.16126  0.42826  1.0000
  H   H1505     1.0  0.60637  0.15114  0.46080  1.0000
  H   H1506     1.0  0.55737  0.01135  0.95746  1.0000
  H   H1507     1.0  0.56837  0.20626  0.57040  1.0000
  C   C892      1.0  0.57615  0.20859  0.58384  1.0000
  H   H1508     1.0  0.59106  0.17785  0.52148  1.0000
  H   H1509     1.0  0.63717  0.11526  0.97417  1.0000
  C   C893      1.0  0.61437  0.15409  0.58533  1.0000
  H   H1510     1.0  0.63933  0.17149  0.41782  1.0000
  H   H1511     1.0  0.59744  0.16995  0.64303  1.0000
  H   H1512     1.0  0.59522  0.01584  0.25770  1.0000
  H   H1513     1.0  0.56288  0.04847  0.24860  1.0000
  C   C894      1.0  0.58702  0.00734  0.02393  1.0000
  C   C895      1.0  0.64342  0.15942  0.46625  1.0000
  H   H1514     1.0  0.58508  0.01014  0.05141  1.0000
  H   H1515     1.0  0.50302  0.09741  0.12795  1.0000
  S   S268      1.0  0.63103  0.08814  0.99528  1.0000
  H   H1516     1.0  0.58677  0.20019  0.62028  1.0000
  H   H1517     1.0  0.57459  0.17171  0.64330  1.0000
  N   N66       1.0  0.62602  0.15301  0.43304  1.0000
  H   H1518     1.0  0.60232  0.18599  0.61442  1.0000
  H   H1519     1.0  0.60240  0.03417  0.34168  1.0000
  H   H1520     1.0  0.57349  0.21471  0.60329  1.0000
  H   H1521     1.0  0.62534  0.20357  0.02037  1.0000
  H   H1522     1.0  0.53506  0.00234  0.99385  1.0000
  H   H1523     1.0  0.58377  0.16766  0.60418  1.0000
  H   H1524     1.0  0.50215  0.00159  0.55403  1.0000
  H   H1525     1.0  0.53414  0.01240  0.47328  1.0000
  H   H1526     1.0  0.55413  0.18662  0.60944  1.0000
  H   H1527     1.0  0.58847  0.03384  0.29882  1.0000
  H   H1528     1.0  0.59109  0.18157  0.66309  1.0000
  H   H1529     1.0  0.61624  0.11962  0.46130  1.0000
  C   C896      1.0  0.58302  0.17578  0.61716  1.0000
  H   H1530     1.0  0.62795  0.20321  0.91855  1.0000
  C   C897      1.0  0.55208  0.02449  0.24670  1.0000
  H   H1531     1.0  0.61466  0.22880  0.30397  1.0000
  C   C898      1.0  0.59408  0.17866  0.63532  1.0000
  H   H1532     1.0  0.61008  0.16338  0.70763  1.0000
  H   H1533     1.0  0.61454  0.21351  0.29401  1.0000
  C   C899      1.0  0.63160  0.14221  0.89634  1.0000
  H   H1534     1.0  0.58179  0.02859  0.23162  1.0000
  H   H1535     1.0  0.55645  0.17133  0.63125  1.0000
  H   H1536     1.0  0.61867  0.20571  0.97950  1.0000
  H   H1537     1.0  0.51004  0.07989  0.14774  1.0000
  C   C900      1.0  0.62311  0.15526  0.39310  1.0000
  N   N67       1.0  0.59433  0.01388  0.35625  1.0000
  H   H1538     1.0  0.55840  0.06241  0.17046  1.0000
  H   H1539     1.0  0.61164  0.16211  0.59366  1.0000
  H   H1540     1.0  0.59336  0.00237  0.61002  1.0000
  C   C901      1.0  0.62529  0.16347  0.91630  1.0000
  H   H1541     1.0  0.57444  0.00634  0.36269  1.0000
  C   C902      1.0  0.49419  0.03346  0.19815  1.0000
  H   H1542     1.0  0.62079  0.16911  0.34374  1.0000
  S   S269      1.0  0.64618  0.17028  0.94088  1.0000
  H   H1543     1.0  0.63404  0.13396  0.88884  1.0000
  H   H1544     1.0  0.63116  0.17610  0.36824  1.0000
  C   C903      1.0  0.62239  0.16878  0.37357  1.0000
  S   S270      1.0  0.61020  0.02543  0.00035  1.0000
  C   C904      1.0  0.63634  0.16044  0.92204  1.0000
  H   H1545     1.0  0.55430  0.04439  0.15576  1.0000
  C   C905      1.0  0.64804  0.11959  0.50799  1.0000
  H   H1546     1.0  0.55602  0.23392  0.93311  1.0000
  H   H1547     1.0  0.60882  0.18494  0.01956  1.0000
  H   H1548     1.0  0.49635  0.03489  0.25610  1.0000
  S   S271      1.0  0.49217  0.00695  0.95577  1.0000
  C   C906      1.0  0.54051  0.01604  0.91379  1.0000
  C   C907      1.0  0.57127  0.03573  0.19049  1.0000
  H   H1549     1.0  0.62802  0.13689  0.47622  1.0000
  H   H1550     1.0  0.62284  0.17174  0.92357  1.0000
  H   H1551     1.0  0.61385  0.99884  0.47976  1.0000
  C   C908      1.0  0.64106  0.14838  0.72862  1.0000
  C   C909      1.0  0.59193  0.99956  0.95344  1.0000
  C   C910      1.0  0.51032  0.00262  0.49059  1.0000
  H   H1552     1.0  0.50991  0.06501  0.14032  1.0000
  H   H1553     1.0  0.64325  0.16826  0.65768  1.0000
  H   H1554     1.0  0.60645  0.13033  0.46414  1.0000
  C   C911      1.0  0.64238  0.07365  0.11763  1.0000
  H   H1555     1.0  0.53866  0.02156  0.93588  1.0000
  H   H1556     1.0  0.62674  0.22692  0.97378  1.0000
  C   C912      1.0  0.59812  0.01378  0.99359  1.0000
  C   C913      1.0  0.61887  0.18657  0.00350  1.0000
  H   H1557     1.0  0.55020  0.03143  0.30022  1.0000
  C   C914      1.0  0.63029  0.14287  0.56928  1.0000
  C   C915      1.0  0.62683  0.15335  0.57953  1.0000
  C   C916      1.0  0.63934  0.14965  0.91272  1.0000
  H   H1558     1.0  0.54175  0.03282  0.86737  1.0000
  H   H1559     1.0  0.57385  0.06133  0.17521  1.0000
  H   H1560     1.0  0.63991  0.14229  0.56422  1.0000
  H   H1561     1.0  0.56598  0.21987  0.97867  1.0000
  H   H1562     1.0  0.56448  0.06863  0.20595  1.0000
  H   H1563     1.0  0.64564  0.22095  0.87722  1.0000
  H   H1564     1.0  0.63645  0.16016  0.49236  1.0000
  S   S272      1.0  0.62960  0.09254  0.46516  1.0000
  H   H1565     1.0  0.64633  0.19942  0.01132  1.0000
  H   H1566     1.0  0.63808  0.08161  0.22818  1.0000
  H   H1567     1.0  0.62303  0.18090  0.02433  1.0000
  H   H1568     1.0  0.64084  0.13009  0.76607  1.0000
  H   H1569     1.0  0.54082  0.03655  0.19635  1.0000
  H   H1570     1.0  0.55059  0.00513  0.49964  1.0000
  H   H1571     1.0  0.60885  0.01481  0.93428  1.0000
  H   H1572     1.0  0.59077  0.04186  0.18957  1.0000
  H   H1573     1.0  0.64611  0.20724  0.85972  1.0000
  H   H1574     1.0  0.61565  0.14952  0.49458  1.0000
  H   H1575     1.0  0.58981  0.02787  0.38636  1.0000
  C   C917      1.0  0.56811  0.22184  0.94563  1.0000
  C   C918      1.0  0.61575  0.15501  0.46446  1.0000
  C   C919      1.0  0.62523  0.20090  0.99206  1.0000
  H   H1576     1.0  0.61224  0.99865  0.61329  1.0000
  H   H1577     1.0  0.51421  0.01036  0.46201  1.0000
  C   C920      1.0  0.63723  0.20261  0.92367  1.0000
  H   H1578     1.0  0.63111  0.08903  0.07963  1.0000
  H   H1579     1.0  0.61687  0.14315  0.72349  1.0000
  H   H1580     1.0  0.60723  0.02154  0.29686  1.0000
  C   C921      1.0  0.50562  0.07309  0.13323  1.0000
  H   H1581     1.0  0.54493  0.01528  0.18906  1.0000
  H   H1582     1.0  0.58167  0.01321  0.29817  1.0000
  H   H1583     1.0  0.57478  0.02646  0.34239  1.0000
  C   C922      1.0  0.64027  0.09226  0.16697  1.0000
  H   H1584     1.0  0.61395  0.99928  0.56228  1.0000
  H   H1585     1.0  0.62138  0.16799  0.74778  1.0000
  C   C923      1.0  0.53888  0.99803  0.96993  1.0000
  N   N68       1.0  0.64883  0.09664  0.12476  1.0000
  C   C924      1.0  0.54898  0.02439  0.16526  1.0000
  H   H1586     1.0  0.63670  0.17754  0.68721  1.0000
  H   H1587     1.0  0.64888  0.10720  0.06571  1.0000
  H   H1588     1.0  0.63808  0.10055  0.17707  1.0000
  C   C925      1.0  0.55493  0.02491  0.28679  1.0000
  H   H1589     1.0  0.63760  0.19267  0.92463  1.0000
  H   H1590     1.0  0.63513  0.13783  0.42554  1.0000
  C   C926      1.0  0.62639  0.16059  0.75612  1.0000
  C   C927      1.0  0.63447  0.22774  0.94716  1.0000
  H   H1591     1.0  0.62812  0.16316  0.81341  1.0000
  S   S273      1.0  0.63806  0.16585  0.58347  1.0000
  H   H1592     1.0  0.57537  0.23906  0.33540  1.0000
  C   C928      1.0  0.65472  0.17487  0.69229  1.0000
  H   H1593     1.0  0.52675  0.02212  0.88250  1.0000
  C   C929      1.0  0.64489  0.09934  0.99191  1.0000
  H   H1594     1.0  0.64123  0.11262  0.10556  1.0000
  C   C930      1.0  0.64270  0.10389  0.09694  1.0000
  C   C931      1.0  0.63400  0.13578  0.76084  1.0000
  C   C932      1.0  0.59975  0.01282  0.31473  1.0000
  C   C933      1.0  0.59316  0.02717  0.35523  1.0000
  C   C934      1.0  0.58456  0.03237  0.33143  1.0000
  H   H1595     1.0  0.54832  0.04808  0.23899  1.0000
  C   C935      1.0  0.64712  0.21127  0.88503  1.0000
  C   C936      1.0  0.60318  0.01096  0.38111  1.0000
  H   H1596     1.0  0.64599  0.15955  0.40440  1.0000
  H   H1597     1.0  0.58196  0.24053  0.26379  1.0000
  C   C937      1.0  0.63892  0.11184  0.49616  1.0000
  H   H1598     1.0  0.64900  0.15249  0.73899  1.0000
  H   H1599     1.0  0.64196  0.16096  0.78524  1.0000
  H   H1600     1.0  0.61601  0.02930  0.37503  1.0000
  H   H1601     1.0  0.62682  0.12995  0.75114  1.0000
  S   S274      1.0  0.61908  0.23999  0.04413  1.0000
  H   H1602     1.0  0.56169  0.21421  0.93910  1.0000
  C   C938      1.0  0.61634  0.02021  0.36758  1.0000
  C   C939      1.0  0.63423  0.16553  0.78233  1.0000
  H   H1603     1.0  0.62968  0.11350  0.50001  1.0000
  H   H1604     1.0  0.59895  0.01064  0.41264  1.0000
  H   H1605     1.0  0.63279  0.07376  0.13283  1.0000
  H   H1606     1.0  0.61424  0.17122  0.39111  1.0000
  H   H1607     1.0  0.58728  0.23739  0.95551  1.0000
  C   C940      1.0  0.53688  0.02256  0.87665  1.0000
  H   H1608     1.0  0.54016  0.01891  0.85078  1.0000
  H   H1609     1.0  0.64580  0.12716  0.52031  1.0000
  H   H1610     1.0  0.61477  0.12895  0.41599  1.0000
  H   H1611     1.0  0.64555  0.14605  0.70086  1.0000
  H   H1612     1.0  0.56505  0.02766  0.28402  1.0000
  H   H1613     1.0  0.63036  0.22544  0.92336  1.0000
  C   C941      1.0  0.64533  0.11233  0.97989  1.0000
  H   H1614     1.0  0.63099  0.08632  0.16925  1.0000
  C   C942      1.0  0.64640  0.19798  0.98129  1.0000
  C   C943      1.0  0.55321  0.00105  0.96325  1.0000
  H   H1615     1.0  0.57776  0.22109  0.93328  1.0000
  H   H1616     1.0  0.61963  0.17019  0.49354  1.0000
  H   H1617     1.0  0.63015  0.15266  0.37106  1.0000
  C   C944      1.0  0.61643  0.16876  0.46717  1.0000
  N   N69       1.0  0.53428  0.00213  0.93346  1.0000
  H   H1618     1.0  0.52950  0.00638  0.52625  1.0000
  C   C945      1.0  0.63004  0.09679  0.09369  1.0000
  H   H1619     1.0  0.51818  0.00549  0.97170  1.0000
  C   C946      1.0  0.56632  0.23486  0.92553  1.0000
  H   H1620     1.0  0.62263  0.09327  0.12256  1.0000
  H   H1621     1.0  0.64748  0.14689  0.91874  1.0000
  H   H1622     1.0  0.60446  0.00488  0.31651  1.0000
  H   H1623     1.0  0.64597  0.15024  0.47389  1.0000
  C   C947      1.0  0.56637  0.24507  0.97979  1.0000
  N   N70       1.0  0.57289  0.24601  0.93692  1.0000
  C   C948      1.0  0.57993  0.23238  0.25130  1.0000
  H   H1624     1.0  0.57814  0.00597  0.40812  1.0000
  H   H1625     1.0  0.60279  0.24316  0.89484  1.0000
  H   H1626     1.0  0.64476  0.22058  0.98722  1.0000
  C   C949      1.0  0.50621  0.00874  0.52444  1.0000
  H   H1627     1.0  0.64460  0.06535  0.13584  1.0000
  C   C950      1.0  0.58637  0.24590  0.93414  1.0000
  H   H1628     1.0  0.64718  0.07581  0.19193  1.0000
  H   H1629     1.0  0.64276  0.18761  0.98671  1.0000
  Fe  Fe138     1.0  0.60417  0.24452  0.41285  1.0000
  C   C951      1.0  0.65274  0.08591  0.11016  1.0000
  H   H1630     1.0  0.51629  0.00455  0.92505  1.0000
  H   H1631     1.0  0.65345  0.11803  0.87427  1.0000
  H   H1632     1.0  0.65237  0.22323  0.93612  1.0000
  H   H1633     1.0  0.53803  0.99742  0.84242  1.0000
  H   H1634     1.0  0.49984  0.10718  0.08633  1.0000
  C   C952      1.0  0.65358  0.09979  0.47616  1.0000
  H   H1635     1.0  0.65374  0.09031  0.20330  1.0000
  C   C953      1.0  0.50258  0.08921  0.07702  1.0000
  S   S275      1.0  0.62395  0.24662  0.37791  1.0000
  H   H1636     1.0  0.65545  0.08577  0.00719  1.0000
  H   H1637     1.0  0.65204  0.16701  0.46077  1.0000
  H   H1638     1.0  0.65585  0.09220  0.46394  1.0000
  H   H1639     1.0  0.50531  0.09310  0.04372  1.0000
  H   H1640     1.0  0.61988  0.00008  0.02130  1.0000
  C   C954      1.0  0.65559  0.09573  0.99872  1.0000
  C   C955      1.0  0.49154  0.06515  0.06559  1.0000
  H   H1641     1.0  0.49222  0.08585  0.08573  1.0000
  H   H1642     1.0  0.48989  0.07287  0.04323  1.0000
  H   H1643     1.0  0.53023  0.99736  0.43460  1.0000
  H   H1644     1.0  0.65640  0.13159  0.96630  1.0000
  C   C956      1.0  0.65628  0.12164  0.97512  1.0000
  H   H1645     1.0  0.52403  0.99969  0.87173  1.0000
  Fe  Fe139     1.0  0.61121  0.37489  0.48654  1.0000
  S   S276      1.0  0.60809  0.36669  0.43670  1.0000
  S   S277      1.0  0.62716  0.39219  0.47167  1.0000
  Fe  Fe140     1.0  0.58867  0.35589  0.54771  1.0000
  S   S278      1.0  0.58332  0.34628  0.50228  1.0000
  S   S279      1.0  0.57864  0.34764  0.61383  1.0000
  Fe  Fe141     1.0  0.60389  0.34755  0.48056  1.0000
  S   S280      1.0  0.61336  0.33163  0.47345  1.0000
  Fe  Fe142     1.0  0.58782  0.36628  0.46192  1.0000
  S   S281      1.0  0.57920  0.37438  0.41327  1.0000
  S   S282      1.0  0.60888  0.35590  0.52848  1.0000
  S   S283      1.0  0.59132  0.37572  0.50929  1.0000
  S   S284      1.0  0.58764  0.44418  0.44724  1.0000
  Fe  Fe143     1.0  0.53121  0.41580  0.38585  1.0000
  S   S285      1.0  0.54356  0.42247  0.32294  1.0000
  S   S286      1.0  0.53408  0.40092  0.43548  1.0000
  Fe  Fe144     1.0  0.51511  0.43466  0.36869  1.0000
  S   S287      1.0  0.52646  0.44300  0.30409  1.0000
  H   H1646     1.0  0.63428  0.34270  0.81973  1.0000
  Fe  Fe145     1.0  0.52594  0.42277  0.30394  1.0000
  S   S288      1.0  0.52411  0.41339  0.25458  1.0000
  Fe  Fe146     1.0  0.54296  0.44186  0.32885  1.0000
  S   S289      1.0  0.56124  0.45649  0.31019  1.0000
  S   S290      1.0  0.51340  0.41435  0.36696  1.0000
  S   S291      1.0  0.53168  0.43531  0.39325  1.0000
  H   H1647     1.0  0.59866  0.30202  0.65644  1.0000
  Fe  Fe147     1.0  0.52874  0.43936  0.03021  1.0000
  S   S292      1.0  0.51709  0.43054  0.99492  1.0000
  S   S293      1.0  0.52122  0.44492  0.08660  1.0000
  Fe  Fe148     1.0  0.55299  0.44573  0.96297  1.0000
  S   S294      1.0  0.54331  0.43813  0.92173  1.0000
  S   S295      1.0  0.57358  0.45554  0.94112  1.0000
  Fe  Fe149     1.0  0.52813  0.44748  0.94317  1.0000
  S   S296      1.0  0.52134  0.46110  0.90015  1.0000
  Fe  Fe150     1.0  0.53338  0.42189  0.97658  1.0000
  S   S297      1.0  0.53270  0.40178  0.97254  1.0000
  S   S298      1.0  0.53898  0.45668  0.97919  1.0000
  S   S299      1.0  0.54377  0.42914  0.01721  1.0000
  Fe  Fe151     1.0  0.59747  0.36381  0.80358  1.0000
  S   S300      1.0  0.57953  0.35850  0.85343  1.0000
  S   S301      1.0  0.60141  0.37160  0.73624  1.0000
  Fe  Fe152     1.0  0.61392  0.36499  0.86125  1.0000
  S   S302      1.0  0.59747  0.35992  0.91527  1.0000
  S   S303      1.0  0.63437  0.37001  0.85926  1.0000
  Fe  Fe153     1.0  0.58925  0.34546  0.88691  1.0000
  S   S304      1.0  0.58009  0.32597  0.93048  1.0000
  Fe  Fe154     1.0  0.58918  0.37327  0.87814  1.0000
  S   S305      1.0  0.58443  0.39107  0.89138  1.0000
  S   S306      1.0  0.60641  0.34972  0.83499  1.0000
  S   S307      1.0  0.60645  0.37935  0.82623  1.0000
  H   H1648     1.0  0.54191  0.44679  0.21795  1.0000
  H   H1649     1.0  0.57200  0.31985  0.55752  1.0000
  S   S308      1.0  0.61964  0.27058  0.01310  1.0000
  H   H1650     1.0  0.59778  0.32820  0.55788  1.0000
  Fe  Fe155     1.0  0.60705  0.26478  0.97633  1.0000
  S   S309      1.0  0.60354  0.27876  0.92532  1.0000
  H   H1651     1.0  0.56868  0.37096  0.78574  1.0000
  H   H1652     1.0  0.63929  0.42736  0.57983  1.0000
  Fe  Fe156     1.0  0.60663  0.27319  0.38507  1.0000
  S   S310      1.0  0.62634  0.27702  0.34650  1.0000
  S   S311      1.0  0.59753  0.28966  0.38654  1.0000
  Fe  Fe157     1.0  0.61945  0.25962  0.32765  1.0000
  C   C957      1.0  0.62547  0.25461  0.19107  1.0000
  S   S312      1.0  0.61880  0.46646  0.20764  1.0000
  C   C958      1.0  0.62944  0.42870  0.46077  1.0000
  S   S313      1.0  0.60954  0.26074  0.43933  1.0000
  C   C959      1.0  0.57015  0.44781  0.18329  1.0000
  H   H1653     1.0  0.55319  0.25849  0.93830  1.0000
  H   H1654     1.0  0.65253  0.37720  0.77840  1.0000
  H   H1655     1.0  0.63950  0.43972  0.51610  1.0000
  H   H1656     1.0  0.55720  0.44932  0.07938  1.0000
  H   H1657     1.0  0.55349  0.45925  0.22426  1.0000
  C   C960      1.0  0.63384  0.37799  0.74738  1.0000
  H   H1658     1.0  0.63280  0.32982  0.39362  1.0000
  H   H1659     1.0  0.63811  0.37365  0.59375  1.0000
  C   C961      1.0  0.58722  0.31323  0.92937  1.0000
  C   C962      1.0  0.58491  0.30344  0.96470  1.0000
  C   C963      1.0  0.59020  0.29299  0.96438  1.0000
  C   C964      1.0  0.59756  0.29212  0.92840  1.0000
  C   C965      1.0  0.59984  0.30188  0.89311  1.0000
  C   C966      1.0  0.59481  0.31246  0.89363  1.0000
  H   H1660     1.0  0.57900  0.30396  0.99243  1.0000
  H   H1661     1.0  0.58834  0.28551  0.99173  1.0000
  H   H1662     1.0  0.60545  0.30121  0.86511  1.0000
  H   H1663     1.0  0.59648  0.31982  0.86616  1.0000
  C   C967      1.0  0.63761  0.37981  0.89003  1.0000
  C   C968      1.0  0.54062  0.45559  0.45080  1.0000
  H   H1664     1.0  0.61293  0.29058  0.56386  1.0000
  C   C969      1.0  0.63084  0.38779  0.94719  1.0000
  C   C970      1.0  0.62810  0.38027  0.92201  1.0000
  H   H1665     1.0  0.58576  0.47921  0.99291  1.0000
  H   H1666     1.0  0.62351  0.38788  0.97240  1.0000
  H   H1667     1.0  0.61868  0.37464  0.92799  1.0000
  C   C971      1.0  0.54714  0.39865  0.95111  1.0000
  C   C972      1.0  0.54759  0.38626  0.94944  1.0000
  C   C973      1.0  0.55895  0.38367  0.93172  1.0000
  C   C974      1.0  0.56993  0.39349  0.91538  1.0000
  C   C975      1.0  0.56948  0.40583  0.91723  1.0000
  C   C976      1.0  0.55818  0.40839  0.93516  1.0000
  H   H1668     1.0  0.53910  0.37866  0.96186  1.0000
  H   H1669     1.0  0.55918  0.37411  0.93060  1.0000
  H   H1670     1.0  0.57791  0.41350  0.90459  1.0000
  H   H1671     1.0  0.55800  0.41795  0.93640  1.0000
  H   H1672     1.0  0.51601  0.35953  0.43835  1.0000
  C   C977      1.0  0.58215  0.45110  0.97490  1.0000
  C   C978      1.0  0.59393  0.45889  0.97023  1.0000
  C   C979      1.0  0.60037  0.45619  0.99918  1.0000
  C   C980      1.0  0.59505  0.44568  0.03271  1.0000
  C   C981      1.0  0.58369  0.43740  0.03596  1.0000
  C   C982      1.0  0.57726  0.44012  0.00704  1.0000
  H   H1673     1.0  0.59794  0.46722  0.94482  1.0000
  H   H1674     1.0  0.60948  0.46221  0.99536  1.0000
  H   H1675     1.0  0.57973  0.42904  0.06124  1.0000
  H   H1676     1.0  0.56856  0.43369  0.00969  1.0000
  C   C983      1.0  0.61945  0.25759  0.22559  1.0000
  C   C984      1.0  0.49371  0.45869  0.06991  1.0000
  H   H1677     1.0  0.51105  0.48047  0.86293  1.0000
  C   C985      1.0  0.63528  0.31496  0.90843  1.0000
  C   C986      1.0  0.52247  0.42192  0.20879  1.0000
  C   C987      1.0  0.52431  0.41684  0.17587  1.0000
  C   C988      1.0  0.52389  0.42376  0.13822  1.0000
  C   C989      1.0  0.52142  0.43573  0.13350  1.0000
  C   C990      1.0  0.51927  0.44068  0.16664  1.0000
  C   C991      1.0  0.51985  0.43382  0.20415  1.0000
  H   H1678     1.0  0.52631  0.40762  0.17928  1.0000
  H   H1679     1.0  0.52550  0.41985  0.11288  1.0000
  H   H1680     1.0  0.53583  0.45837  0.42728  1.0000
  C   C992      1.0  0.62003  0.42538  0.00884  1.0000
  C   C993      1.0  0.58085  0.44667  0.40751  1.0000
  C   C994      1.0  0.57004  0.43810  0.40789  1.0000
  C   C995      1.0  0.56439  0.44077  0.37674  1.0000
  C   C996      1.0  0.56929  0.45217  0.34595  1.0000
  C   C997      1.0  0.58040  0.46039  0.34495  1.0000
  C   C998      1.0  0.58619  0.45755  0.37541  1.0000
  H   H1681     1.0  0.56596  0.42950  0.43231  1.0000
  H   H1682     1.0  0.55622  0.43398  0.37688  1.0000
  H   H1683     1.0  0.58452  0.46905  0.32120  1.0000
  H   H1684     1.0  0.59482  0.46385  0.37412  1.0000
  C   C999      1.0  0.60806  0.31968  0.45134  1.0000
  C   C1000     1.0  0.59985  0.32103  0.42749  1.0000
  C   C1001     1.0  0.59651  0.31163  0.40845  1.0000
  C   C1002     1.0  0.60124  0.30078  0.41335  1.0000
  C   C1003     1.0  0.60912  0.29926  0.43831  1.0000
  C   C1004     1.0  0.61256  0.30871  0.45700  1.0000
  H   H1685     1.0  0.59630  0.32942  0.42294  1.0000
  H   H1686     1.0  0.59036  0.31285  0.38932  1.0000
  H   H1687     1.0  0.61272  0.29089  0.44263  1.0000
  H   H1688     1.0  0.61885  0.30757  0.47558  1.0000
  C   C1005     1.0  0.58537  0.35393  0.64783  1.0000
  C   C1006     1.0  0.58029  0.34831  0.68930  1.0000
  C   C1007     1.0  0.58533  0.35334  0.71694  1.0000
  C   C1008     1.0  0.59544  0.36411  0.70316  1.0000
  C   C1009     1.0  0.60059  0.36964  0.66172  1.0000
  C   C1010     1.0  0.59563  0.36454  0.63414  1.0000
  H   H1689     1.0  0.57234  0.34010  0.70007  1.0000
  H   H1690     1.0  0.58125  0.34906  0.74880  1.0000
  H   H1691     1.0  0.60838  0.37800  0.65083  1.0000
  H   H1692     1.0  0.59962  0.36895  0.60230  1.0000
  C   C1011     1.0  0.56724  0.38247  0.42071  1.0000
  C   C1012     1.0  0.56536  0.39043  0.38718  1.0000
  C   C1013     1.0  0.55576  0.39681  0.39161  1.0000
  C   C1014     1.0  0.54749  0.39474  0.42941  1.0000
  C   C1015     1.0  0.54941  0.38682  0.46297  1.0000
  C   C1016     1.0  0.55937  0.38087  0.45877  1.0000
  H   H1693     1.0  0.57138  0.39168  0.35763  1.0000
  H   H1694     1.0  0.55456  0.40305  0.36563  1.0000
  H   H1695     1.0  0.54308  0.38517  0.49235  1.0000
  H   H1696     1.0  0.56071  0.37472  0.48479  1.0000
  C   C1017     1.0  0.63631  0.39177  0.50557  1.0000
  C   C1018     1.0  0.61815  0.41693  0.98066  1.0000
  H   H1697     1.0  0.54668  0.44975  0.43882  1.0000
  C   C1019     1.0  0.64066  0.38142  0.56675  1.0000
  C   C1020     1.0  0.63297  0.38183  0.54081  1.0000
  C   C1021     1.0  0.50415  0.47770  0.10723  1.0000
  C   C1022     1.0  0.51107  0.47549  0.41062  1.0000
  H   H1698     1.0  0.62443  0.37451  0.54832  1.0000
  C   C1023     1.0  0.61976  0.47620  0.24028  1.0000
  H   H1699     1.0  0.51893  0.35135  0.31451  1.0000
  H   H1700     1.0  0.59683  0.28445  0.59259  1.0000
  H   H1701     1.0  0.59135  0.28570  0.66097  1.0000
  H   H1702     1.0  0.61159  0.43964  0.48339  1.0000
  H   H1703     1.0  0.51825  0.43773  0.22946  1.0000
  H   H1704     1.0  0.63282  0.42003  0.45909  1.0000
  H   H1705     1.0  0.62427  0.39918  0.75484  1.0000
  H   H1706     1.0  0.59093  0.25377  0.94428  1.0000
  S   S314      1.0  0.61861  0.47095  0.42134  1.0000
  H   H1707     1.0  0.59010  0.31266  0.52548  1.0000
  Fe  Fe158     1.0  0.61779  0.47789  0.47620  1.0000
  H   H1708     1.0  0.62477  0.43387  0.90452  1.0000
  H   H1709     1.0  0.61318  0.40098  0.32993  1.0000
  H   H1710     1.0  0.57531  0.30320  0.64034  1.0000
  H   H1711     1.0  0.63782  0.29607  0.93113  1.0000
  H   H1712     1.0  0.64080  0.39343  0.79098  1.0000
  H   H1713     1.0  0.60780  0.33524  0.94261  1.0000
  H   H1714     1.0  0.59284  0.26144  0.19966  1.0000
  C   C1024     1.0  0.56056  0.45422  0.49642  1.0000
  H   H1715     1.0  0.61399  0.40187  0.89051  1.0000
  C   C1025     1.0  0.53408  0.38340  0.35008  1.0000
  H   H1716     1.0  0.63243  0.41137  0.77128  1.0000
  N   N71       1.0  0.50233  0.47119  0.04283  1.0000
  H   H1717     1.0  0.58130  0.48357  0.27189  1.0000
  C   C1026     1.0  0.49112  0.47501  0.89110  1.0000
  C   C1027     1.0  0.50061  0.47716  0.43689  1.0000
  H   H1718     1.0  0.64152  0.42470  0.51178  1.0000
  H   H1719     1.0  0.55474  0.25311  0.89365  1.0000
  C   C1028     1.0  0.65152  0.39115  0.55808  1.0000
  H   H1720     1.0  0.59648  0.47580  0.20276  1.0000
  C   C1029     1.0  0.60362  0.30545  0.57366  1.0000
  H   H1721     1.0  0.60100  0.29155  0.53898  1.0000
  C   C1030     1.0  0.56468  0.45757  0.07783  1.0000
  H   H1722     1.0  0.58011  0.38106  0.71226  1.0000
  C   C1031     1.0  0.51343  0.37651  0.39846  1.0000
  H   H1723     1.0  0.58530  0.44076  0.15055  1.0000
  H   H1724     1.0  0.53566  0.47791  0.43658  1.0000
  C   C1032     1.0  0.64729  0.33851  0.51579  1.0000
  H   H1725     1.0  0.58623  0.41138  0.36088  1.0000
  H   H1726     1.0  0.57508  0.40633  0.02917  1.0000
  N   N72       1.0  0.52054  0.37660  0.35702  1.0000
  H   H1727     1.0  0.64263  0.40516  0.64374  1.0000
  H   H1728     1.0  0.64551  0.27991  0.01369  1.0000
  H   H1729     1.0  0.55674  0.39789  0.75077  1.0000
  H   H1730     1.0  0.63087  0.37392  0.78051  1.0000
  C   C1033     1.0  0.56497  0.41317  0.77138  1.0000
  C   C1034     1.0  0.59982  0.32575  0.61761  1.0000
  H   H1731     1.0  0.60118  0.33616  0.61300  1.0000
  H   H1732     1.0  0.60929  0.32402  0.61262  1.0000
  H   H1733     1.0  0.59417  0.32129  0.64918  1.0000
  Fe  Fe159     1.0  0.60541  0.48730  0.08641  1.0000
  H   H1734     1.0  0.57220  0.49020  0.87344  1.0000
  N   N73       1.0  0.64536  0.31417  0.35265  1.0000
  C   C1035     1.0  0.64244  0.35776  0.48138  1.0000
  H   H1735     1.0  0.54442  0.46073  0.52230  1.0000
  H   H1736     1.0  0.64565  0.34611  0.84577  1.0000
  C   C1036     1.0  0.57227  0.48495  0.96222  1.0000
  H   H1737     1.0  0.62335  0.42778  0.58549  1.0000
  C   C1037     1.0  0.49494  0.48064  0.03122  1.0000
  S   S315      1.0  0.61444  0.48065  0.03478  1.0000
  H   H1738     1.0  0.49604  0.44469  0.03579  1.0000
  H   H1739     1.0  0.60676  0.41113  0.47533  1.0000
  H   H1740     1.0  0.55706  0.48582  0.21939  1.0000
  H   H1741     1.0  0.64981  0.40925  0.46991  1.0000
  H   H1742     1.0  0.56688  0.30684  0.53914  1.0000
  H   H1743     1.0  0.61860  0.40725  0.99619  1.0000
  H   H1744     1.0  0.63458  0.25263  0.18859  1.0000
  C   C1038     1.0  0.63813  0.33842  0.84411  1.0000
  C   C1039     1.0  0.64461  0.32950  0.96644  1.0000
  H   H1745     1.0  0.62137  0.30871  0.30564  1.0000
  H   H1746     1.0  0.52444  0.35831  0.37579  1.0000
  H   H1747     1.0  0.55216  0.39243  0.30626  1.0000
  H   H1748     1.0  0.54084  0.46290  0.20548  1.0000
  H   H1749     1.0  0.62522  0.44602  0.32124  1.0000
  H   H1750     1.0  0.60422  0.42462  0.25620  1.0000
  C   C1040     1.0  0.64985  0.38711  0.88285  1.0000
  H   H1751     1.0  0.62837  0.41372  0.57864  1.0000
  H   H1752     1.0  0.63733  0.30776  0.41673  1.0000
  H   H1753     1.0  0.61503  0.47301  0.34037  1.0000
  H   H1754     1.0  0.58930  0.40381  0.42837  1.0000
  N   N74       1.0  0.63064  0.32596  0.91938  1.0000
  H   H1755     1.0  0.53987  0.49548  0.46552  1.0000
  C   C1041     1.0  0.61879  0.32108  0.95367  1.0000
  C   C1042     1.0  0.51066  0.46900  0.00690  1.0000
  C   C1043     1.0  0.64606  0.46172  0.54484  1.0000
  H   H1756     1.0  0.55629  0.48488  0.87318  1.0000
  C   C1044     1.0  0.61219  0.33112  0.96565  1.0000
  C   C1045     1.0  0.63254  0.30259  0.94238  1.0000
  H   H1757     1.0  0.62526  0.36087  0.73390  1.0000
  H   H1758     1.0  0.63966  0.32729  0.43397  1.0000
  C   C1046     1.0  0.65318  0.28513  0.98743  1.0000
  H   H1759     1.0  0.62043  0.31563  0.98129  1.0000
  H   H1760     1.0  0.61179  0.31421  0.94629  1.0000
  C   C1047     1.0  0.51077  0.47658  0.06571  1.0000
  H   H1761     1.0  0.51287  0.37163  0.46156  1.0000
  Fe  Fe160     1.0  0.60772  0.25331  0.06265  1.0000
  H   H1762     1.0  0.65218  0.40566  0.75163  1.0000
  H   H1763     1.0  0.59012  0.42144  0.29507  1.0000
  S   S316      1.0  0.59941  0.25680  0.36178  1.0000
  H   H1764     1.0  0.61954  0.40777  0.52289  1.0000
  C   C1048     1.0  0.60789  0.25631  0.16294  1.0000
  H   H1765     1.0  0.60437  0.32640  0.99336  1.0000
  H   H1766     1.0  0.61853  0.33875  0.97221  1.0000
  H   H1767     1.0  0.64587  0.46693  0.01130  1.0000
  H   H1768     1.0  0.61754  0.42961  0.29657  1.0000
  H   H1769     1.0  0.63577  0.30437  0.29324  1.0000
  H   H1770     1.0  0.64385  0.43937  0.40545  1.0000
  C   C1049     1.0  0.59277  0.32172  0.58832  1.0000
  H   H1771     1.0  0.58361  0.32408  0.59694  1.0000
  H   H1772     1.0  0.56226  0.47541  0.90778  1.0000
  C   C1050     1.0  0.63922  0.39637  0.66901  1.0000
  H   H1773     1.0  0.49464  0.37834  0.35831  1.0000
  H   H1774     1.0  0.65540  0.38958  0.67431  1.0000
  H   H1775     1.0  0.54548  0.39022  0.81867  1.0000
  C   C1051     1.0  0.54751  0.45676  0.20487  1.0000
  H   H1776     1.0  0.60935  0.30659  0.59463  1.0000
  H   H1777     1.0  0.60929  0.31256  0.54499  1.0000
  H   H1778     1.0  0.50107  0.49043  0.01693  1.0000
  C   C1052     1.0  0.58590  0.41245  0.41982  1.0000
  H   H1779     1.0  0.58556  0.42637  0.36705  1.0000
  H   H1780     1.0  0.58853  0.41908  0.43718  1.0000
  C   C1053     1.0  0.55543  0.45920  0.16131  1.0000
  H   H1781     1.0  0.56196  0.46884  0.15277  1.0000
  H   H1782     1.0  0.54881  0.46000  0.14246  1.0000
  N   N75       1.0  0.59096  0.30808  0.58719  1.0000
  H   H1783     1.0  0.60668  0.43194  0.40443  1.0000
  H   H1784     1.0  0.60294  0.44194  0.36500  1.0000
  C   C1054     1.0  0.50571  0.46256  0.90836  1.0000
  C   C1055     1.0  0.61975  0.25396  0.15992  1.0000
  C   C1056     1.0  0.58976  0.29529  0.65944  1.0000
  H   H1785     1.0  0.54902  0.43210  0.19106  1.0000
  H   H1786     1.0  0.58349  0.29443  0.68931  1.0000
  C   C1057     1.0  0.57126  0.30955  0.56203  1.0000
  H   H1787     1.0  0.59905  0.49452  0.16180  1.0000
  C   C1058     1.0  0.64970  0.39502  0.69011  1.0000
  H   H1788     1.0  0.61109  0.41215  0.40031  1.0000
  H   H1789     1.0  0.62404  0.45038  0.36678  1.0000
  H   H1790     1.0  0.55183  0.46992  0.37266  1.0000
  H   H1791     1.0  0.56394  0.44419  0.21455  1.0000
  H   H1792     1.0  0.54544  0.43915  0.14656  1.0000
  C   C1059     1.0  0.58424  0.30656  0.55562  1.0000
  C   C1060     1.0  0.58298  0.29914  0.62705  1.0000
  C   C1061     1.0  0.61650  0.47036  0.28157  1.0000
  C   C1062     1.0  0.60846  0.43485  0.37135  1.0000
  C   C1063     1.0  0.59034  0.41865  0.37409  1.0000
  H   H1793     1.0  0.57549  0.40938  0.42935  1.0000
  N   N76       1.0  0.60433  0.42365  0.35590  1.0000
  C   C1064     1.0  0.55331  0.43712  0.15866  1.0000
  C   C1065     1.0  0.60339  0.29220  0.56716  1.0000
  H   H1794     1.0  0.58258  0.29666  0.55318  1.0000
  H   H1795     1.0  0.56478  0.30412  0.59182  1.0000
  C   C1066     1.0  0.56985  0.37943  0.72379  1.0000
  C   C1067     1.0  0.61139  0.41394  0.36801  1.0000
  Fe  Fe161     1.0  0.59402  0.48727  0.47267  1.0000
  H   H1796     1.0  0.63096  0.31186  0.88577  1.0000
  N   N77       1.0  0.56258  0.44944  0.15343  1.0000
  H   H1797     1.0  0.56078  0.46596  0.07801  1.0000
  H   H1798     1.0  0.57823  0.29007  0.62255  1.0000
  H   H1799     1.0  0.62663  0.30207  0.36758  1.0000
  H   H1800     1.0  0.62665  0.42031  0.95487  1.0000
  C   C1068     1.0  0.50117  0.37801  0.33048  1.0000
  H   H1801     1.0  0.57615  0.45716  0.18145  1.0000
  S   S317      1.0  0.62906  0.46584  0.09560  1.0000
  H   H1802     1.0  0.52794  0.48425  0.99141  1.0000
  C   C1069     1.0  0.60741  0.42849  0.31074  1.0000
  H   H1803     1.0  0.60579  0.43814  0.30180  1.0000
  H   H1804     1.0  0.62157  0.41765  0.35226  1.0000
  Fe  Fe162     1.0  0.62900  0.26389  0.39992  1.0000
  H   H1805     1.0  0.57941  0.26191  0.98482  1.0000
  H   H1806     1.0  0.60911  0.39348  0.38305  1.0000
  C   C1070     1.0  0.62243  0.44212  0.35429  1.0000
  H   H1807     1.0  0.63034  0.39708  0.68784  1.0000
  C   C1071     1.0  0.53027  0.44673  0.48785  1.0000
  C   C1072     1.0  0.60753  0.40098  0.35973  1.0000
  C   C1073     1.0  0.49566  0.45334  0.93697  1.0000
  H   H1808     1.0  0.62871  0.43620  0.36320  1.0000
  C   C1074     1.0  0.64912  0.27980  0.44838  1.0000
  H   H1809     1.0  0.55486  0.42747  0.11088  1.0000
  H   H1810     1.0  0.62445  0.34184  0.88949  1.0000
  C   C1075     1.0  0.52440  0.36069  0.31488  1.0000
  C   C1076     1.0  0.64140  0.32814  0.40141  1.0000
  H   H1811     1.0  0.60492  0.43053  0.56599  1.0000
  H   H1812     1.0  0.63719  0.36103  0.50585  1.0000
  H   H1813     1.0  0.57779  0.46396  0.10881  1.0000
  H   H1814     1.0  0.56656  0.38664  0.70472  1.0000
  H   H1815     1.0  0.64002  0.33668  0.32339  1.0000
  C   C1077     1.0  0.65578  0.38298  0.74640  1.0000
  H   H1816     1.0  0.56620  0.48085  0.42731  1.0000
  H   H1817     1.0  0.63774  0.37239  0.44003  1.0000
  H   H1818     1.0  0.63534  0.35028  0.47648  1.0000
  H   H1819     1.0  0.57069  0.45918  0.48451  1.0000
  C   C1078     1.0  0.57121  0.45484  0.11141  1.0000
  H   H1820     1.0  0.55521  0.37583  0.77706  1.0000
  H   H1821     1.0  0.56567  0.37008  0.71999  1.0000
  H   H1822     1.0  0.59748  0.39791  0.36181  1.0000
  H   H1823     1.0  0.56775  0.38085  0.84109  1.0000
  C   C1079     1.0  0.56562  0.37890  0.76866  1.0000
  H   H1824     1.0  0.51728  0.44990  0.16321  1.0000
  C   C1080     1.0  0.56263  0.48538  0.89288  1.0000
  C   C1081     1.0  0.64304  0.39514  0.93994  1.0000
  H   H1825     1.0  0.58676  0.38554  0.78817  1.0000
  H   H1826     1.0  0.56844  0.42876  0.12985  1.0000
  Fe  Fe163     1.0  0.61095  0.46185  0.07964  1.0000
  H   H1827     1.0  0.50946  0.35725  0.36905  1.0000
  H   H1828     1.0  0.51947  0.48318  0.39792  1.0000
  H   H1829     1.0  0.64463  0.33295  0.49519  1.0000
  H   H1830     1.0  0.61393  0.42072  0.03981  1.0000
  C   C1082     1.0  0.63438  0.42959  0.52360  1.0000
  H   H1831     1.0  0.54622  0.37432  0.84200  1.0000
  C   C1083     1.0  0.54988  0.38458  0.83857  1.0000
  C   C1084     1.0  0.56436  0.38849  0.82397  1.0000
  N   N78       1.0  0.57001  0.39102  0.77948  1.0000
  N   N79       1.0  0.62385  0.42825  0.50390  1.0000
  H   H1832     1.0  0.57271  0.40527  0.72391  1.0000
  H   H1833     1.0  0.58054  0.41663  0.97945  1.0000
  Fe  Fe164     1.0  0.61372  0.48910  0.39547  1.0000
  C   C1085     1.0  0.51935  0.36302  0.35587  1.0000
  H   H1834     1.0  0.62112  0.44567  0.92959  1.0000
  H   H1835     1.0  0.59800  0.42780  0.92875  1.0000
  H   H1836     1.0  0.56500  0.47590  0.97859  1.0000
  H   H1837     1.0  0.50522  0.46484  0.98867  1.0000
  H   H1838     1.0  0.63530  0.30409  0.96916  1.0000
  C   C1086     1.0  0.56927  0.25731  0.99321  1.0000
  H   H1839     1.0  0.54675  0.38604  0.86868  1.0000
  H   H1840     1.0  0.64094  0.46114  0.57499  1.0000
  C   C1087     1.0  0.58409  0.39369  0.77072  1.0000
  H   H1841     1.0  0.58858  0.39468  0.73875  1.0000
  C   C1088     1.0  0.58212  0.40837  0.99977  1.0000
  H   H1842     1.0  0.58006  0.39985  0.98883  1.0000
  H   H1843     1.0  0.55258  0.48553  0.38040  1.0000
  H   H1844     1.0  0.49860  0.38377  0.30520  1.0000
  H   H1845     1.0  0.62511  0.41108  0.90781  1.0000
  H   H1846     1.0  0.56448  0.26440  0.98072  1.0000
  S   S318      1.0  0.65110  0.26281  0.96561  1.0000
  H   H1847     1.0  0.63792  0.34371  0.93136  1.0000
  C   C1089     1.0  0.55246  0.46393  0.49474  1.0000
  H   H1848     1.0  0.56745  0.39676  0.83486  1.0000
  C   C1090     1.0  0.56613  0.40163  0.75467  1.0000
  H   H1849     1.0  0.60096  0.40593  0.77393  1.0000
  H   H1850     1.0  0.51558  0.39365  0.33082  1.0000
  C   C1091     1.0  0.59086  0.40578  0.77880  1.0000
  H   H1851     1.0  0.59040  0.41445  0.75741  1.0000
  H   H1852     1.0  0.60015  0.41054  0.29668  1.0000
  H   H1853     1.0  0.62226  0.42875  0.44395  1.0000
  H   H1854     1.0  0.52473  0.43912  0.47865  1.0000
  H   H1855     1.0  0.55451  0.49486  0.43548  1.0000
  H   H1856     1.0  0.61341  0.46016  0.29258  1.0000
  H   H1857     1.0  0.63778  0.44934  0.43329  1.0000
  C   C1092     1.0  0.54020  0.47642  0.46138  1.0000
  C   C1093     1.0  0.55819  0.42749  0.13798  1.0000
  H   H1858     1.0  0.57175  0.45987  0.04837  1.0000
  H   H1859     1.0  0.57290  0.42856  0.18961  1.0000
  H   H1860     1.0  0.55398  0.41776  0.15848  1.0000
  Fe  Fe165     1.0  0.61912  0.47381  0.14256  1.0000
  H   H1861     1.0  0.49873  0.46835  0.12829  1.0000
  H   H1862     1.0  0.55501  0.41244  0.78628  1.0000
  H   H1863     1.0  0.57071  0.41489  0.79190  1.0000
  C   C1094     1.0  0.57857  0.43852  0.18045  1.0000
  H   H1864     1.0  0.58740  0.40609  0.81008  1.0000
  H   H1865     1.0  0.59547  0.41760  0.02481  1.0000
  Fe  Fe166     1.0  0.59784  0.46352  0.44693  1.0000
  H   H1866     1.0  0.54202  0.38221  0.28838  1.0000
  H   H1867     1.0  0.56795  0.42192  0.74591  1.0000
  H   H1868     1.0  0.59634  0.40193  0.02426  1.0000
  C   C1095     1.0  0.59542  0.41098  0.00566  1.0000
  C   C1096     1.0  0.51801  0.36995  0.43353  1.0000
  H   H1869     1.0  0.61493  0.44355  0.88946  1.0000
  C   C1097     1.0  0.61730  0.43829  0.91600  1.0000
  H   H1870     1.0  0.64559  0.31787  0.89397  1.0000
  H   H1871     1.0  0.52330  0.36759  0.28922  1.0000
  H   H1872     1.0  0.51571  0.46179  0.01698  1.0000
  C   C1098     1.0  0.55977  0.47289  0.42212  1.0000
  H   H1873     1.0  0.56024  0.26955  0.88993  1.0000
  N   N80       1.0  0.54827  0.46720  0.45726  1.0000
  H   H1874     1.0  0.64000  0.36062  0.74394  1.0000
  H   H1875     1.0  0.57738  0.44869  0.10340  1.0000
  H   H1876     1.0  0.58430  0.43919  0.20188  1.0000
  H   H1877     1.0  0.59635  0.40601  0.93445  1.0000
  C   C1099     1.0  0.64185  0.29389  0.48646  1.0000
  H   H1878     1.0  0.60163  0.43417  0.96730  1.0000
  H   H1879     1.0  0.51631  0.48849  0.96679  1.0000
  H   H1880     1.0  0.53456  0.39159  0.36321  1.0000
  N   N81       1.0  0.64556  0.38867  0.73471  1.0000
  H   H1881     1.0  0.64219  0.33086  0.83510  1.0000
  H   H1882     1.0  0.57788  0.26660  0.91491  1.0000
  C   C1100     1.0  0.58896  0.48638  0.24376  1.0000
  C   C1101     1.0  0.60515  0.42901  0.94560  1.0000
  N   N82       1.0  0.60622  0.41624  0.96792  1.0000
  H   H1883     1.0  0.60489  0.39724  0.96135  1.0000
  C   C1102     1.0  0.60523  0.40691  0.94328  1.0000
  S   S319      1.0  0.57720  0.49226  0.50815  1.0000
  C   C1103     1.0  0.51495  0.38389  0.32754  1.0000
  H   H1884     1.0  0.51367  0.38640  0.40029  1.0000
  H   H1885     1.0  0.63037  0.28230  0.46003  1.0000
  H   H1886     1.0  0.56647  0.48144  0.35779  1.0000
  H   H1887     1.0  0.53906  0.37707  0.36566  1.0000
  H   H1888     1.0  0.61502  0.41838  0.88145  1.0000
  C   C1104     1.0  0.61557  0.40997  0.90371  1.0000
  S   S320      1.0  0.60224  0.44309  0.07143  1.0000
  H   H1889     1.0  0.62987  0.42689  0.01071  1.0000
  H   H1890     1.0  0.50335  0.37160  0.40561  1.0000
  H   H1891     1.0  0.61835  0.43485  0.99816  1.0000
  H   H1892     1.0  0.64950  0.33794  0.90362  1.0000
  S   S321      1.0  0.62874  0.47357  0.52153  1.0000
  C   C1105     1.0  0.62745  0.33335  0.88364  1.0000
  S   S322      1.0  0.61834  0.25223  0.95212  1.0000
  C   C1106     1.0  0.63092  0.42427  0.56956  1.0000
  C   C1107     1.0  0.61460  0.41548  0.52362  1.0000
  C   C1108     1.0  0.59997  0.42064  0.28909  1.0000
  H   H1893     1.0  0.49861  0.45366  0.08985  1.0000
  S   S323      1.0  0.59723  0.46887  0.50372  1.0000
  H   H1894     1.0  0.62244  0.29754  0.95157  1.0000
  C   C1109     1.0  0.61019  0.43983  0.54487  1.0000
  H   H1895     1.0  0.63554  0.32089  0.28280  1.0000
  S   S324      1.0  0.59289  0.48111  0.41775  1.0000
  H   H1896     1.0  0.63691  0.41215  0.71946  1.0000
  C   C1110     1.0  0.60358  0.41259  0.50538  1.0000
  H   H1897     1.0  0.51141  0.48162  0.12082  1.0000
  H   H1898     1.0  0.55045  0.48918  0.48962  1.0000
  C   C1111     1.0  0.55732  0.47770  0.38119  1.0000
  C   C1112     1.0  0.61720  0.47764  0.30881  1.0000
  C   C1113     1.0  0.65254  0.39486  0.90754  1.0000
  H   H1899     1.0  0.62575  0.38133  0.74080  1.0000
  C   C1114     1.0  0.63362  0.40547  0.75003  1.0000
  H   H1900     1.0  0.61936  0.32744  0.87756  1.0000
  H   H1901     1.0  0.51756  0.47073  0.07052  1.0000
  C   C1115     1.0  0.52055  0.48077  0.97778  1.0000
  H   H1902     1.0  0.64885  0.36525  0.41562  1.0000
  C   C1116     1.0  0.58834  0.47450  0.22846  1.0000
  H   H1903     1.0  0.53427  0.44194  0.51096  1.0000
  H   H1904     1.0  0.59772  0.48821  0.25326  1.0000
  H   H1905     1.0  0.51857  0.46294  0.37888  1.0000
  H   H1906     1.0  0.54856  0.48595  0.94251  1.0000
  H   H1907     1.0  0.63771  0.33972  0.57573  1.0000
  C   C1117     1.0  0.63954  0.28505  0.46452  1.0000
  H   H1908     1.0  0.51653  0.48632  0.04834  1.0000
  C   C1118     1.0  0.64072  0.33483  0.92867  1.0000
  C   C1119     1.0  0.63145  0.31142  0.30464  1.0000
  C   C1120     1.0  0.50335  0.47333  0.88526  1.0000
  S   S325      1.0  0.64621  0.40462  0.97158  1.0000
  H   H1909     1.0  0.63440  0.29790  0.49879  1.0000
  C   C1121     1.0  0.64344  0.39815  0.75814  1.0000
  S   S326      1.0  0.59974  0.25453  0.12633  1.0000
  C   C1122     1.0  0.49954  0.45427  0.41489  1.0000
  H   H1910     1.0  0.62759  0.33846  0.54300  1.0000
  H   H1911     1.0  0.56537  0.46581  0.41865  1.0000
  H   H1912     1.0  0.64951  0.29966  0.32354  1.0000
  H   H1913     1.0  0.59868  0.25763  0.87523  1.0000
  H   H1914     1.0  0.49095  0.47435  0.97956  1.0000
  C   C1123     1.0  0.64451  0.31588  0.39394  1.0000
  H   H1915     1.0  0.52810  0.37385  0.42976  1.0000
  H   H1916     1.0  0.62696  0.31816  0.35666  1.0000
  H   H1917     1.0  0.49735  0.44494  0.95461  1.0000
  H   H1918     1.0  0.62442  0.25147  0.13387  1.0000
  H   H1919     1.0  0.64589  0.47278  0.44801  1.0000
  H   H1920     1.0  0.55830  0.47254  0.49848  1.0000
  H   H1921     1.0  0.57944  0.47163  0.22090  1.0000
  H   H1922     1.0  0.62487  0.44836  0.49115  1.0000
  C   C1124     1.0  0.60768  0.26014  0.22835  1.0000
  C   C1125     1.0  0.63232  0.31149  0.34726  1.0000
  S   S327      1.0  0.64687  0.26916  0.41874  1.0000
  C   C1126     1.0  0.63484  0.36682  0.72896  1.0000
  H   H1923     1.0  0.59830  0.42002  0.50394  1.0000
  H   H1924     1.0  0.52361  0.45178  0.50109  1.0000
  C   C1127     1.0  0.62374  0.48946  0.22632  1.0000
  C   C1128     1.0  0.62089  0.49087  0.29521  1.0000
  C   C1129     1.0  0.64053  0.44023  0.43626  1.0000
  H   H1925     1.0  0.63732  0.38858  0.65479  1.0000
  H   H1926     1.0  0.57786  0.48281  0.93590  1.0000
  H   H1927     1.0  0.49967  0.36818  0.32773  1.0000
  H   H1928     1.0  0.61639  0.44516  0.55906  1.0000
  H   H1929     1.0  0.63673  0.32670  0.99411  1.0000
  C   C1130     1.0  0.63562  0.33548  0.55187  1.0000
  S   S328      1.0  0.50125  0.49194  0.44765  1.0000
  H   H1930     1.0  0.53442  0.36047  0.30966  1.0000
  S   S329      1.0  0.62679  0.25741  0.26493  1.0000
  H   H1931     1.0  0.61040  0.41409  0.55595  1.0000
  Fe  Fe167     1.0  0.63009  0.25702  0.99236  1.0000
  H   H1932     1.0  0.57619  0.48730  0.01886  1.0000
  H   H1933     1.0  0.60296  0.26253  0.25455  1.0000
  H   H1934     1.0  0.53226  0.47246  0.48916  1.0000
  H   H1935     1.0  0.55849  0.44724  0.47964  1.0000
  N   N83       1.0  0.56611  0.49552  0.95017  1.0000
  H   H1936     1.0  0.59689  0.40353  0.52466  1.0000
  H   H1937     1.0  0.57749  0.25879  0.87720  1.0000
  C   C1131     1.0  0.51057  0.46406  0.39979  1.0000
  C   C1132     1.0  0.64713  0.40154  0.49713  1.0000
  H   H1938     1.0  0.64869  0.44062  0.44883  1.0000
  H   H1939     1.0  0.55876  0.44859  0.52796  1.0000
  C   C1133     1.0  0.61770  0.43912  0.50398  1.0000
  H   H1940     1.0  0.63938  0.37002  0.69625  1.0000
  C   C1134     1.0  0.64880  0.46825  0.47334  1.0000
  H   H1941     1.0  0.52526  0.47815  0.95106  1.0000
  C   C1135     1.0  0.60198  0.25953  0.19714  1.0000
  C   C1136     1.0  0.54682  0.48966  0.46300  1.0000
  Fe  Fe168     1.0  0.63205  0.48509  0.05399  1.0000
  C   C1137     1.0  0.54225  0.38909  0.30630  1.0000
  H   H1942     1.0  0.60287  0.44491  0.54020  1.0000
  C   C1138     1.0  0.58120  0.48718  0.98848  1.0000
  C   C1139     1.0  0.64208  0.46746  0.51223  1.0000
  S   S330      1.0  0.60073  0.46804  0.12993  1.0000
  H   H1943     1.0  0.52028  0.38540  0.29602  1.0000
  S   S331      1.0  0.62343  0.49363  0.10227  1.0000
  C   C1140     1.0  0.64608  0.36869  0.44241  1.0000
  C   C1141     1.0  0.55936  0.25977  0.90807  1.0000
  S   S332      1.0  0.65080  0.49416  0.00823  1.0000
  S   S333      1.0  0.49800  0.44028  0.39907  1.0000
  H   H1944     1.0  0.57724  0.48971  0.18006  1.0000
  H   H1945     1.0  0.56385  0.48391  0.25917  1.0000
  H   H1946     1.0  0.63253  0.32503  0.56526  1.0000
  C   C1142     1.0  0.57258  0.25813  0.90864  1.0000
  H   H1947     1.0  0.58876  0.46644  0.25249  1.0000
  H   H1948     1.0  0.53955  0.39756  0.29120  1.0000
  C   C1143     1.0  0.64996  0.30234  0.35148  1.0000
  H   H1949     1.0  0.55108  0.48725  0.00534  1.0000
  H   H1950     1.0  0.56577  0.25493  0.02639  1.0000
  C   C1144     1.0  0.56390  0.49101  0.23199  1.0000
  C   C1145     1.0  0.65464  0.40133  0.52361  1.0000
  C   C1146     1.0  0.55778  0.49660  0.98818  1.0000
  H   H1951     1.0  0.64374  0.29407  0.37637  1.0000
  C   C1147     1.0  0.65406  0.47215  0.98672  1.0000
  H   H1952     1.0  0.58887  0.49595  0.97405  1.0000
  H   H1953     1.0  0.65020  0.35918  0.54650  1.0000
  C   C1148     1.0  0.57673  0.49606  0.20014  1.0000
  H   H1954     1.0  0.49803  0.48434  0.10505  1.0000
  C   C1149     1.0  0.65372  0.29756  0.49258  1.0000
  H   H1955     1.0  0.64888  0.32150  0.96368  1.0000
  H   H1956     1.0  0.62661  0.49403  0.19445  1.0000
  C   C1150     1.0  0.55785  0.49228  0.92391  1.0000
  C   C1151     1.0  0.64997  0.33752  0.30877  1.0000
  H   H1957     1.0  0.64943  0.33650  0.38582  1.0000
  N   N84       1.0  0.65282  0.35238  0.49344  1.0000
  H   H1958     1.0  0.65427  0.33428  0.52797  1.0000
  H   H1959     1.0  0.65360  0.37679  0.44125  1.0000
  H   H1960     1.0  0.65123  0.34045  0.27590  1.0000
  H   H1961     1.0  0.65342  0.31576  0.40202  1.0000
  S   S334      1.0  0.58791  0.49494  0.09329  1.0000
  C   C1152     1.0  0.62422  0.49678  0.25379  1.0000
  H   H1962     1.0  0.65575  0.34548  0.31586  1.0000
  C   C1153     1.0  0.65446  0.32528  0.32038  1.0000
  H   H1963     1.0  0.65508  0.44359  0.81901  1.0000
  S   S335      1.0  0.61465  0.49693  0.44861  1.0000
  H   H1964     1.0  0.65196  0.33701  0.96985  1.0000
  S   S336      1.0  0.59408  0.24842  0.02720  1.0000
  H   H1965     1.0  0.65573  0.30235  0.00587  1.0000
  S   S337      1.0  0.65633  0.30919  0.51866  1.0000
  H   H1966     1.0  0.65601  0.40466  0.68336  1.0000
  C   C1154     1.0  0.59483  0.24742  0.89198  1.0000
  Fe  Fe169     1.0  0.54632  0.57426  0.56402  1.0000
  S   S338      1.0  0.53824  0.56450  0.63014  1.0000
  S   S339      1.0  0.54424  0.59288  0.52814  1.0000
  Fe  Fe170     1.0  0.55898  0.55325  0.54768  1.0000
  S   S340      1.0  0.55170  0.54159  0.61154  1.0000
  S   S341      1.0  0.57174  0.54834  0.49774  1.0000
  Fe  Fe171     1.0  0.53377  0.54705  0.60953  1.0000
  S   S342      1.0  0.51572  0.53215  0.63857  1.0000
  Fe  Fe172     1.0  0.55687  0.55982  0.62776  1.0000
  S   S343      1.0  0.56730  0.55748  0.67547  1.0000
  S   S344      1.0  0.54048  0.55701  0.54381  1.0000
  S   S345      1.0  0.56556  0.57130  0.56338  1.0000
  H   H1967     1.0  0.51823  0.64216  0.59041  1.0000
  H   H1968     1.0  0.50072  0.71306  0.64315  1.0000
  H   H1969     1.0  0.57189  0.52072  0.64094  1.0000
  C   C1155     1.0  0.51842  0.51418  0.53965  1.0000
  N   N85       1.0  0.53412  0.52291  0.75163  1.0000
  H   H1970     1.0  0.58005  0.53255  0.57187  1.0000
  H   H1971     1.0  0.55954  0.50197  0.55560  1.0000
  C   C1156     1.0  0.55228  0.53220  0.43472  1.0000
  H   H1972     1.0  0.54596  0.53147  0.49694  1.0000
  H   H1973     1.0  0.50995  0.67577  0.45034  1.0000
  H   H1974     1.0  0.56034  0.63447  0.90325  1.0000
  H   H1975     1.0  0.55396  0.52576  0.72456  1.0000
  H   H1976     1.0  0.50101  0.55653  0.53434  1.0000
  H   H1977     1.0  0.61580  0.55207  0.57562  1.0000
  H   H1978     1.0  0.49458  0.50347  0.88258  1.0000
  H   H1979     1.0  0.49490  0.66656  0.02250  1.0000
  H   H1980     1.0  0.49395  0.51519  0.63442  1.0000
  H   H1981     1.0  0.52735  0.54818  0.74090  1.0000
  C   C1157     1.0  0.60680  0.54542  0.59540  1.0000
  H   H1982     1.0  0.58574  0.55586  0.60446  1.0000
  H   H1983     1.0  0.54240  0.51618  0.67843  1.0000
  S   S346      1.0  0.49965  0.63302  0.41640  1.0000
  Fe  Fe173     1.0  0.54832  0.55793  0.90126  1.0000
  S   S347      1.0  0.55923  0.56428  0.94213  1.0000
  S   S348      1.0  0.54765  0.56957  0.84128  1.0000
  Fe  Fe174     1.0  0.53397  0.53339  0.96364  1.0000
  S   S349      1.0  0.54324  0.53746  0.01054  1.0000
  S   S350      1.0  0.52016  0.51542  0.96870  1.0000
  Fe  Fe175     1.0  0.54074  0.55729  0.98998  1.0000
  S   S351      1.0  0.53434  0.56837  0.03389  1.0000
  Fe  Fe176     1.0  0.56091  0.54405  0.95975  1.0000
  S   S352      1.0  0.57943  0.53896  0.96124  1.0000
  S   S353      1.0  0.52979  0.55244  0.94821  1.0000
  S   S354      1.0  0.55170  0.53852  0.91410  1.0000
  H   H1984     1.0  0.52636  0.56318  0.44732  1.0000
  H   H1985     1.0  0.51961  0.50640  0.71660  1.0000
  C   C1158     1.0  0.49939  0.68738  0.01236  1.0000
  H   H1986     1.0  0.49895  0.55522  0.65491  1.0000
  C   C1159     1.0  0.54523  0.51786  0.73697  1.0000
  H   H1987     1.0  0.50870  0.69990  0.10770  1.0000
  H   H1988     1.0  0.61024  0.51586  0.12297  1.0000
  H   H1989     1.0  0.49683  0.66939  0.08777  1.0000
  C   C1160     1.0  0.55002  0.50654  0.98285  1.0000
  H   H1990     1.0  0.58567  0.51681  0.21710  1.0000
  C   C1161     1.0  0.58176  0.52718  0.99953  1.0000
  C   C1162     1.0  0.57217  0.52040  0.03437  1.0000
  C   C1163     1.0  0.57425  0.51065  0.06299  1.0000
  C   C1164     1.0  0.58588  0.50751  0.05693  1.0000
  C   C1165     1.0  0.59547  0.51432  0.02221  1.0000
  C   C1166     1.0  0.59344  0.52415  0.99381  1.0000
  H   H1991     1.0  0.56315  0.52265  0.03920  1.0000
  H   H1992     1.0  0.52668  0.51117  0.54658  1.0000
  H   H1993     1.0  0.60448  0.51202  0.01720  1.0000
  H   H1994     1.0  0.60091  0.52933  0.96695  1.0000
  C   C1167     1.0  0.51493  0.51806  0.92542  1.0000
  C   C1168     1.0  0.51907  0.52998  0.89715  1.0000
  C   C1169     1.0  0.51378  0.53260  0.86521  1.0000
  C   C1170     1.0  0.50463  0.52314  0.86072  1.0000
  C   C1171     1.0  0.50122  0.51095  0.88704  1.0000
  C   C1172     1.0  0.50622  0.50845  0.91968  1.0000
  H   H1995     1.0  0.52625  0.53729  0.89985  1.0000
  H   H1996     1.0  0.51662  0.54202  0.84453  1.0000
  H   H1997     1.0  0.53317  0.65678  0.44788  1.0000
  H   H1998     1.0  0.55611  0.51634  0.97292  1.0000
  C   C1173     1.0  0.50980  0.59659  0.01685  1.0000
  C   C1174     1.0  0.51349  0.59365  0.05207  1.0000
  C   C1175     1.0  0.52057  0.58459  0.05762  1.0000
  C   C1176     1.0  0.52387  0.57826  0.02839  1.0000
  C   C1177     1.0  0.51960  0.58071  0.99418  1.0000
  C   C1178     1.0  0.51276  0.58995  0.98822  1.0000
  H   H1999     1.0  0.57199  0.50081  0.28572  1.0000
  H   H2000     1.0  0.55356  0.50851  0.69463  1.0000
  H   H2001     1.0  0.52197  0.57586  0.97157  1.0000
  C   C1179     1.0  0.51068  0.52724  0.44530  1.0000
  H   H2002     1.0  0.52208  0.66989  0.42554  1.0000
  H   H2003     1.0  0.50431  0.65192  0.46262  1.0000
  C   C1180     1.0  0.49316  0.69965  0.05844  1.0000
  C   C1181     1.0  0.53694  0.52941  0.78268  1.0000
  H   H2004     1.0  0.58264  0.51118  0.86491  1.0000
  H   H2005     1.0  0.53745  0.50131  0.71831  1.0000
  H   H2006     1.0  0.51174  0.53613  0.42197  1.0000
  C   C1182     1.0  0.51430  0.50864  0.74302  1.0000
  H   H2007     1.0  0.60819  0.57071  0.56353  1.0000
  H   H2008     1.0  0.49518  0.57060  0.91713  1.0000
  H   H2009     1.0  0.49139  0.69100  0.66840  1.0000
  C   C1183     1.0  0.50240  0.67513  0.00404  1.0000
  C   C1184     1.0  0.53302  0.53290  0.71719  1.0000
  H   H2010     1.0  0.60831  0.50184  0.18870  1.0000
  C   C1185     1.0  0.56148  0.56057  0.72178  1.0000
  C   C1186     1.0  0.55191  0.56684  0.72744  1.0000
  C   C1187     1.0  0.54763  0.56935  0.76444  1.0000
  C   C1188     1.0  0.55264  0.56534  0.79640  1.0000
  C   C1189     1.0  0.56195  0.55873  0.79114  1.0000
  C   C1190     1.0  0.56648  0.55653  0.75376  1.0000
  H   H2011     1.0  0.54801  0.57004  0.70304  1.0000
  H   H2012     1.0  0.54047  0.57453  0.76820  1.0000
  H   H2013     1.0  0.56596  0.55571  0.81543  1.0000
  H   H2014     1.0  0.57390  0.55168  0.74963  1.0000
  C   C1191     1.0  0.57307  0.53269  0.50092  1.0000
  C   C1192     1.0  0.56469  0.52232  0.53079  1.0000
  C   C1193     1.0  0.56607  0.50998  0.53250  1.0000
  C   C1194     1.0  0.57592  0.50793  0.50479  1.0000
  C   C1195     1.0  0.58431  0.51829  0.47495  1.0000
  C   C1196     1.0  0.58282  0.53063  0.47287  1.0000
  H   H2015     1.0  0.55714  0.52380  0.55249  1.0000
  H   H2016     1.0  0.53976  0.52665  0.84203  1.0000
  H   H2017     1.0  0.59188  0.51679  0.45334  1.0000
  H   H2018     1.0  0.58930  0.53861  0.44955  1.0000
  C   C1197     1.0  0.52936  0.59496  0.52442  1.0000
  C   C1198     1.0  0.51837  0.58812  0.55455  1.0000
  C   C1199     1.0  0.50685  0.59095  0.55276  1.0000
  C   C1200     1.0  0.50615  0.60041  0.52046  1.0000
  C   C1201     1.0  0.51704  0.60689  0.48950  1.0000
  C   C1202     1.0  0.52862  0.60426  0.49176  1.0000
  H   H2019     1.0  0.51882  0.58096  0.57986  1.0000
  H   H2020     1.0  0.49846  0.58588  0.57677  1.0000
  H   H2021     1.0  0.51660  0.61411  0.46433  1.0000
  H   H2022     1.0  0.53707  0.60952  0.46823  1.0000
  C   C1203     1.0  0.52317  0.55325  0.46678  1.0000
  C   C1204     1.0  0.57932  0.52960  0.63406  1.0000
  C   C1205     1.0  0.50697  0.54623  0.58260  1.0000
  C   C1206     1.0  0.50528  0.53444  0.60981  1.0000
  H   H2023     1.0  0.52951  0.52816  0.41694  1.0000
  H   H2024     1.0  0.56262  0.62724  0.86329  1.0000
  H   H2025     1.0  0.52299  0.67487  0.47035  1.0000
  H   H2026     1.0  0.51421  0.55430  0.58129  1.0000
  H   H2027     1.0  0.57448  0.53695  0.64048  1.0000
  C   C1207     1.0  0.59069  0.55601  0.57381  1.0000
  H   H2028     1.0  0.60389  0.52274  0.16094  1.0000
  H   H2029     1.0  0.51290  0.53120  0.51875  1.0000
  C   C1208     1.0  0.52343  0.54059  0.72827  1.0000
  C   C1209     1.0  0.59960  0.50170  0.17895  1.0000
  H   H2030     1.0  0.51640  0.68327  0.05342  1.0000
  H   H2031     1.0  0.50557  0.51918  0.43698  1.0000
  C   C1210     1.0  0.52708  0.64721  0.46532  1.0000
  C   C1211     1.0  0.58900  0.50905  0.23381  1.0000
  H   H2032     1.0  0.50980  0.51621  0.73235  1.0000
  C   C1212     1.0  0.59947  0.56943  0.55395  1.0000
  H   H2033     1.0  0.60185  0.57165  0.52077  1.0000
  C   C1213     1.0  0.60186  0.51466  0.14810  1.0000
  H   H2034     1.0  0.61414  0.53809  0.48943  1.0000
  C   C1214     1.0  0.52184  0.52838  0.51655  1.0000
  H   H2035     1.0  0.54526  0.53763  0.76903  1.0000
  H   H2036     1.0  0.50642  0.69541  0.98871  1.0000
  H   H2037     1.0  0.59417  0.54829  0.64986  1.0000
  H   H2038     1.0  0.52450  0.50349  0.78612  1.0000
  C   C1215     1.0  0.51466  0.69418  0.09515  1.0000
  C   C1216     1.0  0.49547  0.52425  0.61284  1.0000
  H   H2039     1.0  0.59100  0.52459  0.58801  1.0000
  H   H2040     1.0  0.57073  0.51562  0.91995  1.0000
  H   H2041     1.0  0.56042  0.58953  0.88760  1.0000
  N   N86       1.0  0.58827  0.49818  0.21484  1.0000
  C   C1217     1.0  0.51244  0.69152  0.05633  1.0000
  H   H2042     1.0  0.51156  0.67399  0.00839  1.0000
  H   H2043     1.0  0.49654  0.52762  0.98241  1.0000
  H   H2044     1.0  0.51550  0.65837  0.54408  1.0000
  N   N87       1.0  0.51686  0.64803  0.49936  1.0000
  S   S355      1.0  0.49169  0.60446  0.52161  1.0000
  N   N88       1.0  0.55820  0.60411  0.94730  1.0000
  C   C1218     1.0  0.56682  0.59565  0.95585  1.0000
  C   C1219     1.0  0.54867  0.59692  0.93125  1.0000
  C   C1220     1.0  0.55169  0.60592  0.98673  1.0000
  C   C1221     1.0  0.56593  0.61659  0.91808  1.0000
  C   C1222     1.0  0.57729  0.60066  0.97403  1.0000
  C   C1223     1.0  0.55361  0.59548  0.88887  1.0000
  C   C1224     1.0  0.54239  0.61439  0.98596  1.0000
  H   H2045     1.0  0.52291  0.64323  0.44375  1.0000
  H   H2046     1.0  0.56132  0.58622  0.97689  1.0000
  H   H2047     1.0  0.57168  0.59365  0.92805  1.0000
  H   H2048     1.0  0.54057  0.60109  0.93071  1.0000
  H   H2049     1.0  0.54443  0.58715  0.95160  1.0000
  H   H2050     1.0  0.54657  0.59654  0.00852  1.0000
  H   H2051     1.0  0.55859  0.61036  0.00058  1.0000
  H   H2052     1.0  0.57126  0.62238  0.93346  1.0000
  H   H2053     1.0  0.53058  0.52875  0.69362  1.0000
  H   H2054     1.0  0.58353  0.59407  0.97499  1.0000
  H   H2055     1.0  0.58327  0.61015  0.95581  1.0000
  H   H2056     1.0  0.50440  0.52723  0.47391  1.0000
  H   H2057     1.0  0.59398  0.51524  0.13464  1.0000
  H   H2058     1.0  0.50289  0.54584  0.91549  1.0000
  H   H2059     1.0  0.58009  0.51169  0.95105  1.0000
  H   H2060     1.0  0.54727  0.62450  0.97117  1.0000
  H   H2061     1.0  0.53762  0.61387  0.01736  1.0000
  H   H2062     1.0  0.53484  0.61131  0.97250  1.0000
  H   H2063     1.0  0.57323  0.61494  0.89438  1.0000
  H   H2064     1.0  0.54346  0.50558  0.01230  1.0000
  C   C1225     1.0  0.53923  0.52109  0.81992  1.0000
  H   H2065     1.0  0.52268  0.51472  0.45748  1.0000
  C   C1226     1.0  0.51671  0.66997  0.45561  1.0000
  C   C1227     1.0  0.53328  0.54612  0.45560  1.0000
  H   H2066     1.0  0.49024  0.68771  0.00599  1.0000
  H   H2067     1.0  0.51345  0.68517  0.11827  1.0000
  C   C1228     1.0  0.52355  0.52513  0.44843  1.0000
  S   S356      1.0  0.62129  0.50006  0.32965  1.0000
  H   H2068     1.0  0.54933  0.52852  0.41096  1.0000
  C   C1229     1.0  0.60848  0.53528  0.52127  1.0000
  H   H2069     1.0  0.53424  0.64995  0.56737  1.0000
  C   C1230     1.0  0.50934  0.65643  0.48147  1.0000
  C   C1231     1.0  0.50809  0.63502  0.51924  1.0000
  H   H2070     1.0  0.54243  0.64423  0.49203  1.0000
  H   H2071     1.0  0.50191  0.65774  0.50542  1.0000
  H   H2072     1.0  0.56678  0.50546  0.08983  1.0000
  C   C1232     1.0  0.49126  0.67661  0.08441  1.0000
  H   H2073     1.0  0.59453  0.57654  0.56251  1.0000
  H   H2074     1.0  0.54685  0.51102  0.76200  1.0000
  H   H2075     1.0  0.53085  0.66166  0.51155  1.0000
  H   H2076     1.0  0.49191  0.68168  0.14101  1.0000
  H   H2077     1.0  0.57351  0.60070  0.00552  1.0000
  H   H2078     1.0  0.49658  0.61014  0.25315  1.0000
  H   H2079     1.0  0.52380  0.58275  0.08423  1.0000
  H   H2080     1.0  0.50111  0.54947  0.96213  1.0000
  H   H2081     1.0  0.55587  0.54268  0.42409  1.0000
  H   H2082     1.0  0.55580  0.50097  0.90716  1.0000
  N   N89       1.0  0.59686  0.54517  0.57324  1.0000
  H   H2083     1.0  0.61476  0.53287  0.54006  1.0000
  H   H2084     1.0  0.60882  0.53592  0.60286  1.0000
  H   H2085     1.0  0.51397  0.54903  0.46320  1.0000
  H   H2086     1.0  0.51151  0.51260  0.56894  1.0000
  C   C1233     1.0  0.53625  0.63942  0.47675  1.0000
  C   C1234     1.0  0.49979  0.71261  0.02751  1.0000
  H   H2087     1.0  0.49863  0.63963  0.57388  1.0000
  H   H2088     1.0  0.56036  0.52835  0.43956  1.0000
  H   H2089     1.0  0.54559  0.59053  0.88017  1.0000
  H   H2090     1.0  0.51280  0.62800  0.53245  1.0000
  N   N90       1.0  0.52984  0.53189  0.47376  1.0000
  C   C1235     1.0  0.52230  0.51229  0.77069  1.0000
  H   H2091     1.0  0.53148  0.62961  0.49524  1.0000
  H   H2092     1.0  0.51457  0.53454  0.74977  1.0000
  S   S357      1.0  0.49553  0.61871  0.32341  1.0000
  C   C1236     1.0  0.49257  0.71689  0.63937  1.0000
  H   H2093     1.0  0.50467  0.63103  0.49650  1.0000
  H   H2094     1.0  0.54836  0.51862  0.81275  1.0000
  C   C1237     1.0  0.49203  0.63730  0.19905  1.0000
  H   H2095     1.0  0.59419  0.51657  0.88922  1.0000
  H   H2096     1.0  0.51035  0.56940  0.92055  1.0000
  H   H2097     1.0  0.57620  0.50506  0.18035  1.0000
  C   C1238     1.0  0.60291  0.54632  0.52975  1.0000
  H   H2098     1.0  0.51401  0.50798  0.52364  1.0000
  H   H2099     1.0  0.54223  0.53992  0.70201  1.0000
  C   C1239     1.0  0.49941  0.54754  0.55639  1.0000
  C   C1240     1.0  0.58690  0.53280  0.58993  1.0000
  H   H2100     1.0  0.52664  0.53371  0.53416  1.0000
  H   H2101     1.0  0.53641  0.54855  0.42227  1.0000
  H   H2102     1.0  0.53997  0.51732  0.48474  1.0000
  C   C1241     1.0  0.52229  0.65385  0.52822  1.0000
  C   C1242     1.0  0.54181  0.52785  0.47473  1.0000
  H   H2103     1.0  0.49539  0.53469  0.70325  1.0000
  C   C1243     1.0  0.50211  0.56498  0.91170  1.0000
  C   C1244     1.0  0.55882  0.62517  0.89628  1.0000
  C   C1245     1.0  0.60415  0.54962  0.63446  1.0000
  C   C1246     1.0  0.57551  0.50813  0.92980  1.0000
  H   H2104     1.0  0.49585  0.72741  0.63157  1.0000
  H   H2105     1.0  0.54859  0.62123  0.90373  1.0000
  C   C1247     1.0  0.52569  0.64479  0.56164  1.0000
  H   H2106     1.0  0.51878  0.69937  0.03045  1.0000
  H   H2107     1.0  0.54247  0.63863  0.44893  1.0000
  H   H2108     1.0  0.59610  0.54741  0.51169  1.0000
  H   H2109     1.0  0.62729  0.50703  0.24297  1.0000
  H   H2110     1.0  0.58316  0.55510  0.55835  1.0000
  H   H2111     1.0  0.50998  0.59219  0.96084  1.0000
  H   H2112     1.0  0.52911  0.53345  0.79439  1.0000
  H   H2113     1.0  0.54146  0.55078  0.46451  1.0000
  N   N91       1.0  0.49911  0.68885  0.05372  1.0000
  H   H2114     1.0  0.61074  0.55505  0.51621  1.0000
  H   H2115     1.0  0.55780  0.60470  0.86581  1.0000
  H   H2116     1.0  0.52777  0.63610  0.55498  1.0000
  H   H2117     1.0  0.51135  0.59874  0.07421  1.0000
  H   H2118     1.0  0.60922  0.55969  0.62879  1.0000
  H   H2119     1.0  0.60102  0.52670  0.52496  1.0000
  H   H2120     1.0  0.49101  0.64324  0.28980  1.0000
  S   S358      1.0  0.49689  0.52669  0.82391  1.0000
  H   H2121     1.0  0.52108  0.54530  0.70101  1.0000
  H   H2122     1.0  0.60807  0.54404  0.65634  1.0000
  S   S359      1.0  0.49700  0.63992  0.04201  1.0000
  H   H2123     1.0  0.51583  0.51461  0.79486  1.0000
  H   H2124     1.0  0.52193  0.55384  0.49796  1.0000
  H   H2125     1.0  0.50315  0.49913  0.94057  1.0000
  C   C1248     1.0  0.54439  0.51064  0.70517  1.0000
  H   H2126     1.0  0.49269  0.54916  0.86334  1.0000
  H   H2127     1.0  0.58524  0.52766  0.65454  1.0000
  H   H2128     1.0  0.49486  0.71980  0.03542  1.0000
  H   H2129     1.0  0.49923  0.71247  0.99689  1.0000
  H   H2130     1.0  0.54424  0.50533  0.96195  1.0000
  H   H2131     1.0  0.50281  0.67550  0.97232  1.0000
  C   C1249     1.0  0.58586  0.50891  0.89231  1.0000
  H   H2132     1.0  0.52441  0.70000  0.08846  1.0000
  H   H2133     1.0  0.50967  0.71590  0.02754  1.0000
  S   S360      1.0  0.50293  0.60945  0.00475  1.0000
  H   H2134     1.0  0.49234  0.70127  0.08836  1.0000
  C   C1250     1.0  0.49764  0.55071  0.93495  1.0000
  H   H2135     1.0  0.50566  0.56619  0.87903  1.0000
  H   H2136     1.0  0.49480  0.62001  0.18551  1.0000
  H   H2137     1.0  0.53148  0.51239  0.83488  1.0000
  H   H2138     1.0  0.58937  0.50028  0.89413  1.0000
  H   H2139     1.0  0.58211  0.51499  0.28699  1.0000
  C   C1251     1.0  0.49387  0.62507  0.20818  1.0000
  H   H2140     1.0  0.59896  0.51334  0.23198  1.0000
  C   C1252     1.0  0.58192  0.50597  0.27859  1.0000
  H   H2141     1.0  0.58667  0.50047  0.29783  1.0000
  H   H2142     1.0  0.50659  0.50008  0.76039  1.0000
  C   C1253     1.0  0.49174  0.63813  0.26725  1.0000
  C   C1254     1.0  0.49382  0.62598  0.27618  1.0000
  H   H2143     1.0  0.49309  0.69715  0.70944  1.0000
  C   C1255     1.0  0.49489  0.61950  0.24649  1.0000
  C   C1256     1.0  0.49638  0.63439  0.55237  1.0000
  H   H2144     1.0  0.56336  0.49921  0.00844  1.0000
  H   H2145     1.0  0.49189  0.62430  0.56946  1.0000
  C   C1257     1.0  0.49097  0.64381  0.22868  1.0000
  Fe  Fe177     1.0  0.49175  0.61903  0.04541  1.0000
  C   C1258     1.0  0.49036  0.53700  0.55698  1.0000
  S   S361      1.0  0.49114  0.64481  0.15094  1.0000
  H   H2146     1.0  0.56036  0.49893  0.24048  1.0000
  Fe  Fe178     1.0  0.53250  0.94861  0.58312  1.0000
  S   S362      1.0  0.53724  0.92997  0.60248  1.0000
  S   S363      1.0  0.51295  0.95100  0.59904  1.0000
  Fe  Fe179     1.0  0.55918  0.96290  0.53417  1.0000
  S   S364      1.0  0.56593  0.94508  0.54802  1.0000
  S   S365      1.0  0.56854  0.98334  0.49552  1.0000
  Fe  Fe180     1.0  0.54814  0.93445  0.53761  1.0000
  S   S366      1.0  0.54726  0.92110  0.49617  1.0000
  Fe  Fe181     1.0  0.55420  0.94201  0.61163  1.0000
  S   S367      1.0  0.56118  0.93589  0.66656  1.0000
  S   S368      1.0  0.54255  0.95269  0.51847  1.0000
  S   S369      1.0  0.54834  0.96021  0.59787  1.0000
  H   H2147     1.0  0.55229  0.91488  0.89030  1.0000
  H   H2148     1.0  0.54732  0.90719  0.43681  1.0000
  C   C1259     1.0  0.60555  0.98194  0.03456  1.0000
  H   H2149     1.0  0.55460  0.90455  0.78925  1.0000
  H   H2150     1.0  0.52247  0.90547  0.54909  1.0000
  Fe  Fe182     1.0  0.53921  0.95609  0.93179  1.0000
  S   S370      1.0  0.54767  0.94974  0.98122  1.0000
  S   S371      1.0  0.51970  0.95875  0.94403  1.0000
  Fe  Fe183     1.0  0.56245  0.95857  0.86601  1.0000
  S   S372      1.0  0.57310  0.95257  0.91113  1.0000
  S   S373      1.0  0.56830  0.96510  0.79743  1.0000
  Fe  Fe184     1.0  0.55499  0.93745  0.94446  1.0000
  S   S374      1.0  0.55350  0.91653  0.97266  1.0000
  Fe  Fe185     1.0  0.56486  0.96554  0.94476  1.0000
  S   S375      1.0  0.57143  0.97806  0.98390  1.0000
  S   S376      1.0  0.54523  0.94278  0.89732  1.0000
  S   S377      1.0  0.55564  0.97248  0.89724  1.0000
  H   H2151     1.0  0.53473  0.89625  0.91357  1.0000
  C   C1260     1.0  0.53771  0.99418  0.90569  1.0000
  H   H2152     1.0  0.61221  0.96065  0.05422  1.0000
  H   H2153     1.0  0.51183  0.90156  0.85983  1.0000
  H   H2154     1.0  0.49032  0.95362  0.46760  1.0000
  H   H2155     1.0  0.54077  0.86151  0.54060  1.0000
  H   H2156     1.0  0.52694  0.87776  0.12168  1.0000
  C   C1261     1.0  0.50148  0.92360  0.42348  1.0000
  H   H2157     1.0  0.50872  0.87674  0.24113  1.0000
  H   H2158     1.0  0.49335  0.92138  0.69127  1.0000
  H   H2159     1.0  0.53889  0.84232  0.61015  1.0000
  C   C1262     1.0  0.49664  0.94872  0.48126  1.0000
  H   H2160     1.0  0.51883  0.95357  0.41035  1.0000
  S   S378      1.0  0.51382  0.84494  0.42577  1.0000
  H   H2161     1.0  0.61008  0.98421  0.59784  1.0000
  C   C1263     1.0  0.51021  0.94811  0.92701  1.0000
  H   H2162     1.0  0.61576  0.98257  0.91577  1.0000
  H   H2163     1.0  0.50776  0.95260  0.75890  1.0000
  H   H2164     1.0  0.55138  0.91961  0.79166  1.0000
  H   H2165     1.0  0.54074  0.88986  0.87426  1.0000
  C   C1264     1.0  0.52839  0.90789  0.97743  1.0000
  C   C1265     1.0  0.53932  0.90469  0.98344  1.0000
  C   C1266     1.0  0.53904  0.89178  0.99745  1.0000
  H   H2166     1.0  0.51643  0.91612  0.44351  1.0000
  H   H2167     1.0  0.51510  0.90045  0.90674  1.0000
  H   H2168     1.0  0.52847  0.91776  0.96713  1.0000
  H   H2169     1.0  0.54746  0.88919  0.00213  1.0000
  H   H2170     1.0  0.59402  0.99660  0.92630  1.0000
  H   H2171     1.0  0.54715  0.91273  0.75531  1.0000
  C   C1267     1.0  0.53329  0.91871  0.85608  1.0000
  H   H2172     1.0  0.53893  0.83627  0.51126  1.0000
  N   N92       1.0  0.58446  0.98240  0.62357  1.0000
  C   C1268     1.0  0.58157  0.99047  0.38463  1.0000
  C   C1269     1.0  0.56153  0.94324  0.70588  1.0000
  C   C1270     1.0  0.56843  0.93944  0.73261  1.0000
  C   C1271     1.0  0.56961  0.94539  0.76301  1.0000
  C   C1272     1.0  0.56404  0.95538  0.76685  1.0000
  C   C1273     1.0  0.55692  0.95906  0.74054  1.0000
  C   C1274     1.0  0.55551  0.95290  0.71057  1.0000
  H   H2173     1.0  0.57317  0.93202  0.72918  1.0000
  H   H2174     1.0  0.57542  0.94268  0.78219  1.0000
  H   H2175     1.0  0.55278  0.96694  0.74270  1.0000
  H   H2176     1.0  0.55008  0.95587  0.69040  1.0000
  H   H2177     1.0  0.51233  0.93712  0.67634  1.0000
  C   C1275     1.0  0.62460  0.95889  0.00092  1.0000
  C   C1276     1.0  0.56716  0.99276  0.60405  1.0000
  H   H2178     1.0  0.52228  0.84684  0.22998  1.0000
  H   H2179     1.0  0.58896  0.95994  0.56999  1.0000
  C   C1277     1.0  0.59382  0.99144  0.49132  1.0000
  C   C1278     1.0  0.52588  0.81798  0.53470  1.0000
  H   H2180     1.0  0.54445  0.84199  0.55983  1.0000
  H   H2181     1.0  0.56488  0.97780  0.65739  1.0000
  H   H2182     1.0  0.59444  0.98184  0.49209  1.0000
  H   H2183     1.0  0.57903  0.97726  0.57335  1.0000
  H   H2184     1.0  0.51969  0.93091  0.47580  1.0000
  H   H2185     1.0  0.61905  0.95506  0.98244  1.0000
  H   H2186     1.0  0.50908  0.90099  0.97912  1.0000
  N   N93       1.0  0.49637  0.93468  0.72648  1.0000
  C   C1279     1.0  0.53003  0.89238  0.45641  1.0000
  C   C1280     1.0  0.53857  0.90288  0.46001  1.0000
  C   C1281     1.0  0.53596  0.90782  0.49329  1.0000
  C   C1282     1.0  0.52459  0.90200  0.52300  1.0000
  H   H2187     1.0  0.61698  0.99471  0.96353  1.0000
  H   H2188     1.0  0.53229  0.88878  0.43062  1.0000
  C   C1283     1.0  0.60830  0.99373  0.59322  1.0000
  N   N94       1.0  0.50352  0.93675  0.42934  1.0000
  H   H2189     1.0  0.50161  0.99712  0.48714  1.0000
  H   H2190     1.0  0.51173  0.89526  0.18196  1.0000
  C   C1284     1.0  0.50178  0.94420  0.78301  1.0000
  C   C1285     1.0  0.51734  0.94306  0.41912  1.0000
  H   H2191     1.0  0.57168  0.98473  0.39511  1.0000
  H   H2192     1.0  0.49964  0.89351  0.13638  1.0000
  C   C1286     1.0  0.52397  0.94006  0.45256  1.0000
  C   C1287     1.0  0.49825  0.83983  0.57117  1.0000
  C   C1288     1.0  0.50605  0.84503  0.27810  1.0000
  C   C1289     1.0  0.49284  0.94300  0.89909  1.0000
  H   H2193     1.0  0.51890  0.85818  0.53991  1.0000
  H   H2194     1.0  0.50771  0.93942  0.79908  1.0000
  H   H2195     1.0  0.52263  0.94073  0.39249  1.0000
  C   C1290     1.0  0.49766  0.94446  0.40159  1.0000
  S   S379      1.0  0.49374  0.81072  0.50533  1.0000
  H   H2196     1.0  0.51243  0.98145  0.94310  1.0000
  H   H2197     1.0  0.49183  0.88563  0.21068  1.0000
  Fe  Fe186     1.0  0.50342  0.85878  0.44694  1.0000
  N   N95       1.0  0.52136  0.83916  0.54378  1.0000
  H   H2198     1.0  0.52254  0.89181  0.07357  1.0000
  H   H2199     1.0  0.51089  0.86940  0.08698  1.0000
  C   C1291     1.0  0.50606  0.91372  0.45047  1.0000
  C   C1292     1.0  0.50208  0.97469  0.54107  1.0000
  H   H2200     1.0  0.51284  0.94860  0.34550  1.0000
  C   C1293     1.0  0.53819  0.86070  0.51285  1.0000
  H   H2201     1.0  0.49092  0.97373  0.04818  1.0000
  H   H2202     1.0  0.50263  0.98634  0.97972  1.0000
  C   C1294     1.0  0.58179  0.97294  0.60024  1.0000
  S   S380      1.0  0.51498  0.85050  0.30882  1.0000
  H   H2203     1.0  0.52578  0.89242  0.15717  1.0000
  H   H2204     1.0  0.52032  0.84440  0.59915  1.0000
  H   H2205     1.0  0.58623  0.98832  0.35700  1.0000
  H   H2206     1.0  0.49254  0.95730  0.98784  1.0000
  C   C1295     1.0  0.58770  0.97593  0.66052  1.0000
  C   C1296     1.0  0.51615  0.88745  0.17690  1.0000
  H   H2207     1.0  0.50594  0.83442  0.51840  1.0000
  H   H2208     1.0  0.50428  0.91316  0.55218  1.0000
  H   H2209     1.0  0.49606  0.94784  0.80538  1.0000
  S   S381      1.0  0.50351  0.87385  0.00099  1.0000
  H   H2210     1.0  0.49949  0.86332  0.20911  1.0000
  H   H2211     1.0  0.51735  0.82780  0.60495  1.0000
  H   H2212     1.0  0.62607  0.97263  0.03347  1.0000
  H   H2213     1.0  0.50637  0.92393  0.39238  1.0000
  H   H2214     1.0  0.49772  0.97056  0.57385  1.0000
  H   H2215     1.0  0.59360  0.97903  0.71247  1.0000
  H   H2216     1.0  0.50994  0.83995  0.18514  1.0000
  C   C1297     1.0  0.51778  0.88049  0.21737  1.0000
  C   C1298     1.0  0.52666  0.92630  0.82944  1.0000
  H   H2217     1.0  0.54325  0.92413  0.84555  1.0000
  H   H2218     1.0  0.52996  0.91951  0.88711  1.0000
  H   H2219     1.0  0.52812  0.93608  0.83295  1.0000
  H   H2220     1.0  0.51639  0.92224  0.83807  1.0000
  H   H2221     1.0  0.58595  0.98722  0.40875  1.0000
  C   C1299     1.0  0.51237  0.93616  0.92770  1.0000
  C   C1300     1.0  0.51648  0.89684  0.08962  1.0000
  C   C1301     1.0  0.49294  0.84168  0.29078  1.0000
  H   H2222     1.0  0.55769  0.90088  0.89351  1.0000
  C   C1302     1.0  0.51716  0.88541  0.99772  1.0000
  N   N96       1.0  0.50910  0.87922  0.15656  1.0000
  C   C1303     1.0  0.49653  0.93594  0.47145  1.0000
  C   C1304     1.0  0.53957  0.89892  0.88094  1.0000
  H   H2223     1.0  0.53548  0.98760  0.98365  1.0000
  H   H2224     1.0  0.52595  0.81502  0.56642  1.0000
  C   C1305     1.0  0.52310  0.98980  0.45976  1.0000
  H   H2225     1.0  0.57989  0.98414  0.70835  1.0000
  C   C1306     1.0  0.49206  0.83737  0.22696  1.0000
  C   C1307     1.0  0.50518  0.84053  0.21435  1.0000
  H   H2226     1.0  0.52236  0.87265  0.21493  1.0000
  C   C1308     1.0  0.51809  0.89823  0.87768  1.0000
  H   H2227     1.0  0.52750  0.90548  0.79972  1.0000
  C   C1309     1.0  0.55279  0.90692  0.87658  1.0000
  N   N97       1.0  0.53171  0.90492  0.85675  1.0000
  H   H2228     1.0  0.49223  0.86415  0.17053  1.0000
  H   H2229     1.0  0.51424  0.91809  0.71967  1.0000
  H   H2230     1.0  0.63156  0.99115  0.90692  1.0000
  H   H2231     1.0  0.59644  0.97281  0.65312  1.0000
  H   H2232     1.0  0.60874  0.99546  0.06894  1.0000
  H   H2233     1.0  0.59899  0.98697  0.02292  1.0000
  C   C1310     1.0  0.52868  0.83253  0.51789  1.0000
  N   N98       1.0  0.61164  0.97576  0.00441  1.0000
  C   C1311     1.0  0.53465  0.90315  0.81524  1.0000
  H   H2234     1.0  0.51810  0.93066  0.56552  1.0000
  C   C1312     1.0  0.51741  0.89833  0.98440  1.0000
  H   H2235     1.0  0.60501  0.96402  0.96800  1.0000
  Fe  Fe187     1.0  0.50489  0.84764  0.37426  1.0000
  C   C1313     1.0  0.51754  0.87157  0.13982  1.0000
  H   H2236     1.0  0.50443  0.87992  0.90261  1.0000
  H   H2237     1.0  0.62720  0.97444  0.92980  1.0000
  H   H2238     1.0  0.53396  0.89298  0.81679  1.0000
  C   C1314     1.0  0.51483  0.98401  0.53408  1.0000
  C   C1315     1.0  0.51214  0.84440  0.23983  1.0000
  C   C1316     1.0  0.49732  0.87023  0.18569  1.0000
  H   H2239     1.0  0.53372  0.93978  0.43879  1.0000
  C   C1317     1.0  0.51462  0.88359  0.88724  1.0000
  S   S382      1.0  0.50744  0.87315  0.48372  1.0000
  C   C1318     1.0  0.59085  0.95839  0.02396  1.0000
  H   H2240     1.0  0.50410  0.85594  0.13116  1.0000
  C   C1319     1.0  0.52801  0.88217  0.00462  1.0000
  C   C1320     1.0  0.51251  0.98642  0.96666  1.0000
  C   C1321     1.0  0.54772  0.91038  0.78679  1.0000
  H   H2241     1.0  0.62975  0.98935  0.97625  1.0000
  H   H2242     1.0  0.51637  0.88030  0.85986  1.0000
  H   H2243     1.0  0.59973  0.97473  0.06285  1.0000
  C   C1322     1.0  0.61837  0.96705  0.02490  1.0000
  H   H2244     1.0  0.58506  0.96257  0.04441  1.0000
  H   H2245     1.0  0.50728  0.88725  0.54262  1.0000
  H   H2246     1.0  0.50334  0.90441  0.44426  1.0000
  H   H2247     1.0  0.55869  0.91060  0.84524  1.0000
  H   H2248     1.0  0.58436  0.95344  0.00972  1.0000
  H   H2249     1.0  0.51949  0.87913  0.90827  1.0000
  C   C1323     1.0  0.59256  0.96719  0.58434  1.0000
  C   C1324     1.0  0.49094  0.93836  0.02308  1.0000
  H   H2250     1.0  0.49851  0.96065  0.91311  1.0000
  C   C1325     1.0  0.50305  0.93835  0.59059  1.0000
  H   H2251     1.0  0.58043  0.96697  0.67730  1.0000
  H   H2252     1.0  0.53076  0.92725  0.79726  1.0000
  H   H2253     1.0  0.51961  0.93335  0.94008  1.0000
  S   S383      1.0  0.49579  0.86247  0.39321  1.0000
  C   C1326     1.0  0.52450  0.85311  0.52222  1.0000
  H   H2254     1.0  0.49914  0.95441  0.40367  1.0000
  H   H2255     1.0  0.52491  0.94783  0.46727  1.0000
  C   C1327     1.0  0.51865  0.88658  0.48612  1.0000
  H   H2256     1.0  0.49230  0.80087  0.43648  1.0000
  H   H2257     1.0  0.53585  0.98412  0.92329  1.0000
  H   H2258     1.0  0.49936  0.88179  0.11039  1.0000
  H   H2259     1.0  0.52605  0.98407  0.87520  1.0000
  H   H2260     1.0  0.53909  0.87057  0.49533  1.0000
  C   C1328     1.0  0.50764  0.83374  0.54832  1.0000
  H   H2261     1.0  0.52803  0.87228  0.01430  1.0000
  H   H2262     1.0  0.50664  0.91850  0.91388  1.0000
  C   C1329     1.0  0.51264  0.86357  0.11372  1.0000
  H   H2263     1.0  0.50464  0.82344  0.56448  1.0000
  C   C1330     1.0  0.58119  0.99269  0.98466  1.0000
  C   C1331     1.0  0.59445  0.99416  0.59775  1.0000
  H   H2264     1.0  0.52203  0.85444  0.49324  1.0000
  H   H2265     1.0  0.51947  0.86484  0.16442  1.0000
  H   H2266     1.0  0.59682  0.97549  0.97525  1.0000
  H   H2267     1.0  0.50170  0.91213  0.48286  1.0000
  C   C1332     1.0  0.60136  0.96869  0.99084  1.0000
  H   H2268     1.0  0.49239  0.92498  0.78936  1.0000
  H   H2269     1.0  0.50334  0.96679  0.52773  1.0000
  H   H2270     1.0  0.52159  0.97798  0.53573  1.0000
  H   H2271     1.0  0.59452  0.95110  0.04114  1.0000
  S   S384      1.0  0.50115  0.83719  0.07390  1.0000
  H   H2272     1.0  0.53315  0.81444  0.51692  1.0000
  C   C1333     1.0  0.51602  0.89154  0.51934  1.0000
  C   C1334     1.0  0.53689  0.83725  0.58783  1.0000
  H   H2273     1.0  0.57369  0.96483  0.61889  1.0000
  C   C1335     1.0  0.50498  0.92774  0.91318  1.0000
  C   C1336     1.0  0.52339  0.83715  0.58497  1.0000
  H   H2274     1.0  0.59605  0.96218  0.60842  1.0000
  C   C1337     1.0  0.49538  0.93127  0.89809  1.0000
  C   C1338     1.0  0.58218  0.99441  0.49498  1.0000
  H   H2275     1.0  0.60029  0.97443  0.56059  1.0000
  C   C1339     1.0  0.50811  0.92959  0.57393  1.0000
  C   C1340     1.0  0.62391  0.98319  0.92848  1.0000
  C   C1341     1.0  0.50029  0.91964  0.56633  1.0000
  H   H2276     1.0  0.53766  0.82743  0.59972  1.0000
  H   H2277     1.0  0.51566  0.94631  0.70836  1.0000
  H   H2278     1.0  0.51558  0.98101  0.99106  1.0000
  C   C1342     1.0  0.50247  0.94549  0.35663  1.0000
  H   H2279     1.0  0.52760  0.98183  0.46672  1.0000
  H   H2280     1.0  0.52226  0.90379  0.10040  1.0000
  H   H2281     1.0  0.63416  0.96427  0.98182  1.0000
  C   C1343     1.0  0.50547  0.88757  0.12386  1.0000
  C   C1344     1.0  0.50029  0.95145  0.91337  1.0000
  H   H2282     1.0  0.54495  0.85696  0.49406  1.0000
  H   H2283     1.0  0.51449  0.98755  0.56106  1.0000
  H   H2284     1.0  0.50414  0.97850  0.46375  1.0000
  H   H2285     1.0  0.49294  0.91414  0.74159  1.0000
  H   H2286     1.0  0.52689  0.83440  0.48784  1.0000
  H   H2287     1.0  0.62538  0.95034  0.02223  1.0000
  H   H2288     1.0  0.52388  0.88730  0.22782  1.0000
  H   H2289     1.0  0.51600  0.98041  0.41886  1.0000
  H   H2290     1.0  0.49508  0.97911  0.53023  1.0000
  H   H2291     1.0  0.51677  0.81316  0.53157  1.0000
  H   H2292     1.0  0.49422  0.96050  0.72852  1.0000
  C   C1345     1.0  0.62073  0.98614  0.96935  1.0000
  H   H2293     1.0  0.50112  0.93904  0.01859  1.0000
  H   H2294     1.0  0.49868  0.84949  0.55337  1.0000
  C   C1346     1.0  0.57242  0.98620  0.63738  1.0000
  H   H2295     1.0  0.50013  0.93034  0.49366  1.0000
  H   H2296     1.0  0.49544  0.99019  0.90497  1.0000
  N   N99       1.0  0.51959  0.99473  0.49587  1.0000
  H   H2297     1.0  0.51269  0.90235  0.06719  1.0000
  H   H2298     1.0  0.49492  0.95649  0.03496  1.0000
  H   H2299     1.0  0.51987  0.85876  0.10246  1.0000
  H   H2300     1.0  0.56374  0.98626  0.58722  1.0000
  H   H2301     1.0  0.49302  0.94369  0.67099  1.0000
  Fe  Fe188     1.0  0.49614  0.82924  0.45792  1.0000
  H   H2302     1.0  0.49294  0.94688  0.51416  1.0000
  C   C1347     1.0  0.49008  0.93703  0.60002  1.0000
  C   C1348     1.0  0.51642  0.92698  0.72865  1.0000
  C   C1349     1.0  0.51249  0.98526  0.44145  1.0000
  H   H2303     1.0  0.49952  0.84007  0.60095  1.0000
  H   H2304     1.0  0.57044  0.99170  0.04399  1.0000
  C   C1350     1.0  0.51029  0.93692  0.70856  1.0000
  H   H2305     1.0  0.54798  0.99716  0.89087  1.0000
  H   H2306     1.0  0.51352  0.92478  0.76173  1.0000
  H   H2307     1.0  0.49133  0.91955  0.42761  1.0000
  Fe  Fe189     1.0  0.49464  0.85359  0.04187  1.0000
  H   H2308     1.0  0.50962  0.99347  0.42530  1.0000
  H   H2309     1.0  0.62094  0.98743  0.06154  1.0000
  C   C1351     1.0  0.58917  0.98378  0.69051  1.0000
  H   H2310     1.0  0.50738  0.96160  0.68606  1.0000
  C   C1352     1.0  0.53100  0.99399  0.87225  1.0000
  C   C1353     1.0  0.61447  0.99170  0.04687  1.0000
  H   H2311     1.0  0.52679  0.93072  0.71822  1.0000
  H   H2312     1.0  0.57365  0.99301  0.65555  1.0000
  C   C1354     1.0  0.49708  0.95851  0.69914  1.0000
  H   H2313     1.0  0.59513  0.99354  0.67565  1.0000
  H   H2314     1.0  0.49305  0.96452  0.67866  1.0000
  C   C1355     1.0  0.49157  0.94453  0.70203  1.0000
  H   H2315     1.0  0.50619  0.95508  0.47195  1.0000
  H   H2316     1.0  0.55891  0.99588  0.61811  1.0000
  H   H2317     1.0  0.54118  0.98926  0.52106  1.0000
  C   C1356     1.0  0.49018  0.92191  0.72275  1.0000
  H   H2318     1.0  0.49871  0.95271  0.33930  1.0000
  H   H2319     1.0  0.59322  0.99684  0.56714  1.0000
  H   H2320     1.0  0.49896  0.93644  0.35000  1.0000
  H   H2321     1.0  0.49220  0.89215  0.94801  1.0000
  C   C1357     1.0  0.49290  0.93452  0.77011  1.0000
  H   H2322     1.0  0.54645  0.99612  0.46712  1.0000
  C   C1358     1.0  0.57871  0.99683  0.01960  1.0000
  H   H2323     1.0  0.55516  0.99633  0.99131  1.0000
  H   H2324     1.0  0.69311  0.21319  0.52275  1.0000
  S   S385      1.0  0.66919  0.16199  0.51628  1.0000
  C   C1359     1.0  0.70347  0.13855  0.85481  1.0000
  Fe  Fe190     1.0  0.67470  0.15339  0.62187  1.0000
  S   S386      1.0  0.68852  0.15276  0.56587  1.0000
  S   S387      1.0  0.67325  0.14674  0.68859  1.0000
  Fe  Fe191     1.0  0.68506  0.17153  0.53698  1.0000
  S   S388      1.0  0.69863  0.18869  0.48777  1.0000
  Fe  Fe192     1.0  0.67165  0.14333  0.54856  1.0000
  S   S389      1.0  0.67198  0.12704  0.51845  1.0000
  S   S390      1.0  0.67222  0.17257  0.59381  1.0000
  C   C1360     1.0  0.72807  0.15215  0.38170  1.0000
  S   S391      1.0  0.74288  0.24660  0.08446  1.0000
  Fe  Fe193     1.0  0.68991  0.17050  0.86694  1.0000
  S   S392      1.0  0.70030  0.16564  0.91340  1.0000
  S   S393      1.0  0.69860  0.17409  0.79996  1.0000
  Fe  Fe194     1.0  0.66608  0.16841  0.93019  1.0000
  S   S394      1.0  0.67441  0.16335  0.98122  1.0000
  H   H2325     1.0  0.76942  0.24329  0.94772  1.0000
  Fe  Fe195     1.0  0.69158  0.17905  0.94330  1.0000
  S   S395      1.0  0.69866  0.19501  0.97099  1.0000
  Fe  Fe196     1.0  0.68232  0.15052  0.94758  1.0000
  S   S396      1.0  0.68107  0.12960  0.97472  1.0000
  S   S397      1.0  0.68242  0.18484  0.89414  1.0000
  S   S398      1.0  0.67286  0.15467  0.89917  1.0000
  H   H2326     1.0  0.68705  0.16067  0.40441  1.0000
  C   C1361     1.0  0.71706  0.24003  0.54463  1.0000
  S   S399      1.0  0.65835  0.14235  0.60701  1.0000
  H   H2327     1.0  0.73145  0.24131  0.17709  1.0000
  S   S400      1.0  0.74829  0.22520  0.00388  1.0000
  C   C1362     1.0  0.66021  0.20095  0.95696  1.0000
  H   H2328     1.0  0.66447  0.11386  0.90012  1.0000
  H   H2329     1.0  0.66638  0.12016  0.06608  1.0000
  H   H2330     1.0  0.76609  0.21765  0.94012  1.0000
  C   C1363     1.0  0.70625  0.14323  0.47306  1.0000
  H   H2331     1.0  0.70660  0.13007  0.86725  1.0000
  H   H2332     1.0  0.66379  0.13021  0.88444  1.0000
  S   S401      1.0  0.74617  0.23101  0.48452  1.0000
  S   S402      1.0  0.75779  0.24195  0.17101  1.0000
  C   C1364     1.0  0.70323  0.13156  0.45739  1.0000
  H   H2333     1.0  0.70348  0.16550  0.48179  1.0000
  Fe  Fe197     1.0  0.65688  0.16146  0.57552  1.0000
  H   H2334     1.0  0.73198  0.16608  0.41197  1.0000
  H   H2335     1.0  0.71026  0.16800  0.38915  1.0000
  H   H2336     1.0  0.69264  0.14190  0.77857  1.0000
  N   N100      1.0  0.71254  0.15580  0.44200  1.0000
  H   H2337     1.0  0.71208  0.14092  0.49366  1.0000
  H   H2338     1.0  0.69243  0.23781  0.57772  1.0000
  H   H2339     1.0  0.71570  0.24211  0.19565  1.0000
  C   C1365     1.0  0.66047  0.10585  0.12525  1.0000
  H   H2340     1.0  0.67858  0.11843  0.08908  1.0000
  C   C1366     1.0  0.70524  0.15875  0.41188  1.0000
  H   H2341     1.0  0.69150  0.16802  0.44031  1.0000
  H   H2342     1.0  0.69729  0.14370  0.49261  1.0000
  H   H2343     1.0  0.80456  0.23681  0.97000  1.0000
  H   H2344     1.0  0.68728  0.14420  0.84243  1.0000
  H   H2345     1.0  0.66940  0.11468  0.82433  1.0000
  H   H2346     1.0  0.75211  0.23613  0.25659  1.0000
  H   H2347     1.0  0.70453  0.15161  0.39473  1.0000
  H   H2348     1.0  0.78336  0.23795  0.86306  1.0000
  C   C1367     1.0  0.79448  0.23585  0.98360  1.0000
  H   H2349     1.0  0.70973  0.14390  0.82456  1.0000
  S   S403      1.0  0.77107  0.24301  0.05340  1.0000
  C   C1368     1.0  0.71266  0.20331  0.97940  1.0000
  C   C1369     1.0  0.71211  0.21334  0.99734  1.0000
  C   C1370     1.0  0.72283  0.22015  0.00500  1.0000
  C   C1371     1.0  0.73433  0.21701  0.99495  1.0000
  C   C1372     1.0  0.73489  0.20700  0.97696  1.0000
  C   C1373     1.0  0.72419  0.20023  0.96916  1.0000
  H   H2350     1.0  0.70329  0.21583  0.00554  1.0000
  H   H2351     1.0  0.72215  0.22776  0.01889  1.0000
  H   H2352     1.0  0.74364  0.20435  0.96923  1.0000
  H   H2353     1.0  0.72483  0.19256  0.95549  1.0000
  C   C1374     1.0  0.66704  0.11808  0.98138  1.0000
  C   C1375     1.0  0.66664  0.10508  0.99323  1.0000
  C   C1376     1.0  0.68999  0.11360  0.84526  1.0000
  C   C1377     1.0  0.69682  0.24623  0.55128  1.0000
  H   H2354     1.0  0.67174  0.24647  0.01425  1.0000
  H   H2355     1.0  0.76560  0.21879  0.88974  1.0000
  H   H2356     1.0  0.67496  0.10223  0.99780  1.0000
  H   H2357     1.0  0.80712  0.22944  0.90808  1.0000
  N   N101      1.0  0.70773  0.24395  0.52303  1.0000
  H   H2358     1.0  0.68451  0.11279  0.91030  1.0000
  H   H2359     1.0  0.68000  0.12564  0.75574  1.0000
  H   H2360     1.0  0.70036  0.11506  0.83569  1.0000
  H   H2361     1.0  0.69831  0.12315  0.48346  1.0000
  H   H2362     1.0  0.71182  0.12942  0.44160  1.0000
  C   C1378     1.0  0.66320  0.12119  0.87597  1.0000
  Fe  Fe198     1.0  0.75368  0.24166  0.03134  1.0000
  H   H2363     1.0  0.72241  0.23439  0.52866  1.0000
  C   C1379     1.0  0.71185  0.20031  0.48766  1.0000
  C   C1380     1.0  0.71799  0.21026  0.45248  1.0000
  C   C1381     1.0  0.72851  0.21972  0.45081  1.0000
  C   C1382     1.0  0.73308  0.21929  0.48437  1.0000
  C   C1383     1.0  0.72693  0.20933  0.51955  1.0000
  C   C1384     1.0  0.71638  0.19992  0.52127  1.0000
  H   H2364     1.0  0.71458  0.21068  0.42627  1.0000
  H   H2365     1.0  0.73312  0.22730  0.42355  1.0000
  H   H2366     1.0  0.73038  0.20890  0.54570  1.0000
  H   H2367     1.0  0.71178  0.19235  0.54857  1.0000
  C   C1385     1.0  0.67961  0.15603  0.71718  1.0000
  C   C1386     1.0  0.69140  0.16464  0.70177  1.0000
  C   C1387     1.0  0.69695  0.17041  0.72724  1.0000
  C   C1388     1.0  0.69067  0.16781  0.76810  1.0000
  C   C1389     1.0  0.67859  0.15971  0.78294  1.0000
  C   C1390     1.0  0.67319  0.15371  0.75775  1.0000
  H   H2368     1.0  0.69650  0.16644  0.67070  1.0000
  H   H2369     1.0  0.70628  0.17669  0.71541  1.0000
  H   H2370     1.0  0.67356  0.15775  0.81411  1.0000
  H   H2371     1.0  0.76165  0.23084  0.91187  1.0000
  H   H2372     1.0  0.72694  0.15946  0.35685  1.0000
  C   C1391     1.0  0.69170  0.15957  0.42890  1.0000
  H   H2373     1.0  0.66105  0.19726  0.93031  1.0000
  C   C1392     1.0  0.80961  0.23906  0.88714  1.0000
  N   N102      1.0  0.78685  0.23940  0.91963  1.0000
  H   H2374     1.0  0.67045  0.13121  0.81436  1.0000
  H   H2375     1.0  0.76123  0.24623  0.30277  1.0000
  H   H2376     1.0  0.71773  0.15708  0.51831  1.0000
  C   C1393     1.0  0.67000  0.11301  0.08421  1.0000
  H   H2377     1.0  0.66534  0.19580  0.97562  1.0000
  H   H2378     1.0  0.69042  0.11536  0.76395  1.0000
  H   H2379     1.0  0.67301  0.10652  0.06682  1.0000
  H   H2380     1.0  0.68402  0.13190  0.88661  1.0000
  C   C1394     1.0  0.75990  0.24449  0.24440  1.0000
  C   C1395     1.0  0.68961  0.12530  0.75766  1.0000
  H   H2381     1.0  0.78873  0.22154  0.95497  1.0000
  N   N103      1.0  0.68625  0.12579  0.83183  1.0000
  H   H2382     1.0  0.69598  0.13048  0.72734  1.0000
  C   C1396     1.0  0.68534  0.10652  0.89039  1.0000
  H   H2383     1.0  0.66005  0.08294  0.12383  1.0000
  H   H2384     1.0  0.67191  0.10577  0.48478  1.0000
  H   H2385     1.0  0.66411  0.14701  0.77011  1.0000
  H   H2386     1.0  0.73127  0.16674  0.47755  1.0000
  H   H2387     1.0  0.70456  0.14491  0.87441  1.0000
  C   C1397     1.0  0.72588  0.15622  0.42090  1.0000
  H   H2388     1.0  0.70368  0.13282  0.78369  1.0000
  H   H2389     1.0  0.71627  0.17566  0.44155  1.0000
  C   C1398     1.0  0.78623  0.23043  0.95908  1.0000
  H   H2390     1.0  0.73008  0.15042  0.44149  1.0000
  C   C1399     1.0  0.69346  0.13198  0.78830  1.0000
  H   H2391     1.0  0.72099  0.17394  0.50538  1.0000
  H   H2392     1.0  0.78738  0.22466  0.88928  1.0000
  H   H2393     1.0  0.69623  0.23607  0.48856  1.0000
  H   H2394     1.0  0.72186  0.14290  0.38439  1.0000
  C   C1400     1.0  0.67241  0.12317  0.83470  1.0000
  H   H2395     1.0  0.70080  0.21702  0.55865  1.0000
  H   H2396     1.0  0.68656  0.10664  0.82969  1.0000
  H   H2397     1.0  0.69671  0.13247  0.43843  1.0000
  C   C1401     1.0  0.66271  0.10755  0.48799  1.0000
  C   C1402     1.0  0.72129  0.16574  0.49261  1.0000
  H   H2398     1.0  0.81893  0.24390  0.88892  1.0000
  H   H2399     1.0  0.68597  0.15084  0.45251  1.0000
  H   H2400     1.0  0.69231  0.10140  0.89864  1.0000
  H   H2401     1.0  0.73789  0.15134  0.37268  1.0000
  C   C1403     1.0  0.68961  0.13515  0.85478  1.0000
  C   C1404     1.0  0.71300  0.16604  0.46347  1.0000
  H   H2402     1.0  0.65791  0.11323  0.13977  1.0000
  H   H2403     1.0  0.67623  0.09944  0.89757  1.0000
  C   C1405     1.0  0.66002  0.11750  0.50412  1.0000
  C   C1406     1.0  0.76803  0.22444  0.91022  1.0000
  H   H2404     1.0  0.66510  0.21114  0.94839  1.0000
  H   H2405     1.0  0.66102  0.16875  0.68447  1.0000
  H   H2406     1.0  0.71212  0.23353  0.57509  1.0000
  H   H2407     1.0  0.81052  0.23806  0.85635  1.0000
  H   H2408     1.0  0.79187  0.22922  0.01417  1.0000
  H   H2409     1.0  0.66588  0.10091  0.14331  1.0000
  H   H2410     1.0  0.77643  0.22711  0.97899  1.0000
  H   H2411     1.0  0.79320  0.24518  0.98700  1.0000
  C   C1407     1.0  0.78195  0.23182  0.89378  1.0000
  H   H2412     1.0  0.68608  0.22111  0.55630  1.0000
  H   H2413     1.0  0.71021  0.23089  0.48670  1.0000
  C   C1408     1.0  0.70254  0.23323  0.50704  1.0000
  C   C1409     1.0  0.69524  0.22052  0.53854  1.0000
  H   H2414     1.0  0.65687  0.21199  0.88648  1.0000
  H   H2415     1.0  0.65742  0.08922  0.07743  1.0000
  H   H2416     1.0  0.65899  0.18438  0.67049  1.0000
  C   C1410     1.0  0.80009  0.24694  0.89746  1.0000
  Fe  Fe199     1.0  0.67303  0.40979  0.58196  1.0000
  S   S404      1.0  0.68811  0.42185  0.52717  1.0000
  H   H2417     1.0  0.70407  0.30133  0.63254  1.0000
  Fe  Fe200     1.0  0.67785  0.42845  0.63056  1.0000
  S   S405      1.0  0.69359  0.44220  0.57993  1.0000
  S   S406      1.0  0.66940  0.42983  0.69263  1.0000
  Fe  Fe201     1.0  0.68059  0.43806  0.54179  1.0000
  C   C1411     1.0  0.77902  0.24848  0.92853  1.0000
  Fe  Fe202     1.0  0.69972  0.42477  0.56949  1.0000
  S   S407      1.0  0.71798  0.41897  0.56813  1.0000
  C   C1412     1.0  0.69893  0.46804  0.98530  1.0000
  S   S408      1.0  0.68491  0.41154  0.62355  1.0000
  Fe  Fe203     1.0  0.68943  0.42461  0.88088  1.0000
  S   S409      1.0  0.69908  0.43944  0.90520  1.0000
  S   S410      1.0  0.69908  0.42108  0.82300  1.0000
  H   H2418     1.0  0.66507  0.30417  0.38225  1.0000
  S   S411      1.0  0.67333  0.43078  0.98045  1.0000
  H   H2419     1.0  0.69689  0.39969  0.55800  1.0000
  Fe  Fe204     1.0  0.68049  0.44439  0.91913  1.0000
  S   S412      1.0  0.68059  0.46511  0.90098  1.0000
  Fe  Fe205     1.0  0.69134  0.42479  0.96473  1.0000
  S   S413      1.0  0.70146  0.42148  0.01289  1.0000
  S   S414      1.0  0.67158  0.43092  0.88952  1.0000
  S   S415      1.0  0.68319  0.40941  0.93944  1.0000
  H   H2420     1.0  0.73686  0.30836  0.60273  1.0000
  Fe  Fe206     1.0  0.77013  0.41738  0.01024  1.0000
  S   S416      1.0  0.75926  0.39998  0.05994  1.0000
  S   S417      1.0  0.76071  0.42950  0.97238  1.0000
  Fe  Fe207     1.0  0.79555  0.41217  0.01504  1.0000
  S   S418      1.0  0.78621  0.39400  0.06449  1.0000
  S   S419      1.0  0.81681  0.41554  0.99353  1.0000
  Fe  Fe208     1.0  0.77245  0.39034  0.02855  1.0000
  S   S420      1.0  0.76600  0.37139  0.01597  1.0000
  Fe  Fe209     1.0  0.77399  0.40536  0.09126  1.0000
  S   S421      1.0  0.76783  0.40510  0.15728  1.0000
  S   S422      1.0  0.78278  0.40747  0.97734  1.0000
  S   S423      1.0  0.78394  0.42378  0.04342  1.0000
  Fe  Fe210     1.0  0.69683  0.32822  0.90686  1.0000
  S   S424      1.0  0.70326  0.34845  0.86874  1.0000
  S   S425      1.0  0.67701  0.32020  0.94712  1.0000
  Fe  Fe211     1.0  0.72235  0.32345  0.88133  1.0000
  S   S426      1.0  0.73092  0.34312  0.84023  1.0000
  S   S427      1.0  0.73322  0.30851  0.88392  1.0000
  Fe  Fe212     1.0  0.72056  0.34941  0.89070  1.0000
  S   S428      1.0  0.72927  0.36760  0.90390  1.0000
  Fe  Fe213     1.0  0.71310  0.34061  0.82140  1.0000
  S   S429      1.0  0.71463  0.34789  0.75535  1.0000
  S   S430      1.0  0.71316  0.32985  0.93342  1.0000
  S   S431      1.0  0.70549  0.32030  0.85793  1.0000
  C   C1413     1.0  0.73112  0.30558  0.96423  1.0000
  Fe  Fe214     1.0  0.77698  0.39095  0.43475  1.0000
  S   S432      1.0  0.79704  0.39473  0.39972  1.0000
  S   S433      1.0  0.76648  0.37079  0.46981  1.0000
  Fe  Fe215     1.0  0.77713  0.41857  0.41095  1.0000
  S   S434      1.0  0.79732  0.42471  0.37300  1.0000
  S   S435      1.0  0.76502  0.43238  0.41652  1.0000
  Fe  Fe216     1.0  0.79184  0.40751  0.35084  1.0000
  S   S436      1.0  0.79846  0.40515  0.28796  1.0000
  Fe  Fe217     1.0  0.80098  0.41148  0.42472  1.0000
  C   C1414     1.0  0.79738  0.43214  0.12907  1.0000
  S   S437      1.0  0.77153  0.40262  0.38464  1.0000
  S   S438      1.0  0.78107  0.40651  0.46385  1.0000
  Fe  Fe218     1.0  0.69788  0.30759  0.55390  1.0000
  C   C1415     1.0  0.79388  0.46882  0.48313  1.0000
  Fe  Fe219     1.0  0.69748  0.33500  0.52462  1.0000
  S   S439      1.0  0.67744  0.33127  0.56061  1.0000
  S   S440      1.0  0.70802  0.35497  0.48767  1.0000
  Fe  Fe220     1.0  0.68311  0.31953  0.61028  1.0000
  S   S441      1.0  0.67727  0.31901  0.67595  1.0000
  Fe  Fe221     1.0  0.67408  0.31379  0.53873  1.0000
  H   H2421     1.0  0.81121  0.30839  0.02699  1.0000
  S   S442      1.0  0.70329  0.32460  0.57589  1.0000
  S   S443      1.0  0.69377  0.31846  0.49896  1.0000
  C   C1416     1.0  0.75022  0.36655  0.47500  1.0000
  C   C1417     1.0  0.74416  0.37536  0.45859  1.0000
  C   C1418     1.0  0.73129  0.37163  0.46174  1.0000
  C   C1419     1.0  0.72432  0.35914  0.48209  1.0000
  C   C1420     1.0  0.73039  0.35032  0.49842  1.0000
  C   C1421     1.0  0.74329  0.35402  0.49489  1.0000
  H   H2422     1.0  0.74933  0.38508  0.44357  1.0000
  H   H2423     1.0  0.72670  0.37852  0.44891  1.0000
  H   H2424     1.0  0.72519  0.34062  0.51352  1.0000
  H   H2425     1.0  0.74792  0.34711  0.50742  1.0000
  H   H2426     1.0  0.67117  0.28125  0.90306  1.0000
  C   C1422     1.0  0.73243  0.29938  0.00139  1.0000
  H   H2427     1.0  0.72598  0.25389  0.15192  1.0000
  C   C1423     1.0  0.79581  0.45563  0.50118  1.0000
  C   C1424     1.0  0.70782  0.30651  0.73909  1.0000
  H   H2428     1.0  0.72870  0.24773  0.57916  1.0000
  H   H2429     1.0  0.81849  0.35372  0.47985  1.0000
  C   C1425     1.0  0.67652  0.25549  0.01878  1.0000
  H   H2430     1.0  0.79922  0.43486  0.55087  1.0000
  H   H2431     1.0  0.71064  0.45841  0.80402  1.0000
  H   H2432     1.0  0.67178  0.46128  0.71038  1.0000
  H   H2433     1.0  0.67243  0.29492  0.48135  1.0000
  H   H2434     1.0  0.66841  0.27935  0.44261  1.0000
  C   C1426     1.0  0.74637  0.27252  0.16060  1.0000
  H   H2435     1.0  0.75870  0.43895  0.51830  1.0000
  C   C1427     1.0  0.70430  0.33945  0.73408  1.0000
  C   C1428     1.0  0.70773  0.34105  0.69255  1.0000
  C   C1429     1.0  0.69963  0.33463  0.67458  1.0000
  C   C1430     1.0  0.68785  0.32689  0.69778  1.0000
  C   C1431     1.0  0.68441  0.32532  0.73932  1.0000
  C   C1432     1.0  0.69266  0.33144  0.75752  1.0000
  H   H2436     1.0  0.71674  0.34719  0.67428  1.0000
  H   H2437     1.0  0.70246  0.33579  0.64273  1.0000
  C   C1433     1.0  0.81286  0.44187  0.18085  1.0000
  H   H2438     1.0  0.68992  0.33015  0.78955  1.0000
  H   H2439     1.0  0.78294  0.25425  0.94656  1.0000
  H   H2440     1.0  0.79497  0.37827  0.00815  1.0000
  C   C1434     1.0  0.66580  0.37275  0.50275  1.0000
  H   H2441     1.0  0.72770  0.31402  0.96124  1.0000
  H   H2442     1.0  0.78003  0.33089  0.91092  1.0000
  C   C1435     1.0  0.77614  0.40419  0.19433  1.0000
  C   C1436     1.0  0.78757  0.40078  0.18906  1.0000
  C   C1437     1.0  0.79419  0.40099  0.21823  1.0000
  C   C1438     1.0  0.78943  0.40446  0.25314  1.0000
  C   C1439     1.0  0.77782  0.40747  0.25899  1.0000
  C   C1440     1.0  0.77123  0.40734  0.22973  1.0000
  H   H2443     1.0  0.79134  0.39811  0.16238  1.0000
  H   H2444     1.0  0.80309  0.39849  0.21368  1.0000
  H   H2445     1.0  0.77402  0.41015  0.28567  1.0000
  H   H2446     1.0  0.76238  0.40994  0.23421  1.0000
  C   C1441     1.0  0.75612  0.37045  0.98370  1.0000
  C   C1442     1.0  0.75324  0.38127  0.96329  1.0000
  C   C1443     1.0  0.74528  0.38026  0.93817  1.0000
  C   C1444     1.0  0.74003  0.36843  0.93337  1.0000
  C   C1445     1.0  0.74298  0.35760  0.95349  1.0000
  C   C1446     1.0  0.75101  0.35862  0.97846  1.0000
  H   H2447     1.0  0.75711  0.39045  0.96692  1.0000
  H   H2448     1.0  0.74309  0.38871  0.92277  1.0000
  H   H2449     1.0  0.73897  0.34842  0.95019  1.0000
  H   H2450     1.0  0.75316  0.35019  0.99413  1.0000
  C   C1447     1.0  0.73456  0.30100  0.93097  1.0000
  H   H2451     1.0  0.74463  0.28185  0.48267  1.0000
  S   S444      1.0  0.67794  0.30168  0.59195  1.0000
  S   S445      1.0  0.75275  0.25980  0.38376  1.0000
  H   H2452     1.0  0.68427  0.34443  0.62335  1.0000
  C   C1448     1.0  0.66939  0.30454  0.95025  1.0000
  C   C1449     1.0  0.67362  0.29857  0.92114  1.0000
  C   C1450     1.0  0.66777  0.28585  0.92548  1.0000
  H   H2453     1.0  0.66900  0.25991  0.03048  1.0000
  H   H2454     1.0  0.69578  0.44731  0.81945  1.0000
  H   H2455     1.0  0.66226  0.44724  0.76675  1.0000
  H   H2456     1.0  0.68138  0.30372  0.89525  1.0000
  H   H2457     1.0  0.73671  0.28320  0.64476  1.0000
  C   C1451     1.0  0.81039  0.27153  0.32959  1.0000
  H   H2458     1.0  0.67430  0.37365  0.47863  1.0000
  C   C1452     1.0  0.71791  0.42350  0.00086  1.0000
  C   C1453     1.0  0.72553  0.42880  0.96150  1.0000
  C   C1454     1.0  0.73861  0.43048  0.95317  1.0000
  C   C1455     1.0  0.74417  0.42660  0.98386  1.0000
  C   C1456     1.0  0.73650  0.42105  0.02311  1.0000
  C   C1457     1.0  0.72345  0.41965  0.03161  1.0000
  H   H2459     1.0  0.72139  0.43181  0.93757  1.0000
  H   H2460     1.0  0.74448  0.43485  0.92279  1.0000
  H   H2461     1.0  0.74068  0.41818  0.04707  1.0000
  H   H2462     1.0  0.71763  0.41559  0.06217  1.0000
  C   C1458     1.0  0.68211  0.46407  0.69930  1.0000
  H   H2463     1.0  0.76900  0.45235  0.52242  1.0000
  H   H2464     1.0  0.78417  0.46857  0.48172  1.0000
  C   C1459     1.0  0.79503  0.36001  0.04429  1.0000
  H   H2465     1.0  0.69145  0.38764  0.65891  1.0000
  H   H2466     1.0  0.71246  0.45668  0.99554  1.0000
  H   H2467     1.0  0.71927  0.39058  0.54115  1.0000
  H   H2468     1.0  0.80603  0.45729  0.49883  1.0000
  C   C1460     1.0  0.73019  0.42207  0.52385  1.0000
  C   C1461     1.0  0.73892  0.41463  0.52334  1.0000
  C   C1462     1.0  0.74926  0.41730  0.48967  1.0000
  C   C1463     1.0  0.75119  0.42771  0.45674  1.0000
  C   C1464     1.0  0.74241  0.43508  0.45708  1.0000
  C   C1465     1.0  0.73184  0.43218  0.49031  1.0000
  H   H2469     1.0  0.73775  0.40685  0.54928  1.0000
  H   H2470     1.0  0.75592  0.41153  0.48978  1.0000
  H   H2471     1.0  0.74385  0.44316  0.43174  1.0000
  H   H2472     1.0  0.72521  0.43801  0.49050  1.0000
  C   C1466     1.0  0.67761  0.42621  0.72833  1.0000
  C   C1467     1.0  0.69038  0.42657  0.71693  1.0000
  C   C1468     1.0  0.69690  0.42470  0.74620  1.0000
  C   C1469     1.0  0.69063  0.42225  0.78689  1.0000
  C   C1470     1.0  0.67774  0.42117  0.79822  1.0000
  C   C1471     1.0  0.67130  0.42340  0.76904  1.0000
  H   H2473     1.0  0.69530  0.42873  0.68550  1.0000
  H   H2474     1.0  0.70688  0.42552  0.73713  1.0000
  H   H2475     1.0  0.67269  0.41866  0.82950  1.0000
  C   C1472     1.0  0.81702  0.42576  0.12426  1.0000
  H   H2476     1.0  0.67535  0.31928  0.75754  1.0000
  C   C1473     1.0  0.66174  0.45111  0.79291  1.0000
  S   S446      1.0  0.70954  0.29343  0.56056  1.0000
  C   C1474     1.0  0.71328  0.29697  0.71974  1.0000
  S   S447      1.0  0.76785  0.27022  0.07006  1.0000
  C   C1475     1.0  0.68527  0.35469  0.61061  1.0000
  H   H2477     1.0  0.77878  0.26412  0.15517  1.0000
  H   H2478     1.0  0.70385  0.35852  0.61853  1.0000
  N   N104      1.0  0.71824  0.39064  0.80666  1.0000
  C   C1476     1.0  0.72918  0.39754  0.81804  1.0000
  C   C1477     1.0  0.72114  0.37850  0.79995  1.0000
  C   C1478     1.0  0.70680  0.38741  0.84197  1.0000
  C   C1479     1.0  0.71658  0.39922  0.76996  1.0000
  C   C1480     1.0  0.72810  0.41011  0.82822  1.0000
  C   C1481     1.0  0.73300  0.38012  0.76597  1.0000
  C   C1482     1.0  0.69430  0.38063  0.83698  1.0000
  C   C1483     1.0  0.70942  0.39285  0.74423  1.0000
  H   H2479     1.0  0.73096  0.39128  0.84422  1.0000
  H   H2480     1.0  0.73797  0.40007  0.79326  1.0000
  H   H2481     1.0  0.71331  0.37235  0.79386  1.0000
  H   H2482     1.0  0.72239  0.37261  0.82776  1.0000
  H   H2483     1.0  0.70838  0.38143  0.86912  1.0000
  H   H2484     1.0  0.70496  0.39611  0.84965  1.0000
  H   H2485     1.0  0.71173  0.40638  0.77858  1.0000
  H   H2486     1.0  0.72592  0.40480  0.74930  1.0000
  H   H2487     1.0  0.73723  0.41482  0.83163  1.0000
  H   H2488     1.0  0.72599  0.41687  0.80422  1.0000
  H   H2489     1.0  0.72108  0.40854  0.85719  1.0000
  H   H2490     1.0  0.74165  0.38291  0.77510  1.0000
  H   H2491     1.0  0.73300  0.37082  0.75958  1.0000
  H   H2492     1.0  0.73340  0.38699  0.73774  1.0000
  H   H2493     1.0  0.68695  0.37822  0.86595  1.0000
  H   H2494     1.0  0.69459  0.37158  0.82942  1.0000
  H   H2495     1.0  0.69114  0.38699  0.81474  1.0000
  H   H2496     1.0  0.70293  0.39855  0.73528  1.0000
  H   H2497     1.0  0.70366  0.38305  0.75900  1.0000
  H   H2498     1.0  0.71602  0.39302  0.71575  1.0000
  H   H2499     1.0  0.65884  0.34815  0.43697  1.0000
  C   C1484     1.0  0.81562  0.29218  0.47643  1.0000
  C   C1485     1.0  0.70111  0.28402  0.93889  1.0000
  C   C1486     1.0  0.80114  0.30346  0.45410  1.0000
  C   C1487     1.0  0.68536  0.26414  0.97830  1.0000
  C   C1488     1.0  0.67945  0.45360  0.03227  1.0000
  C   C1489     1.0  0.72412  0.25435  0.45437  1.0000
  H   H2500     1.0  0.81538  0.34296  0.54371  1.0000
  H   H2501     1.0  0.71850  0.26182  0.99919  1.0000
  S   S448      1.0  0.66454  0.42559  0.59323  1.0000
  H   H2502     1.0  0.66015  0.37910  0.49191  1.0000
  H   H2503     1.0  0.66384  0.35355  0.53570  1.0000
  C   C1490     1.0  0.71130  0.27096  0.20145  1.0000
  C   C1491     1.0  0.68375  0.47625  0.02567  1.0000
  H   H2504     1.0  0.67737  0.44499  0.80618  1.0000
  C   C1492     1.0  0.80741  0.31432  0.46285  1.0000
  H   H2505     1.0  0.67298  0.45618  0.83111  1.0000
  H   H2506     1.0  0.66140  0.42295  0.77812  1.0000
  H   H2507     1.0  0.70658  0.47668  0.97955  1.0000
  H   H2508     1.0  0.74175  0.28651  0.90952  1.0000
  H   H2509     1.0  0.71034  0.27293  0.23098  1.0000
  H   H2510     1.0  0.69071  0.25836  0.58743  1.0000
  C   C1493     1.0  0.77809  0.43791  0.50473  1.0000
  C   C1494     1.0  0.73535  0.29191  0.44436  1.0000
  H   H2511     1.0  0.75551  0.29154  0.16376  1.0000
  H   H2512     1.0  0.68895  0.28755  0.72033  1.0000
  H   H2513     1.0  0.68804  0.29966  0.02470  1.0000
  H   H2514     1.0  0.71213  0.27956  0.67832  1.0000
  C   C1495     1.0  0.81469  0.28768  0.24500  1.0000
  H   H2515     1.0  0.68252  0.27747  0.03484  1.0000
  H   H2516     1.0  0.68314  0.29127  0.67789  1.0000
  H   H2517     1.0  0.74747  0.29177  0.12476  1.0000
  N   N105      1.0  0.68976  0.46524  0.02600  1.0000
  H   H2518     1.0  0.69011  0.25799  0.96323  1.0000
  C   C1496     1.0  0.71919  0.28871  0.66213  1.0000
  S   S449      1.0  0.73923  0.28121  0.05148  1.0000
  H   H2519     1.0  0.66767  0.39704  0.76576  1.0000
  C   C1497     1.0  0.74043  0.28395  0.97218  1.0000
  N   N106      1.0  0.73430  0.26971  0.19306  1.0000
  N   N107      1.0  0.70918  0.38047  0.01873  1.0000
  C   C1498     1.0  0.70617  0.36648  0.03957  1.0000
  C   C1499     1.0  0.69925  0.38589  0.03989  1.0000
  C   C1500     1.0  0.72181  0.38735  0.02030  1.0000
  C   C1501     1.0  0.70948  0.38214  0.97538  1.0000
  C   C1502     1.0  0.71587  0.35934  0.02476  1.0000
  C   C1503     1.0  0.68634  0.38265  0.03175  1.0000
  C   C1504     1.0  0.72366  0.38582  0.06250  1.0000
  C   C1505     1.0  0.71193  0.39595  0.94963  1.0000
  H   H2520     1.0  0.70474  0.36481  0.07244  1.0000
  H   H2521     1.0  0.69711  0.36146  0.03638  1.0000
  H   H2522     1.0  0.70241  0.39636  0.03273  1.0000
  H   H2523     1.0  0.69755  0.38262  0.07297  1.0000
  H   H2524     1.0  0.72950  0.38446  0.00204  1.0000
  H   H2525     1.0  0.72367  0.39772  0.00620  1.0000
  H   H2526     1.0  0.71710  0.37844  0.96030  1.0000
  H   H2527     1.0  0.70087  0.37624  0.97195  1.0000
  H   H2528     1.0  0.71292  0.34938  0.04399  1.0000
  H   H2529     1.0  0.71630  0.35880  0.99382  1.0000
  H   H2530     1.0  0.72537  0.36345  0.02672  1.0000
  H   H2531     1.0  0.68679  0.38709  0.00018  1.0000
  H   H2532     1.0  0.68228  0.37228  0.03952  1.0000
  H   H2533     1.0  0.67973  0.38661  0.05054  1.0000
  H   H2534     1.0  0.73308  0.39170  0.05962  1.0000
  H   H2535     1.0  0.72341  0.37589  0.07727  1.0000
  H   H2536     1.0  0.71677  0.38930  0.08185  1.0000
  H   H2537     1.0  0.72214  0.40015  0.93530  1.0000
  H   H2538     1.0  0.70834  0.40227  0.96671  1.0000
  H   H2539     1.0  0.70696  0.39607  0.92600  1.0000
  Fe  Fe222     1.0  0.78072  0.27219  0.42659  1.0000
  C   C1506     1.0  0.80622  0.45540  0.41159  1.0000
  H   H2540     1.0  0.67386  0.49079  0.78730  1.0000
  C   C1507     1.0  0.80143  0.32410  0.89053  1.0000
  H   H2541     1.0  0.69891  0.46487  0.71674  1.0000
  C   C1508     1.0  0.66831  0.45052  0.06993  1.0000
  Fe  Fe223     1.0  0.75688  0.27704  0.40595  1.0000
  C   C1509     1.0  0.65758  0.27907  0.95878  1.0000
  H   H2542     1.0  0.72473  0.25995  0.54690  1.0000
  H   H2543     1.0  0.80329  0.39304  0.53390  1.0000
  C   C1510     1.0  0.73918  0.29016  0.93508  1.0000
  H   H2544     1.0  0.67930  0.26723  0.95927  1.0000
  H   H2545     1.0  0.72050  0.24839  0.43631  1.0000
  H   H2546     1.0  0.81785  0.45890  0.01938  1.0000
  S   S450      1.0  0.79774  0.27818  0.45029  1.0000
  C   C1511     1.0  0.67523  0.48565  0.92301  1.0000
  H   H2547     1.0  0.72509  0.27355  0.14557  1.0000
  H   H2548     1.0  0.77526  0.42982  0.49235  1.0000
  H   H2549     1.0  0.68293  0.44494  0.03384  1.0000
  C   C1512     1.0  0.80439  0.29300  0.00361  1.0000
  H   H2550     1.0  0.69414  0.47013  0.96130  1.0000
  H   H2551     1.0  0.70333  0.25167  0.02173  1.0000
  H   H2552     1.0  0.80359  0.33400  0.89285  1.0000
  H   H2553     1.0  0.79642  0.28847  0.02959  1.0000
  H   H2554     1.0  0.75608  0.27534  0.22312  1.0000
  S   S451      1.0  0.76037  0.26198  0.99324  1.0000
  C   C1513     1.0  0.78018  0.26581  0.21354  1.0000
  H   H2555     1.0  0.66248  0.44077  0.07520  1.0000
  H   H2556     1.0  0.74474  0.26853  0.13569  1.0000
  H   H2557     1.0  0.78678  0.31047  0.01691  1.0000
  H   H2558     1.0  0.73830  0.29541  0.66891  1.0000
  Fe  Fe224     1.0  0.77342  0.26538  0.35337  1.0000
  H   H2559     1.0  0.76475  0.30242  0.92332  1.0000
  H   H2560     1.0  0.78815  0.27398  0.20139  1.0000
  H   H2561     1.0  0.68016  0.35803  0.63477  1.0000
  H   H2562     1.0  0.68059  0.35544  0.58623  1.0000
  N   N108      1.0  0.76232  0.36188  0.35501  1.0000
  C   C1514     1.0  0.75004  0.35298  0.38177  1.0000
  C   C1515     1.0  0.76161  0.37521  0.35523  1.0000
  C   C1516     1.0  0.77254  0.35871  0.37347  1.0000
  C   C1517     1.0  0.76439  0.35993  0.31359  1.0000
  C   C1518     1.0  0.74934  0.33865  0.38996  1.0000
  C   C1519     1.0  0.75013  0.37914  0.34459  1.0000
  C   C1520     1.0  0.78590  0.36726  0.35311  1.0000
  C   C1521     1.0  0.77234  0.37139  0.27788  1.0000
  H   H2563     1.0  0.74767  0.35499  0.41143  1.0000
  H   H2564     1.0  0.74214  0.35444  0.36884  1.0000
  H   H2565     1.0  0.77006  0.38241  0.33448  1.0000
  H   H2566     1.0  0.76147  0.37652  0.38537  1.0000
  H   H2567     1.0  0.77016  0.35886  0.40544  1.0000
  H   H2568     1.0  0.77335  0.34892  0.37388  1.0000
  H   H2569     1.0  0.76883  0.35190  0.31192  1.0000
  H   H2570     1.0  0.75529  0.35705  0.30672  1.0000
  H   H2571     1.0  0.75474  0.33563  0.41128  1.0000
  H   H2572     1.0  0.73944  0.33316  0.40455  1.0000
  H   H2573     1.0  0.75257  0.33591  0.36208  1.0000
  H   H2574     1.0  0.74164  0.37512  0.37058  1.0000
  H   H2575     1.0  0.75186  0.38964  0.33728  1.0000
  H   H2576     1.0  0.74822  0.37618  0.31838  1.0000
  H   H2577     1.0  0.78997  0.36548  0.32417  1.0000
  H   H2578     1.0  0.79202  0.36477  0.37251  1.0000
  H   H2579     1.0  0.78648  0.37749  0.34917  1.0000
  H   H2580     1.0  0.76727  0.37890  0.27226  1.0000
  H   H2581     1.0  0.77426  0.36823  0.25018  1.0000
  H   H2582     1.0  0.78152  0.37568  0.28148  1.0000
  H   H2583     1.0  0.80038  0.25331  0.86824  1.0000
  H   H2584     1.0  0.73072  0.28296  0.54543  1.0000
  H   H2585     1.0  0.71210  0.28015  0.99530  1.0000
  C   C1522     1.0  0.71962  0.29328  0.51555  1.0000
  H   H2586     1.0  0.77251  0.29930  0.04661  1.0000
  C   C1523     1.0  0.72928  0.28716  0.51690  1.0000
  C   C1524     1.0  0.73175  0.28664  0.66924  1.0000
  H   H2587     1.0  0.71381  0.31633  0.72573  1.0000
  H   H2588     1.0  0.73008  0.27950  0.69839  1.0000
  H   H2589     1.0  0.73240  0.31334  0.66791  1.0000
  H   H2590     1.0  0.68775  0.45010  0.73921  1.0000
  C   C1525     1.0  0.69937  0.36151  0.59442  1.0000
  H   H2591     1.0  0.70309  0.35724  0.57023  1.0000
  H   H2592     1.0  0.73511  0.37891  0.54117  1.0000
  C   C1526     1.0  0.79647  0.36324  0.48860  1.0000
  H   H2593     1.0  0.70954  0.37837  0.62944  1.0000
  H   H2594     1.0  0.72421  0.36425  0.56981  1.0000
  H   H2595     1.0  0.68878  0.37070  0.66838  1.0000
  C   C1527     1.0  0.70314  0.38189  0.61255  1.0000
  C   C1528     1.0  0.72604  0.37469  0.56479  1.0000
  H   H2596     1.0  0.68257  0.38005  0.63241  1.0000
  H   H2597     1.0  0.68905  0.39601  0.52205  1.0000
  C   C1529     1.0  0.78041  0.29515  0.90231  1.0000
  C   C1530     1.0  0.72452  0.31206  0.65405  1.0000
  H   H2598     1.0  0.72739  0.37722  0.59214  1.0000
  C   C1531     1.0  0.69668  0.39419  0.53577  1.0000
  H   H2599     1.0  0.72991  0.30304  0.02694  1.0000
  H   H2600     1.0  0.70724  0.28727  0.73616  1.0000
  N   N109      1.0  0.71499  0.29951  0.67526  1.0000
  N   N110      1.0  0.70276  0.37581  0.57890  1.0000
  C   C1532     1.0  0.71575  0.38005  0.54994  1.0000
  H   H2601     1.0  0.71962  0.28952  0.63009  1.0000
  H   H2602     1.0  0.72309  0.31272  0.59267  1.0000
  C   C1533     1.0  0.72963  0.25551  0.21035  1.0000
  H   H2603     1.0  0.76037  0.33243  0.95378  1.0000
  S   S452      1.0  0.67690  0.45167  0.49084  1.0000
  Fe  Fe225     1.0  0.66594  0.41678  0.94961  1.0000
  H   H2604     1.0  0.68404  0.37704  0.57463  1.0000
  C   C1534     1.0  0.69071  0.37974  0.64466  1.0000
  H   H2605     1.0  0.71551  0.37750  0.52161  1.0000
  H   H2606     1.0  0.70750  0.39227  0.60111  1.0000
  H   H2607     1.0  0.72028  0.32013  0.65742  1.0000
  H   H2608     1.0  0.73579  0.32444  0.59541  1.0000
  C   C1535     1.0  0.73031  0.31439  0.60868  1.0000
  S   S453      1.0  0.66136  0.39030  0.58965  1.0000
  H   H2609     1.0  0.69958  0.26981  0.03582  1.0000
  C   C1536     1.0  0.67455  0.45407  0.80154  1.0000
  C   C1537     1.0  0.69388  0.37988  0.55571  1.0000
  H   H2610     1.0  0.69380  0.37500  0.53159  1.0000
  H   H2611     1.0  0.80413  0.32287  0.45748  1.0000
  C   C1538     1.0  0.66297  0.35311  0.45676  1.0000
  C   C1539     1.0  0.73720  0.28861  0.00530  1.0000
  C   C1540     1.0  0.72708  0.25074  0.54923  1.0000
  C   C1541     1.0  0.71792  0.29887  0.47857  1.0000
  C   C1542     1.0  0.73714  0.28648  0.48136  1.0000
  H   H2612     1.0  0.71041  0.30348  0.47729  1.0000
  C   C1543     1.0  0.67393  0.34744  0.46447  1.0000
  C   C1544     1.0  0.70289  0.30038  0.66491  1.0000
  H   H2613     1.0  0.67865  0.35179  0.48408  1.0000
  S   S454      1.0  0.74477  0.29081  0.39950  1.0000
  C   C1545     1.0  0.67145  0.47244  0.93136  1.0000
  H   H2614     1.0  0.81727  0.37415  0.04482  1.0000
  H   H2615     1.0  0.77540  0.29114  0.88263  1.0000
  H   H2616     1.0  0.70567  0.25597  0.58928  1.0000
  H   H2617     1.0  0.79753  0.37108  0.46159  1.0000
  S   S455      1.0  0.79582  0.27359  0.97162  1.0000
  H   H2618     1.0  0.70019  0.30910  0.66970  1.0000
  H   H2619     1.0  0.73130  0.25053  0.46630  1.0000
  C   C1546     1.0  0.68100  0.47681  0.76131  1.0000
  H   H2620     1.0  0.75757  0.31976  0.93147  1.0000
  C   C1547     1.0  0.69140  0.28910  0.68743  1.0000
  H   H2621     1.0  0.66485  0.46435  0.43695  1.0000
  H   H2622     1.0  0.81061  0.44768  0.40556  1.0000
  C   C1548     1.0  0.69274  0.48956  0.01433  1.0000
  H   H2623     1.0  0.70556  0.39776  0.51123  1.0000
  C   C1549     1.0  0.70210  0.45539  0.79452  1.0000
  H   H2624     1.0  0.68878  0.48427  0.73805  1.0000
  H   H2625     1.0  0.77663  0.31348  0.88351  1.0000
  H   H2626     1.0  0.78585  0.34336  0.50339  1.0000
  H   H2627     1.0  0.70310  0.26967  0.90528  1.0000
  C   C1550     1.0  0.69855  0.45085  0.07560  1.0000
  H   H2628     1.0  0.69113  0.44547  0.10374  1.0000
  C   C1551     1.0  0.66868  0.49207  0.94661  1.0000
  H   H2629     1.0  0.67727  0.47507  0.05556  1.0000
  H   H2630     1.0  0.69261  0.28023  0.67979  1.0000
  H   H2631     1.0  0.80416  0.28926  0.36303  1.0000
  C   C1552     1.0  0.78954  0.44195  0.12395  1.0000
  H   H2632     1.0  0.75314  0.26767  0.17168  1.0000
  C   C1553     1.0  0.72580  0.29820  0.44301  1.0000
  C   C1554     1.0  0.79310  0.35058  0.47798  1.0000
  H   H2633     1.0  0.72241  0.29702  0.72672  1.0000
  N   N111      1.0  0.69450  0.27552  0.98068  1.0000
  C   C1555     1.0  0.81334  0.26272  0.36424  1.0000
  H   H2634     1.0  0.79394  0.42507  0.11397  1.0000
  H   H2635     1.0  0.71244  0.28535  0.87981  1.0000
  H   H2636     1.0  0.79316  0.30376  0.44221  1.0000
  H   H2637     1.0  0.72754  0.27255  0.25154  1.0000
  H   H2638     1.0  0.65767  0.45943  0.78903  1.0000
  H   H2639     1.0  0.74729  0.27712  0.26872  1.0000
  C   C1556     1.0  0.81278  0.30432  0.00201  1.0000
  H   H2640     1.0  0.78029  0.43809  0.14693  1.0000
  C   C1557     1.0  0.79959  0.43582  0.48781  1.0000
  H   H2641     1.0  0.78978  0.42080  0.54400  1.0000
  H   H2642     1.0  0.68526  0.47441  0.68399  1.0000
  C   C1558     1.0  0.79948  0.37042  0.00399  1.0000
  H   H2643     1.0  0.81224  0.46145  0.42441  1.0000
  H   H2644     1.0  0.67147  0.39981  0.71184  1.0000
  C   C1559     1.0  0.72501  0.27534  0.17514  1.0000
  H   H2645     1.0  0.79510  0.36638  0.98317  1.0000
  C   C1560     1.0  0.69602  0.46665  0.78660  1.0000
  Fe  Fe226     1.0  0.75076  0.26689  0.04791  1.0000
  H   H2646     1.0  0.69814  0.30626  0.73718  1.0000
  H   H2647     1.0  0.74368  0.27544  0.97515  1.0000
  C   C1561     1.0  0.65793  0.35895  0.52133  1.0000
  H   H2648     1.0  0.81126  0.29379  0.22288  1.0000
  H   H2649     1.0  0.70894  0.25828  0.96784  1.0000
  H   H2650     1.0  0.75724  0.31649  0.98391  1.0000
  H   H2651     1.0  0.70735  0.30396  0.77147  1.0000
  H   H2652     1.0  0.70350  0.47500  0.76594  1.0000
  H   H2653     1.0  0.72437  0.30241  0.41445  1.0000
  C   C1562     1.0  0.81562  0.41615  0.09930  1.0000
  C   C1563     1.0  0.77512  0.30618  0.91224  1.0000
  C   C1564     1.0  0.80005  0.38282  0.53584  1.0000
  H   H2654     1.0  0.70787  0.29255  0.93964  1.0000
  S   S456      1.0  0.77720  0.28351  0.37148  1.0000
  H   H2655     1.0  0.67896  0.28433  0.99033  1.0000
  C   C1565     1.0  0.67722  0.48222  0.79729  1.0000
  S   S457      1.0  0.78252  0.26796  0.28719  1.0000
  C   C1566     1.0  0.81642  0.38597  0.94821  1.0000
  C   C1567     1.0  0.80643  0.28752  0.97183  1.0000
  Fe  Fe227     1.0  0.77699  0.26371  0.01828  1.0000
  H   H2656     1.0  0.80602  0.46124  0.38219  1.0000
  C   C1568     1.0  0.66325  0.29220  0.47686  1.0000
  H   H2657     1.0  0.67092  0.33696  0.47690  1.0000
  H   H2658     1.0  0.79112  0.38165  0.52740  1.0000
  H   H2659     1.0  0.69078  0.46631  0.08503  1.0000
  N   N112      1.0  0.78005  0.31189  0.94208  1.0000
  H   H2660     1.0  0.80199  0.33816  0.58579  1.0000
  H   H2661     1.0  0.82188  0.42013  0.06832  1.0000
  H   H2662     1.0  0.79842  0.37752  0.56757  1.0000
  C   C1569     1.0  0.77627  0.32414  0.94150  1.0000
  H   H2663     1.0  0.70506  0.45205  0.76767  1.0000
  H   H2664     1.0  0.79479  0.35670  0.56528  1.0000
  H   H2665     1.0  0.77899  0.28732  0.92950  1.0000
  H   H2666     1.0  0.79992  0.33810  0.53772  1.0000
  C   C1570     1.0  0.80447  0.35718  0.54807  1.0000
  S   S458      1.0  0.76047  0.26682  0.46253  1.0000
  C   C1571     1.0  0.66833  0.39244  0.74103  1.0000
  H   H2667     1.0  0.66198  0.40052  0.90172  1.0000
  S   S459      1.0  0.81663  0.41292  0.45662  1.0000
  C   C1572     1.0  0.77489  0.26023  0.18725  1.0000
  H   H2668     1.0  0.68715  0.49644  0.02051  1.0000
  C   C1573     1.0  0.81449  0.29102  0.35100  1.0000
  H   H2669     1.0  0.78466  0.35652  0.05217  1.0000
  H   H2670     1.0  0.71712  0.27628  0.91876  1.0000
  C   C1574     1.0  0.66079  0.46565  0.96320  1.0000
  C   C1575     1.0  0.68875  0.46053  0.73218  1.0000
  C   C1576     1.0  0.79269  0.44980  0.43906  1.0000
  H   H2671     1.0  0.78052  0.32912  0.96097  1.0000
  H   H2672     1.0  0.81205  0.26711  0.30452  1.0000
  C   C1577     1.0  0.70382  0.27197  0.00291  1.0000
  N   N113      1.0  0.79152  0.44510  0.48318  1.0000
  H   H2673     1.0  0.68473  0.45908  0.67612  1.0000
  C   C1578     1.0  0.66094  0.28337  0.45491  1.0000
  H   H2674     1.0  0.73625  0.25209  0.52732  1.0000
  H   H2675     1.0  0.80010  0.27069  0.33859  1.0000
  C   C1579     1.0  0.80517  0.29225  0.46096  1.0000
  H   H2676     1.0  0.79432  0.42666  0.16115  1.0000
  H   H2677     1.0  0.67783  0.47663  0.00459  1.0000
  N   N114      1.0  0.68480  0.46446  0.77022  1.0000
  H   H2678     1.0  0.66323  0.32802  0.32920  1.0000
  H   H2679     1.0  0.78779  0.36362  0.50989  1.0000
  H   H2680     1.0  0.69351  0.46890  0.81580  1.0000
  H   H2681     1.0  0.80967  0.44078  0.47424  1.0000
  H   H2682     1.0  0.79645  0.32370  0.86725  1.0000
  H   H2683     1.0  0.71126  0.46065  0.94565  1.0000
  C   C1580     1.0  0.81639  0.44648  0.13461  1.0000
  H   H2684     1.0  0.81770  0.44284  0.97357  1.0000
  H   H2685     1.0  0.79767  0.31886  0.95410  1.0000
  H   H2686     1.0  0.79051  0.29840  0.88571  1.0000
  H   H2687     1.0  0.76441  0.29842  0.98909  1.0000
  H   H2688     1.0  0.77113  0.26356  0.90291  1.0000
  S   S460      1.0  0.77835  0.25422  0.40630  1.0000
  H   H2689     1.0  0.77195  0.31487  0.02281  1.0000
  C   C1581     1.0  0.69411  0.29607  0.00299  1.0000
  C   C1582     1.0  0.75307  0.28671  0.14152  1.0000
  C   C1583     1.0  0.81027  0.37918  0.50706  1.0000
  H   H2690     1.0  0.70284  0.29578  0.01201  1.0000
  H   H2691     1.0  0.81178  0.38575  0.47700  1.0000
  H   H2692     1.0  0.66210  0.45703  0.06563  1.0000
  C   C1584     1.0  0.69633  0.46403  0.05870  1.0000
  C   C1585     1.0  0.79855  0.42852  0.53113  1.0000
  H   H2693     1.0  0.70746  0.45224  0.08429  1.0000
  H   H2694     1.0  0.79743  0.30591  0.93442  1.0000
  H   H2695     1.0  0.77875  0.29402  0.98414  1.0000
  C   C1586     1.0  0.77468  0.30239  0.98288  1.0000
  H   H2696     1.0  0.79760  0.42866  0.47125  1.0000
  H   H2697     1.0  0.73827  0.28605  0.21622  1.0000
  C   C1587     1.0  0.68691  0.28288  0.00281  1.0000
  C   C1588     1.0  0.77672  0.30725  0.01884  1.0000
  H   H2698     1.0  0.82296  0.26147  0.35526  1.0000
  C   C1589     1.0  0.77528  0.26085  0.25537  1.0000
  C   C1590     1.0  0.73627  0.27552  0.22633  1.0000
  H   H2699     1.0  0.78732  0.45701  0.43289  1.0000
  H   H2700     1.0  0.67573  0.38723  0.74249  1.0000
  H   H2701     1.0  0.69423  0.28766  0.92445  1.0000
  H   H2702     1.0  0.72887  0.26392  0.43346  1.0000
  C   C1591     1.0  0.81259  0.29202  0.28373  1.0000
  H   H2703     1.0  0.77693  0.43364  0.53705  1.0000
  H   H2704     1.0  0.78843  0.44190  0.42807  1.0000
  C   C1592     1.0  0.81690  0.29354  0.93840  1.0000
  C   C1593     1.0  0.80827  0.38400  0.91956  1.0000
  H   H2705     1.0  0.70614  0.25826  0.47346  1.0000
  C   C1594     1.0  0.66356  0.30291  0.35358  1.0000
  H   H2706     1.0  0.77334  0.25310  0.87238  1.0000
  H   H2707     1.0  0.80997  0.43684  0.05449  1.0000
  H   H2708     1.0  0.79900  0.35174  0.04259  1.0000
  H   H2709     1.0  0.74459  0.26189  0.26009  1.0000
  H   H2710     1.0  0.78917  0.35218  0.45186  1.0000
  H   H2711     1.0  0.80641  0.42384  0.53078  1.0000
  H   H2712     1.0  0.79608  0.47511  0.50213  1.0000
  H   H2713     1.0  0.68339  0.49098  0.89844  1.0000
  H   H2714     1.0  0.69912  0.44844  0.98235  1.0000
  H   H2715     1.0  0.72771  0.28589  0.16814  1.0000
  H   H2716     1.0  0.76816  0.45044  0.47333  1.0000
  H   H2717     1.0  0.70558  0.47113  0.04842  1.0000
  H   H2718     1.0  0.79114  0.45285  0.53398  1.0000
  H   H2719     1.0  0.66554  0.29363  0.35188  1.0000
  C   C1595     1.0  0.71346  0.25557  0.48766  1.0000
  H   H2720     1.0  0.66729  0.36307  0.43829  1.0000
  H   H2721     1.0  0.81538  0.39512  0.95454  1.0000
  H   H2722     1.0  0.70371  0.26673  0.54561  1.0000
  C   C1596     1.0  0.76814  0.44558  0.50408  1.0000
  C   C1597     1.0  0.74669  0.27217  0.24511  1.0000
  H   H2723     1.0  0.65967  0.45240  0.56401  1.0000
  H   H2724     1.0  0.76207  0.28753  0.11957  1.0000
  H   H2725     1.0  0.67554  0.45460  0.00601  1.0000
  H   H2726     1.0  0.81040  0.32163  0.87937  1.0000
  C   C1598     1.0  0.79414  0.31472  0.93185  1.0000
  H   H2727     1.0  0.80382  0.25365  0.91353  1.0000
  H   H2728     1.0  0.68115  0.34940  0.43550  1.0000
  H   H2729     1.0  0.72171  0.25301  0.23803  1.0000
  C   C1599     1.0  0.76203  0.32295  0.95352  1.0000
  H   H2730     1.0  0.80600  0.35493  0.95748  1.0000
  H   H2731     1.0  0.81693  0.44972  0.19229  1.0000
  H   H2732     1.0  0.80115  0.34661  0.46866  1.0000
  H   H2733     1.0  0.80034  0.47346  0.45271  1.0000
  H   H2734     1.0  0.69624  0.30308  0.97333  1.0000
  H   H2735     1.0  0.65745  0.32244  0.29231  1.0000
  H   H2736     1.0  0.69941  0.44486  0.05481  1.0000
  C   C1600     1.0  0.65904  0.29783  0.98312  1.0000
  H   H2737     1.0  0.81915  0.38177  0.51552  1.0000
  H   H2738     1.0  0.79710  0.36374  0.06910  1.0000
  H   H2739     1.0  0.81709  0.30238  0.27369  1.0000
  C   C1601     1.0  0.70877  0.27822  0.90965  1.0000
  C   C1602     1.0  0.81927  0.36373  0.48019  1.0000
  C   C1603     1.0  0.77758  0.25793  0.89197  1.0000
  H   H2740     1.0  0.71729  0.26405  0.49650  1.0000
  H   H2741     1.0  0.80676  0.45876  0.06363  1.0000
  H   H2742     1.0  0.81234  0.39168  0.89102  1.0000
  C   C1604     1.0  0.80548  0.34336  0.55342  1.0000
  H   H2743     1.0  0.80924  0.27784  0.24985  1.0000
  H   H2744     1.0  0.67141  0.45089  0.09713  1.0000
  H   H2745     1.0  0.80232  0.29107  0.29510  1.0000
  C   C1605     1.0  0.66348  0.45769  0.49978  1.0000
  H   H2746     1.0  0.67056  0.31026  0.32798  1.0000
  H   H2747     1.0  0.66302  0.40888  0.51678  1.0000
  H   H2748     1.0  0.80689  0.25314  0.37190  1.0000
  N   N115      1.0  0.80750  0.36552  0.50569  1.0000
  H   H2749     1.0  0.79360  0.45097  0.12950  1.0000
  H   H2750     1.0  0.81280  0.42021  0.15619  1.0000
  C   C1606     1.0  0.70567  0.45771  0.97758  1.0000
  H   H2751     1.0  0.81674  0.43378  0.19181  1.0000
  H   H2752     1.0  0.81856  0.28941  0.91359  1.0000
  H   H2753     1.0  0.80257  0.43933  0.19450  1.0000
  C   C1607     1.0  0.69966  0.25752  0.56889  1.0000
  H   H2754     1.0  0.67293  0.47596  0.74828  1.0000
  H   H2755     1.0  0.66944  0.47545  0.82208  1.0000
  H   H2756     1.0  0.70720  0.26074  0.20580  1.0000
  N   N116      1.0  0.81146  0.43696  0.11412  1.0000
  H   H2757     1.0  0.70555  0.27627  0.18606  1.0000
  H   H2758     1.0  0.78786  0.44378  0.09388  1.0000
  H   H2759     1.0  0.79860  0.38476  0.93207  1.0000
  N   N117      1.0  0.81751  0.28532  0.31648  1.0000
  H   H2760     1.0  0.66911  0.37625  0.52637  1.0000
  H   H2761     1.0  0.81319  0.45528  0.12726  1.0000
  H   H2762     1.0  0.68527  0.48534  0.80887  1.0000
  H   H2763     1.0  0.81088  0.36133  0.56422  1.0000
  H   H2764     1.0  0.78660  0.26486  0.87439  1.0000
  H   H2765     1.0  0.81257  0.38806  0.02577  1.0000
  C   C1608     1.0  0.70871  0.26028  0.99692  1.0000
  C   C1609     1.0  0.81572  0.44256  0.06911  1.0000
  C   C1610     1.0  0.65955  0.46351  0.46715  1.0000
  H   H2766     1.0  0.81852  0.40763  0.11303  1.0000
  C   C1611     1.0  0.81780  0.31420  0.47866  1.0000
  C   C1612     1.0  0.81826  0.38151  0.01674  1.0000
  H   H2767     1.0  0.80587  0.41283  0.09811  1.0000
  C   C1613     1.0  0.76478  0.24946  0.20259  1.0000
  N   N118      1.0  0.81349  0.37561  0.98691  1.0000
  H   H2768     1.0  0.80790  0.37489  0.91201  1.0000
  H   H2769     1.0  0.69964  0.48993  0.03207  1.0000
  H   H2770     1.0  0.82127  0.42329  0.89744  1.0000
  C   C1614     1.0  0.81581  0.45659  0.05253  1.0000
  H   H2771     1.0  0.81605  0.36979  0.42065  1.0000
  H   H2772     1.0  0.81170  0.26580  0.39204  1.0000
  C   C1615     1.0  0.81619  0.35728  0.95409  1.0000
  H   H2773     1.0  0.81987  0.35890  0.01009  1.0000
  Fe  Fe228     1.0  0.75768  0.24979  0.43820  1.0000
  H   H2774     1.0  0.68162  0.25310  0.04148  1.0000
  H   H2775     1.0  0.69763  0.49289  0.98177  1.0000
  H   H2776     1.0  0.65724  0.38682  0.85811  1.0000
  H   H2777     1.0  0.81462  0.31093  0.32566  1.0000
  H   H2778     1.0  0.81753  0.28646  0.37682  1.0000
  H   H2779     1.0  0.81887  0.28361  0.48192  1.0000
  H   H2780     1.0  0.65814  0.37631  0.72858  1.0000
  C   C1616     1.0  0.65810  0.48542  0.97856  1.0000
  H   H2781     1.0  0.65771  0.45544  0.96962  1.0000
  H   H2782     1.0  0.82141  0.36196  0.92213  1.0000
  C   C1617     1.0  0.82186  0.30301  0.48529  1.0000
  H   H2783     1.0  0.81843  0.34795  0.96296  1.0000
  C   C1618     1.0  0.82009  0.30543  0.34170  1.0000
  H   H2784     1.0  0.81945  0.30798  0.37042  1.0000
  C   C1619     1.0  0.82018  0.36541  0.98102  1.0000
  C   C1620     1.0  0.76503  0.25021  0.27068  1.0000
  Fe  Fe229     1.0  0.76068  0.24956  0.10374  1.0000
  H   H2785     1.0  0.73702  0.25146  0.22058  1.0000
  H   H2786     1.0  0.68936  0.24768  0.53610  1.0000
  C   C1621     1.0  0.65666  0.45675  0.53870  1.0000
  C   C1622     1.0  0.72548  0.24798  0.18185  1.0000
  H   H2787     1.0  0.67185  0.50228  0.94009  1.0000
  Fe  Fe230     1.0  0.87957  0.45361  0.60852  1.0000
  S   S461      1.0  0.89593  0.44520  0.59458  1.0000
  S   S462      1.0  0.87489  0.45971  0.66600  1.0000
  Fe  Fe231     1.0  0.87199  0.45032  0.53207  1.0000
  S   S463      1.0  0.88830  0.44208  0.51309  1.0000
  S   S464      1.0  0.85904  0.45298  0.49089  1.0000
  Fe  Fe232     1.0  0.88283  0.43106  0.57762  1.0000
  S   S465      1.0  0.88222  0.41042  0.59755  1.0000
  Fe  Fe233     1.0  0.89996  0.45735  0.53153  1.0000
  S   S466      1.0  0.92072  0.46529  0.49782  1.0000
  S   S467      1.0  0.86596  0.43837  0.59631  1.0000
  S   S468      1.0  0.88415  0.46664  0.54579  1.0000
  Fe  Fe234     1.0  0.84131  0.33587  0.51525  1.0000
  S   S469      1.0  0.83640  0.34004  0.57536  1.0000
  H   H2788     1.0  0.97461  0.43762  0.07713  1.0000
  Fe  Fe235     1.0  0.86885  0.35221  0.49480  1.0000
  S   S470      1.0  0.86567  0.35765  0.55207  1.0000
  S   S471      1.0  0.88750  0.36052  0.44608  1.0000
  Fe  Fe236     1.0  0.85517  0.33732  0.58130  1.0000
  S   S472      1.0  0.85736  0.32739  0.64177  1.0000
  Fe  Fe237     1.0  0.84718  0.35999  0.54284  1.0000
  S   S473      1.0  0.83943  0.37641  0.55367  1.0000
  S   S474      1.0  0.85946  0.33132  0.52383  1.0000
  S   S475      1.0  0.85116  0.35640  0.48253  1.0000
  C   C1623     1.0  0.84144  0.42826  0.97568  1.0000
  C   C1624     1.0  0.93331  0.49511  0.96563  1.0000
  H   H2789     1.0  0.98622  0.44572  0.37659  1.0000
  H   H2790     1.0  0.91956  0.42847  0.79916  1.0000
  H   H2791     1.0  0.83576  0.29648  0.27874  1.0000
  H   H2792     1.0  0.92000  0.42291  0.88717  1.0000
  Fe  Fe238     1.0  0.88228  0.46147  0.92035  1.0000
  S   S476      1.0  0.90044  0.47562  0.88054  1.0000
  S   S477      1.0  0.86267  0.46477  0.93575  1.0000
  Fe  Fe239     1.0  0.89425  0.43967  0.92951  1.0000
  S   S478      1.0  0.91303  0.45159  0.89113  1.0000
  S   S479      1.0  0.89167  0.41883  0.95499  1.0000
  Fe  Fe240     1.0  0.90976  0.46601  0.92507  1.0000
  S   S480      1.0  0.92687  0.47167  0.94881  1.0000
  Fe  Fe241     1.0  0.90261  0.46017  0.84985  1.0000
  S   S481      1.0  0.90953  0.46014  0.78461  1.0000
  S   S482      1.0  0.89136  0.45311  0.96672  1.0000
  S   S483      1.0  0.88412  0.44705  0.88618  1.0000
  Fe  Fe242     1.0  0.96213  0.39921  0.07817  1.0000
  H   H2793     1.0  0.98338  0.45268  0.99245  1.0000
  H   H2794     1.0  0.82683  0.44965  0.12346  1.0000
  H   H2795     1.0  0.90893  0.41442  0.80109  1.0000
  S   S484      1.0  0.97606  0.39702  0.39148  1.0000
  H   H2796     1.0  0.93225  0.42982  0.84182  1.0000
  H   H2797     1.0  0.96134  0.48726  0.00388  1.0000
  H   H2798     1.0  0.92255  0.46907  0.66681  1.0000
  Fe  Fe243     1.0  0.85061  0.33877  0.92177  1.0000
  S   S485      1.0  0.84682  0.35284  0.87275  1.0000
  S   S486      1.0  0.83340  0.32464  0.96863  1.0000
  Fe  Fe244     1.0  0.87835  0.35438  0.90374  1.0000
  S   S487      1.0  0.87593  0.36903  0.85345  1.0000
  S   S488      1.0  0.89819  0.35757  0.91343  1.0000
  Fe  Fe245     1.0  0.85740  0.36749  0.89496  1.0000
  S   S489      1.0  0.85101  0.38501  0.90089  1.0000
  Fe  Fe246     1.0  0.86568  0.35295  0.83492  1.0000
  S   S490      1.0  0.86996  0.35765  0.76657  1.0000
  S   S491      1.0  0.86011  0.35374  0.94653  1.0000
  S   S492      1.0  0.86922  0.33801  0.88268  1.0000
  C   C1625     1.0  0.90650  0.36728  0.93807  1.0000
  C   C1626     1.0  0.90055  0.37356  0.96358  1.0000
  C   C1627     1.0  0.90752  0.38126  0.98190  1.0000
  C   C1628     1.0  0.92056  0.38274  0.97555  1.0000
  C   C1629     1.0  0.92652  0.37644  0.95004  1.0000
  C   C1630     1.0  0.91955  0.36880  0.93155  1.0000
  H   H2799     1.0  0.89052  0.37233  0.96961  1.0000
  H   H2800     1.0  0.90271  0.38597  0.00158  1.0000
  H   H2801     1.0  0.89543  0.42300  0.07118  1.0000
  H   H2802     1.0  0.92430  0.36395  0.91215  1.0000
  H   H2803     1.0  0.86780  0.45747  0.81848  1.0000
  H   H2804     1.0  0.84671  0.28080  0.32016  1.0000
  H   H2805     1.0  0.83869  0.38304  0.99705  1.0000
  H   H2806     1.0  0.95621  0.46739  0.05161  1.0000
  H   H2807     1.0  0.84419  0.45181  0.78901  1.0000
  C   C1631     1.0  0.93588  0.48330  0.96592  1.0000
  N   N119      1.0  0.85105  0.44194  0.83587  1.0000
  C   C1632     1.0  0.83216  0.38911  0.00271  1.0000
  H   H2808     1.0  0.90580  0.40325  0.90049  1.0000
  C   C1633     1.0  0.82858  0.42429  0.46472  1.0000
  C   C1634     1.0  0.94604  0.48055  0.98009  1.0000
  C   C1635     1.0  0.98478  0.40536  0.19347  1.0000
  H   H2809     1.0  0.94799  0.47768  0.67011  1.0000
  H   H2810     1.0  0.93658  0.47397  0.62760  1.0000
  H   H2811     1.0  0.94815  0.47147  0.98068  1.0000
  C   C1636     1.0  0.87948  0.40917  0.94404  1.0000
  C   C1637     1.0  0.87989  0.39674  0.94441  1.0000
  C   C1638     1.0  0.87114  0.38927  0.93128  1.0000
  C   C1639     1.0  0.86159  0.39404  0.91939  1.0000
  C   C1640     1.0  0.86065  0.40618  0.92150  1.0000
  C   C1641     1.0  0.86971  0.41383  0.93322  1.0000
  H   H2812     1.0  0.88723  0.39301  0.95380  1.0000
  H   H2813     1.0  0.87190  0.37986  0.93021  1.0000
  H   H2814     1.0  0.85296  0.40964  0.91398  1.0000
  H   H2815     1.0  0.86905  0.42321  0.93446  1.0000
  H   H2816     1.0  0.83112  0.41046  0.51308  1.0000
  H   H2817     1.0  0.88630  0.40420  0.51601  1.0000
  C   C1642     1.0  0.91866  0.34917  0.54059  1.0000
  C   C1643     1.0  0.96558  0.39545  0.24666  1.0000
  H   H2818     1.0  0.83205  0.44396  0.85493  1.0000
  C   C1644     1.0  0.83416  0.42028  0.49532  1.0000
  H   H2819     1.0  0.94325  0.41229  0.86551  1.0000
  C   C1645     1.0  0.83828  0.43825  0.86598  1.0000
  H   H2820     1.0  0.85123  0.46880  0.80827  1.0000
  C   C1646     1.0  0.85987  0.33587  0.67733  1.0000
  C   C1647     1.0  0.85809  0.32921  0.71752  1.0000
  C   C1648     1.0  0.86075  0.33569  0.74572  1.0000
  C   C1649     1.0  0.86559  0.34888  0.73365  1.0000
  C   C1650     1.0  0.86752  0.35548  0.69336  1.0000
  C   C1651     1.0  0.86445  0.34908  0.66564  1.0000
  H   H2821     1.0  0.85464  0.31898  0.72690  1.0000
  H   H2822     1.0  0.85935  0.33045  0.77650  1.0000
  H   H2823     1.0  0.87152  0.36561  0.68336  1.0000
  H   H2824     1.0  0.86602  0.35434  0.63492  1.0000
  C   C1652     1.0  0.90175  0.36955  0.44981  1.0000
  C   C1653     1.0  0.90260  0.37315  0.48446  1.0000
  C   C1654     1.0  0.91413  0.38014  0.48642  1.0000
  C   C1655     1.0  0.92492  0.38373  0.45365  1.0000
  C   C1656     1.0  0.92398  0.38046  0.41855  1.0000
  C   C1657     1.0  0.91247  0.37337  0.41675  1.0000
  H   H2825     1.0  0.89440  0.37049  0.50982  1.0000
  H   H2826     1.0  0.91473  0.38270  0.51361  1.0000
  C   C1658     1.0  0.98261  0.45075  0.93452  1.0000
  H   H2827     1.0  0.91191  0.37070  0.38967  1.0000
  C   C1659     1.0  0.88445  0.45945  0.69930  1.0000
  C   C1660     1.0  0.89378  0.45279  0.69750  1.0000
  C   C1661     1.0  0.90123  0.45286  0.72435  1.0000
  C   C1662     1.0  0.89936  0.45949  0.75347  1.0000
  C   C1663     1.0  0.88999  0.46607  0.75549  1.0000
  C   C1664     1.0  0.88257  0.46604  0.72854  1.0000
  H   H2828     1.0  0.89529  0.44761  0.67538  1.0000
  H   H2829     1.0  0.90851  0.44780  0.72242  1.0000
  H   H2830     1.0  0.88868  0.47146  0.77720  1.0000
  H   H2831     1.0  0.87547  0.47133  0.72994  1.0000
  C   C1665     1.0  0.93140  0.48018  0.48956  1.0000
  H   H2832     1.0  0.82474  0.28866  0.23091  1.0000
  H   H2833     1.0  0.91756  0.49041  0.50512  1.0000
  Fe  Fe247     1.0  0.96946  0.42974  0.36129  1.0000
  C   C1666     1.0  0.83139  0.28685  0.30000  1.0000
  H   H2834     1.0  0.83913  0.44049  0.89430  1.0000
  H   H2835     1.0  0.98938  0.45117  0.10134  1.0000
  H   H2836     1.0  0.90496  0.42887  0.86501  1.0000
  H   H2837     1.0  0.85880  0.47316  0.84388  1.0000
  H   H2838     1.0  0.82637  0.38783  0.93071  1.0000
  C   C1667     1.0  0.86899  0.40092  0.59118  1.0000
  C   C1668     1.0  0.86094  0.40643  0.57237  1.0000
  C   C1669     1.0  0.85109  0.39873  0.56396  1.0000
  C   C1670     1.0  0.84942  0.38558  0.57368  1.0000
  C   C1671     1.0  0.85692  0.38005  0.59498  1.0000
  C   C1672     1.0  0.86681  0.38770  0.60320  1.0000
  H   H2839     1.0  0.86258  0.41663  0.56282  1.0000
  H   H2840     1.0  0.84521  0.40298  0.54788  1.0000
  H   H2841     1.0  0.85515  0.36985  0.60474  1.0000
  H   H2842     1.0  0.87296  0.38334  0.61785  1.0000
  C   C1673     1.0  0.87090  0.43398  0.81444  1.0000
  H   H2843     1.0  0.82558  0.44213  0.05687  1.0000
  C   C1674     1.0  0.83741  0.45252  0.95835  1.0000
  H   H2844     1.0  0.97952  0.44964  0.17513  1.0000
  H   H2845     1.0  0.83585  0.46193  0.95114  1.0000
  C   C1675     1.0  0.84190  0.44563  0.45050  1.0000
  C   C1676     1.0  0.84740  0.44165  0.48139  1.0000
  C   C1677     1.0  0.84347  0.42888  0.50367  1.0000
  C   C1678     1.0  0.94432  0.48118  0.47613  1.0000
  H   H2846     1.0  0.84751  0.42569  0.52768  1.0000
  H   H2847     1.0  0.89092  0.41665  0.39210  1.0000
  H   H2848     1.0  0.96044  0.39278  0.27801  1.0000
  C   C1679     1.0  0.93078  0.47728  0.65095  1.0000
  H   H2849     1.0  0.83326  0.30946  0.91082  1.0000
  H   H2850     1.0  0.88971  0.40324  0.06132  1.0000
  C   C1680     1.0  0.84974  0.45119  0.95403  1.0000
  H   H2851     1.0  0.83416  0.39720  0.97578  1.0000
  C   C1681     1.0  0.85165  0.43901  0.96325  1.0000
  C   C1682     1.0  0.84387  0.43355  0.78000  1.0000
  H   H2852     1.0  0.86105  0.43790  0.96104  1.0000
  C   C1683     1.0  0.87732  0.39301  0.48123  1.0000
  N   N120      1.0  0.93324  0.43692  0.45979  1.0000
  C   C1684     1.0  0.94074  0.43908  0.48902  1.0000
  C   C1685     1.0  0.91963  0.43200  0.48366  1.0000
  C   C1686     1.0  0.93540  0.44951  0.42923  1.0000
  C   C1687     1.0  0.93788  0.42751  0.43968  1.0000
  C   C1688     1.0  0.95477  0.44599  0.47052  1.0000
  C   C1689     1.0  0.91614  0.41892  0.51479  1.0000
  C   C1690     1.0  0.92506  0.45136  0.40828  1.0000
  C   C1691     1.0  0.93077  0.42296  0.41119  1.0000
  H   H2853     1.0  0.93660  0.44475  0.50813  1.0000
  H   H2854     1.0  0.94048  0.42992  0.50987  1.0000
  H   H2855     1.0  0.91327  0.43117  0.46430  1.0000
  H   H2856     1.0  0.91672  0.43888  0.49988  1.0000
  H   H2857     1.0  0.93669  0.45748  0.44307  1.0000
  H   H2858     1.0  0.94432  0.45154  0.40533  1.0000
  H   H2859     1.0  0.94770  0.43170  0.42096  1.0000
  H   H2860     1.0  0.93857  0.41903  0.46170  1.0000
  H   H2861     1.0  0.95995  0.44084  0.45223  1.0000
  H   H2862     1.0  0.95618  0.45585  0.45240  1.0000
  H   H2863     1.0  0.95923  0.44666  0.49505  1.0000
  H   H2864     1.0  0.91822  0.41134  0.50077  1.0000
  H   H2865     1.0  0.92076  0.41910  0.53908  1.0000
  H   H2866     1.0  0.90589  0.41624  0.52943  1.0000
  H   H2867     1.0  0.92856  0.46045  0.38409  1.0000
  H   H2868     1.0  0.91663  0.45225  0.42947  1.0000
  H   H2869     1.0  0.92242  0.44374  0.39432  1.0000
  H   H2870     1.0  0.93448  0.42961  0.38056  1.0000
  H   H2871     1.0  0.92053  0.42153  0.42176  1.0000
  H   H2872     1.0  0.93208  0.41346  0.40954  1.0000
  N   N121      1.0  0.96087  0.43736  0.20321  1.0000
  C   C1692     1.0  0.96326  0.42796  0.17951  1.0000
  H   H2873     1.0  0.83517  0.41823  0.89902  1.0000
  C   C1693     1.0  0.95487  0.44663  0.18114  1.0000
  C   C1694     1.0  0.95218  0.42993  0.24389  1.0000
  C   C1695     1.0  0.95220  0.42177  0.16554  1.0000
  H   H2874     1.0  0.96255  0.48957  0.25991  1.0000
  C   C1696     1.0  0.95323  0.49270  0.46900  1.0000
  H   H2875     1.0  0.84341  0.46297  0.86177  1.0000
  H   H2876     1.0  0.84605  0.42456  0.79277  1.0000
  H   H2877     1.0  0.96604  0.41999  0.19717  1.0000
  H   H2878     1.0  0.94112  0.42285  0.89538  1.0000
  H   H2879     1.0  0.91673  0.44442  0.99548  1.0000
  H   H2880     1.0  0.95869  0.44854  0.14823  1.0000
  H   H2881     1.0  0.94462  0.44248  0.18761  1.0000
  H   H2882     1.0  0.94306  0.42504  0.24087  1.0000
  H   H2883     1.0  0.95564  0.42188  0.25831  1.0000
  H   H2884     1.0  0.94916  0.42877  0.14487  1.0000
  H   H2885     1.0  0.95533  0.41525  0.14826  1.0000
  H   H2886     1.0  0.94411  0.41593  0.19108  1.0000
  N   N122      1.0  0.92014  0.41197  0.84356  1.0000
  H   H2887     1.0  0.84490  0.45546  0.43281  1.0000
  H   H2888     1.0  0.86848  0.43206  0.44718  1.0000
  Fe  Fe248     1.0  0.98582  0.41531  0.40150  1.0000
  C   C1697     1.0  0.82523  0.30495  0.93665  1.0000
  C   C1698     1.0  0.89088  0.40940  0.41923  1.0000
  H   H2889     1.0  0.97696  0.48499  0.93925  1.0000
  C   C1699     1.0  0.98409  0.45447  0.38015  1.0000
  H   H2890     1.0  0.85953  0.43085  0.87478  1.0000
  N   N123      1.0  0.86780  0.39645  0.72886  1.0000
  C   C1700     1.0  0.85565  0.38625  0.74088  1.0000
  C   C1701     1.0  0.87144  0.39694  0.76682  1.0000
  C   C1702     1.0  0.87759  0.39231  0.70197  1.0000
  C   C1703     1.0  0.86568  0.40877  0.70711  1.0000
  C   C1704     1.0  0.85065  0.38306  0.70637  1.0000
  C   C1705     1.0  0.86229  0.40096  0.79776  1.0000
  C   C1706     1.0  0.89106  0.40083  0.68783  1.0000
  C   C1707     1.0  0.87505  0.42128  0.70406  1.0000
  H   H2891     1.0  0.85652  0.37718  0.75955  1.0000
  H   H2892     1.0  0.84796  0.38893  0.76000  1.0000
  H   H2893     1.0  0.88078  0.40337  0.76102  1.0000
  H   H2894     1.0  0.87245  0.38746  0.78210  1.0000
  H   H2895     1.0  0.87813  0.38264  0.71698  1.0000
  H   H2896     1.0  0.87501  0.39159  0.67417  1.0000
  H   H2897     1.0  0.86556  0.40873  0.67597  1.0000
  H   H2898     1.0  0.85618  0.40968  0.72136  1.0000
  H   H2899     1.0  0.84105  0.37668  0.71914  1.0000
  H   H2900     1.0  0.85001  0.39157  0.68469  1.0000
  H   H2901     1.0  0.85636  0.37774  0.69040  1.0000
  H   H2902     1.0  0.86670  0.40252  0.82180  1.0000
  H   H2903     1.0  0.86007  0.40992  0.78450  1.0000
  H   H2904     1.0  0.85351  0.39336  0.81260  1.0000
  H   H2905     1.0  0.89167  0.41038  0.66896  1.0000
  H   H2906     1.0  0.89705  0.39652  0.66833  1.0000
  H   H2907     1.0  0.89524  0.40147  0.71283  1.0000
  H   H2908     1.0  0.87876  0.42695  0.67215  1.0000
  H   H2909     1.0  0.88326  0.42022  0.71514  1.0000
  H   H2910     1.0  0.87016  0.42723  0.71992  1.0000
  H   H2911     1.0  0.83399  0.27965  0.36140  1.0000
  C   C1708     1.0  0.94883  0.43746  0.27435  1.0000
  Fe  Fe249     1.0  0.97670  0.41197  0.99027  1.0000
  H   H2912     1.0  0.83039  0.36965  0.96725  1.0000
  H   H2913     1.0  0.84314  0.41891  0.98234  1.0000
  H   H2914     1.0  0.87021  0.43466  0.78352  1.0000
  C   C1709     1.0  0.92998  0.40815  0.81553  1.0000
  C   C1710     1.0  0.93847  0.47901  0.68122  1.0000
  H   H2915     1.0  0.96324  0.47218  0.36632  1.0000
  C   C1711     1.0  0.87314  0.41394  0.46247  1.0000
  C   C1712     1.0  0.92681  0.42056  0.86384  1.0000
  H   H2916     1.0  0.90113  0.40295  0.37078  1.0000
  H   H2917     1.0  0.91270  0.46601  0.62008  1.0000
  H   H2918     1.0  0.89969  0.44474  0.05730  1.0000
  H   H2919     1.0  0.83301  0.28000  0.28209  1.0000
  H   H2920     1.0  0.93219  0.38313  0.39310  1.0000
  H   H2921     1.0  0.82868  0.44024  0.41781  1.0000
  C   C1713     1.0  0.96633  0.39483  0.17774  1.0000
  H   H2922     1.0  0.88528  0.38763  0.53076  1.0000
  H   H2923     1.0  0.87262  0.39084  0.41183  1.0000
  H   H2924     1.0  0.93862  0.41610  0.80191  1.0000
  C   C1714     1.0  0.82712  0.44173  0.97115  1.0000
  H   H2925     1.0  0.91100  0.45920  0.02893  1.0000
  H   H2926     1.0  0.93091  0.48437  0.57407  1.0000
  H   H2927     1.0  0.97248  0.44968  0.94822  1.0000
  C   C1715     1.0  0.98216  0.45476  0.09045  1.0000
  C   C1716     1.0  0.96460  0.45168  0.06179  1.0000
  H   H2928     1.0  0.85378  0.38508  0.47010  1.0000
  H   H2929     1.0  0.90505  0.40211  0.06324  1.0000
  C   C1717     1.0  0.90203  0.42315  0.84553  1.0000
  H   H2930     1.0  0.87969  0.41828  0.47768  1.0000
  S   S493      1.0  0.82524  0.32830  0.48923  1.0000
  H   H2931     1.0  0.94598  0.43096  0.30515  1.0000
  H   H2932     1.0  0.97109  0.48115  0.07495  1.0000
  H   H2933     1.0  0.87837  0.38429  0.47199  1.0000
  H   H2934     1.0  0.87046  0.40612  0.39431  1.0000
  H   H2935     1.0  0.93233  0.42065  0.96277  1.0000
  S   S494      1.0  0.96052  0.41949  0.97620  1.0000
  H   H2936     1.0  0.89680  0.41469  0.43438  1.0000
  H   H2937     1.0  0.94095  0.44168  0.26978  1.0000
  C   C1718     1.0  0.92747  0.49094  0.49551  1.0000
  H   H2938     1.0  0.89468  0.38562  0.88801  1.0000
  H   H2939     1.0  0.93650  0.37740  0.94473  1.0000
  H   H2940     1.0  0.82980  0.30269  0.49736  1.0000
  C   C1719     1.0  0.85245  0.46521  0.83842  1.0000
  H   H2941     1.0  0.95685  0.44491  0.27410  1.0000
  H   H2942     1.0  0.89207  0.39003  0.41274  1.0000
  S   S495      1.0  0.92883  0.39275  0.99953  1.0000
  H   H2943     1.0  0.92668  0.43164  0.08559  1.0000
  H   H2944     1.0  0.90429  0.40801  0.12136  1.0000
  H   H2945     1.0  0.91713  0.41292  0.14052  1.0000
  H   H2946     1.0  0.93493  0.42811  0.02266  1.0000
  S   S496      1.0  0.95889  0.38899  0.14410  1.0000
  S   S497      1.0  0.96420  0.39206  0.02263  1.0000
  C   C1720     1.0  0.95355  0.48946  0.99340  1.0000
  S   S498      1.0  0.94526  0.40594  0.06913  1.0000
  C   C1721     1.0  0.91444  0.41281  0.11244  1.0000
  C   C1722     1.0  0.91810  0.44251  0.02605  1.0000
  C   C1723     1.0  0.97120  0.46940  0.37434  1.0000
  S   S499      1.0  0.96747  0.41965  0.42493  1.0000
  C   C1724     1.0  0.85545  0.39348  0.44442  1.0000
  H   H2947     1.0  0.90627  0.39986  0.41496  1.0000
  C   C1725     1.0  0.91075  0.33652  0.57118  1.0000
  N   N124      1.0  0.87772  0.40375  0.44627  1.0000
  C   C1726     1.0  0.89780  0.39992  0.40404  1.0000
  H   H2948     1.0  0.89519  0.36238  0.62172  1.0000
  H   H2949     1.0  0.90784  0.38395  0.85251  1.0000
  H   H2950     1.0  0.92246  0.35605  0.55583  1.0000
  H   H2951     1.0  0.85259  0.42232  0.84584  1.0000
  C   C1727     1.0  0.89570  0.35748  0.59766  1.0000
  H   H2952     1.0  0.91368  0.35364  0.52030  1.0000
  H   H2953     1.0  0.90458  0.36240  0.57427  1.0000
  C   C1728     1.0  0.96351  0.46389  0.06216  1.0000
  H   H2954     1.0  0.88767  0.35870  0.58547  1.0000
  C   C1729     1.0  0.98119  0.46706  0.09009  1.0000
  H   H2955     1.0  0.92672  0.34737  0.52024  1.0000
  H   H2956     1.0  0.91996  0.40715  0.09764  1.0000
  H   H2957     1.0  0.89364  0.34854  0.53829  1.0000
  H   H2958     1.0  0.91530  0.33521  0.59594  1.0000
  H   H2959     1.0  0.84421  0.29490  0.33150  1.0000
  S   S500      1.0  0.93932  0.39193  0.45875  1.0000
  S   S501      1.0  0.95433  0.44248  0.04282  1.0000
  H   H2960     1.0  0.89445  0.41462  0.86385  1.0000
  C   C1730     1.0  0.88704  0.39590  0.50439  1.0000
  H   H2961     1.0  0.86797  0.39004  0.50357  1.0000
  C   C1731     1.0  0.89052  0.33839  0.55506  1.0000
  H   H2962     1.0  0.88513  0.33950  0.63723  1.0000
  C   C1732     1.0  0.89471  0.34333  0.61606  1.0000
  C   C1733     1.0  0.91163  0.47503  0.60226  1.0000
  H   H2963     1.0  0.91859  0.48557  0.71878  1.0000
  H   H2964     1.0  0.85110  0.40070  0.45480  1.0000
  H   H2965     1.0  0.88735  0.32079  0.53599  1.0000
  H   H2966     1.0  0.96313  0.49323  0.45902  1.0000
  N   N125      1.0  0.89692  0.33525  0.58758  1.0000
  C   C1734     1.0  0.86954  0.39872  0.42226  1.0000
  S   S502      1.0  0.97572  0.41812  0.04638  1.0000
  H   H2967     1.0  0.83170  0.36887  0.41994  1.0000
  H   H2968     1.0  0.92616  0.41253  0.75667  1.0000
  C   C1735     1.0  0.89226  0.33100  0.52328  1.0000
  H   H2969     1.0  0.88025  0.33674  0.56855  1.0000
  H   H2970     1.0  0.88803  0.33486  0.49940  1.0000
  C   C1736     1.0  0.92655  0.40419  0.77969  1.0000
  H   H2971     1.0  0.91244  0.32870  0.55764  1.0000
  H   H2972     1.0  0.93093  0.40724  0.91229  1.0000
  S   S503      1.0  0.98839  0.42663  0.33820  1.0000
  Fe  Fe250     1.0  0.95891  0.42434  0.03445  1.0000
  H   H2973     1.0  0.90749  0.48118  0.66991  1.0000
  H   H2974     1.0  0.90126  0.34295  0.63522  1.0000
  H   H2975     1.0  0.89128  0.32168  0.67272  1.0000
  C   C1737     1.0  0.91160  0.40051  0.87574  1.0000
  C   C1738     1.0  0.92299  0.48626  0.59486  1.0000
  H   H2976     1.0  0.97399  0.46918  0.97032  1.0000
  H   H2977     1.0  0.86374  0.42196  0.41817  1.0000
  H   H2978     1.0  0.90228  0.33215  0.50834  1.0000
  H   H2979     1.0  0.93103  0.43651  0.95929  1.0000
  H   H2980     1.0  0.93391  0.47153  0.71008  1.0000
  H   H2981     1.0  0.89297  0.31503  0.59240  1.0000
  C   C1739     1.0  0.95975  0.39164  0.21859  1.0000
  C   C1740     1.0  0.98105  0.47845  0.95787  1.0000
  H   H2982     1.0  0.96650  0.46559  0.17482  1.0000
  N   N126      1.0  0.92656  0.48856  0.63159  1.0000
  C   C1741     1.0  0.97866  0.47704  0.39106  1.0000
  H   H2983     1.0  0.97133  0.43241  0.15236  1.0000
  C   C1742     1.0  0.92550  0.42374  0.02053  1.0000
  C   C1743     1.0  0.90247  0.42200  0.04549  1.0000
  C   C1744     1.0  0.84991  0.44481  0.79362  1.0000
  H   H2984     1.0  0.87775  0.44247  0.81452  1.0000
  H   H2985     1.0  0.95013  0.38603  0.22863  1.0000
  H   H2986     1.0  0.91767  0.39678  0.78851  1.0000
  C   C1745     1.0  0.93598  0.41525  0.88523  1.0000
  H   H2987     1.0  0.97636  0.47904  0.29355  1.0000
  C   C1746     1.0  0.98085  0.43585  0.22588  1.0000
  N   N127      1.0  0.91558  0.42839  0.04491  1.0000
  C   C1747     1.0  0.98908  0.47358  0.40102  1.0000
  H   H2988     1.0  0.97554  0.43024  0.25693  1.0000
  C   C1748     1.0  0.97340  0.44425  0.20574  1.0000
  C   C1749     1.0  0.95662  0.45992  0.18825  1.0000
  C   C1750     1.0  0.91305  0.41953  0.82031  1.0000
  H   H2989     1.0  0.87484  0.42576  0.82358  1.0000
  H   H2990     1.0  0.89898  0.39538  0.83873  1.0000
  H   H2991     1.0  0.88038  0.31978  0.61967  1.0000
  C   C1751     1.0  0.89081  0.32154  0.61100  1.0000
  H   H2992     1.0  0.82722  0.36601  0.49329  1.0000
  H   H2993     1.0  0.86055  0.45192  0.87080  1.0000
  C   C1752     1.0  0.83922  0.28543  0.33061  1.0000
  H   H2994     1.0  0.89676  0.39736  0.48600  1.0000
  C   C1753     1.0  0.97822  0.40212  0.23433  1.0000
  H   H2995     1.0  0.83003  0.42028  0.85377  1.0000
  H   H2996     1.0  0.91273  0.45108  0.07539  1.0000
  C   C1754     1.0  0.89446  0.31676  0.64994  1.0000
  H   H2997     1.0  0.93298  0.40012  0.83239  1.0000
  H   H2998     1.0  0.91086  0.47360  0.57296  1.0000
  H   H2999     1.0  0.84774  0.43560  0.74701  1.0000
  H   H3000     1.0  0.92094  0.49486  0.57745  1.0000
  H   H3001     1.0  0.90466  0.31757  0.64436  1.0000
  H   H3002     1.0  0.94753  0.47298  0.47140  1.0000
  C   C1755     1.0  0.89984  0.40774  0.04678  1.0000
  H   H3003     1.0  0.97634  0.48556  0.39622  1.0000
  H   H3004     1.0  0.82655  0.38194  0.43259  1.0000
  H   H3005     1.0  0.89795  0.42910  0.82509  1.0000
  Fe  Fe251     1.0  0.97742  0.40890  0.32943  1.0000
  S   S504      1.0  0.98632  0.40630  0.26882  1.0000
  H   H3006     1.0  0.92809  0.44739  0.02187  1.0000
  H   H3007     1.0  0.83353  0.43215  0.78709  1.0000
  H   H3008     1.0  0.88963  0.30653  0.66344  1.0000
  S   S505      1.0  0.96508  0.44870  0.34657  1.0000
  H   H3009     1.0  0.88011  0.43022  0.40771  1.0000
  C   C1756     1.0  0.97403  0.45818  0.36844  1.0000
  C   C1757     1.0  0.87134  0.42506  0.43156  1.0000
  H   H3010     1.0  0.85042  0.39028  0.42356  1.0000
  H   H3011     1.0  0.90150  0.40658  0.01608  1.0000
  H   H3012     1.0  0.97568  0.47552  0.24836  1.0000
  H   H3013     1.0  0.95364  0.45963  0.22021  1.0000
  C   C1758     1.0  0.85802  0.43184  0.84448  1.0000
  H   H3014     1.0  0.86407  0.40986  0.48605  1.0000
  H   H3015     1.0  0.98403  0.40434  0.13398  1.0000
  H   H3016     1.0  0.85913  0.44977  0.77134  1.0000
  H   H3017     1.0  0.91049  0.43078  0.10476  1.0000
  C   C1759     1.0  0.90979  0.44958  0.04874  1.0000
  C   C1760     1.0  0.91703  0.42658  0.08674  1.0000
  C   C1761     1.0  0.82913  0.42953  0.97967  1.0000
  C   C1762     1.0  0.97190  0.47165  0.07569  1.0000
  C   C1763     1.0  0.97882  0.40195  0.16520  1.0000
  C   C1764     1.0  0.92639  0.42640  0.97554  1.0000
  C   C1765     1.0  0.97389  0.44710  0.07619  1.0000
  H   H3018     1.0  0.92434  0.41342  0.03221  1.0000
  Fe  Fe252     1.0  0.95773  0.40247  0.41025  1.0000
  H   H3019     1.0  0.91714  0.42374  0.96987  1.0000
  S   S506      1.0  0.95861  0.41310  0.34767  1.0000
  H   H3020     1.0  0.90026  0.42684  0.01796  1.0000
  Fe  Fe253     1.0  0.94791  0.40017  0.01163  1.0000
  C   C1766     1.0  0.90295  0.39093  0.86228  1.0000
  H   H3021     1.0  0.91717  0.39493  0.89115  1.0000
  C   C1767     1.0  0.85853  0.45389  0.84113  1.0000
  H   H3022     1.0  0.93404  0.40021  0.76505  1.0000
  H   H3023     1.0  0.98250  0.48254  0.98264  1.0000
  H   H3024     1.0  0.97254  0.45155  0.22198  1.0000
  H   H3025     1.0  0.98609  0.49426  0.31537  1.0000
  H   H3026     1.0  0.95087  0.46519  0.17270  1.0000
  H   H3027     1.0  0.98393  0.42952  0.20790  1.0000
  H   H3028     1.0  0.82727  0.42904  0.12069  1.0000
  C   C1768     1.0  0.97959  0.48326  0.26059  1.0000
  C   C1769     1.0  0.83262  0.43702  0.44204  1.0000
  C   C1770     1.0  0.83092  0.42418  0.87918  1.0000
  H   H3029     1.0  0.90266  0.47694  0.61640  1.0000
  C   C1771     1.0  0.91509  0.49010  0.65938  1.0000
  H   H3030     1.0  0.83009  0.30845  0.32429  1.0000
  H   H3031     1.0  0.83433  0.39324  0.02675  1.0000
  H   H3032     1.0  0.98511  0.45988  0.26774  1.0000
  H   H3033     1.0  0.98542  0.45737  0.90423  1.0000
  H   H3034     1.0  0.98344  0.44134  0.93038  1.0000
  C   C1772     1.0  0.97283  0.49382  0.25050  1.0000
  H   H3035     1.0  0.93954  0.48818  0.68849  1.0000
  C   C1773     1.0  0.91660  0.49343  0.69801  1.0000
  H   H3036     1.0  0.90752  0.49467  0.71431  1.0000
  H   H3037     1.0  0.98955  0.44196  0.22769  1.0000
  C   C1774     1.0  0.82347  0.37163  0.43591  1.0000
  C   C1775     1.0  0.82325  0.31037  0.96860  1.0000
  H   H3038     1.0  0.95299  0.49283  0.60007  1.0000
  H   H3039     1.0  0.82341  0.46304  0.05891  1.0000
  H   H3040     1.0  0.94073  0.52465  0.15828  1.0000
  Fe  Fe254     1.0  0.98084  0.52000  0.43544  1.0000
  H   H3041     1.0  0.96971  0.55306  0.02259  1.0000
  S   S507      1.0  0.96041  0.51299  0.00867  1.0000
  Fe  Fe255     1.0  0.97701  0.51261  0.03641  1.0000
  H   H3042     1.0  0.96275  0.53007  0.05648  1.0000
  C   C1776     1.0  0.96053  0.54720  0.14820  1.0000
  S   S508      1.0  0.97885  0.52561  0.16196  1.0000
  C   C1777     1.0  0.93641  0.50249  0.48866  1.0000
  H   H3043     1.0  0.95720  0.53818  0.17257  1.0000
  S   S509      1.0  0.96044  0.51796  0.46805  1.0000
  H   H3044     1.0  0.93882  0.51314  0.97805  1.0000
  H   H3045     1.0  0.97065  0.54093  0.10035  1.0000
  H   H3046     1.0  0.97053  0.52478  0.24463  1.0000
  C   C1778     1.0  0.94901  0.50072  0.58816  1.0000
  C   C1779     1.0  0.94133  0.51256  0.11857  1.0000
  C   C1780     1.0  0.98734  0.52862  0.19646  1.0000
  C   C1781     1.0  0.94935  0.50345  0.47523  1.0000
  C   C1782     1.0  0.92907  0.53799  0.09226  1.0000
  H   H3047     1.0  0.93108  0.53736  0.06095  1.0000
  H   H3048     1.0  0.94760  0.52936  0.05039  1.0000
  H   H3049     1.0  0.95554  0.52187  0.13960  1.0000
  C   C1783     1.0  0.96048  0.54752  0.02237  1.0000
  H   H3050     1.0  0.98175  0.52914  0.29451  1.0000
  C   C1784     1.0  0.98701  0.53001  0.26424  1.0000
  S   S510      1.0  0.98886  0.53077  0.04119  1.0000
  H   H3051     1.0  0.92247  0.54417  0.09508  1.0000
  C   C1785     1.0  0.98067  0.52756  0.23587  1.0000
  H   H3052     1.0  0.97553  0.49865  0.21797  1.0000
  H   H3053     1.0  0.95378  0.55357  0.02127  1.0000
  C   C1786     1.0  0.94093  0.54390  0.10270  1.0000
  C   C1787     1.0  0.95533  0.53534  0.05764  1.0000
  H   H3054     1.0  0.95408  0.55338  0.15327  1.0000
  C   C1788     1.0  0.96244  0.54512  0.10600  1.0000
  N   N128      1.0  0.95125  0.53707  0.09895  1.0000
  S   S511      1.0  0.98405  0.51161  0.38348  1.0000
  C   C1789     1.0  0.95106  0.50129  0.99278  1.0000
  H   H3055     1.0  0.92558  0.49743  0.95483  1.0000
  S   S512      1.0  0.97355  0.50297  0.10173  1.0000
  C   C1790     1.0  0.94086  0.50402  0.97887  1.0000
  H   H3056     1.0  0.93331  0.51076  0.49338  1.0000
  C   C1791     1.0  0.94730  0.52433  0.13034  1.0000
  H   H3057     1.0  0.93759  0.50431  0.14570  1.0000
  H   H3058     1.0  0.96547  0.55480  0.08473  1.0000
  H   H3059     1.0  0.94448  0.55389  0.08360  1.0000
  H   H3060     1.0  0.94847  0.50995  0.09714  1.0000
  H   H3061     1.0  0.93353  0.51377  0.10536  1.0000
  H   H3062     1.0  0.93768  0.54454  0.13389  1.0000
  H   H3063     1.0  0.91126  0.49752  0.64311  1.0000
  H   H3064     1.0  0.96972  0.55212  0.15077  1.0000
  H   H3065     1.0  0.92410  0.52858  0.11347  1.0000
  H   H3066     1.0  0.93323  0.50874  0.60233  1.0000
  H   H3067     1.0  0.96213  0.54473  0.99393  1.0000
  Fe  Fe256     1.0  0.98664  0.52022  0.10536  1.0000
  H   H3068     1.0  0.97455  0.50093  0.26725  1.0000
  H   H3069     1.0  0.93938  0.50389  0.64247  1.0000
  H   H3070     1.0  0.92365  0.50247  0.69234  1.0000
  C   C1792     1.0  0.93671  0.50081  0.61746  1.0000
  H   H3071     1.0  0.94777  0.50037  0.55841  1.0000
  H   H3072     1.0  0.95613  0.50973  0.58283  1.0000
