data_image0
_chemical_formula_structural       SCS2FeSFe2S2FeSFeS3FeS2FeS2FeSFeHS2HC4H3CH2CHC6H4C6H7C6H6CHCHCH3CH2CH5CHCH4NC7H16NC8H21NHCHNHCHC2NH2CHCHCHC2NC8H16FeH3SH6CHCHCH2SCNH3CH2C2H5CH3CSHSCH3CHSC2H3FeSCHSFeS2FeS2FeCFeS3FeSHFeS2FeSFeS3C7H3C6H4CSCHCH2C6H6CH3C2H2C3H2C2H7CHCFeHCHCHNHSCH8NCHC2HNH2CH3C2NHSH7CH4CH3CH2CH4C2FeHCH2NCHC2H2FeHC2HCH3C3HCH5C2H3CH4CH3SH3SH2SH3CH3C2H6CHCHSHCHSCH2FeS2FeS2FeSFeHS2FeS2FeS2FeSFeHS3HCSC7H4C6H2CH2CHC2H3C6H2C2H3C2H3SHCH3CH2CHCHCH2CH2CHFeHCHCH4CHFeHCH3CFeSHNH5C2H2CH2CH2NH3CH2SCHCH5CSH2CHCH7NH2C2HC2HCH7CNCH2C2H3FeNCH2CH2C2H2CFeSHCH6CHFeSCFeS2FeSFeS3FeS2FeSFeSFeS3FeCFeSC2S2CH4FeCHSCH2CHCH2CH2NSC6H4C6H2CH4CH2C7H4NH2C2HC3H8C2HCH2CH5NC8H20NC8H20NHSHCHCH7CHCSHC2HC2H2CH9SCHCHCSCHNHCHCH4CHCH3CHC2FeHC2HFeSFeH8CHSC2FeS2FeS2FeSFeS3FeS2FeS2FeSFeS3C4HCH3CHCH2C4HCH4C2H3C6H4C6H4C6H7C7H6NCH3C4H5CH4SC3SHCHCH5CH5CHFeHCH4CH3C2HC2H3NH2CH6CH3CH3C2NC8H10CH2CH2CHNH4CHCH5CH6NH4NH5CSHCHCH4CH2CHSCHC3H2SC3H9C3FeCH2CH2CH2SH4CH2CH9C2HCH2SCSHFeSFeS2FeS2FeSFeS3FeS2FeS2FeSFeS3C6H2C6H4C4HCH4C6H4C6H5CHC6H3CHCH2SH2C2H2CH5C2HNHCH2NC2HNH3CHCH2SH6NH3CH3CHC2HCH2CH2CH11C3H3CH4NH2C2H10CH2CHC2HCH6CH3CH5CH4C2HC3HCHCHCHCH2FeHC3H2CHCH5CHSNH2CH4FeH3SHFeSH6NC4HSHCH3CH4CH2CHC3H2FeSC3H2CH2CH2NCH4C2H2CHCH2FeCFeSHCSH2CSH2SHC3HSHFeH3CH3CHCH2NCH4CH3C5HCSFeSH4CH2CH6CH2NFeSC2H4CHSH8C2SH3NHCH3C3HCHCH2CH2CFeCH4FeS2FeS2FeSFeS3FeS2FeS2FeSFeS3H2SC6H4C6H3C6H7C6HNH2C7H2C7H4C4HSCH2CNC4H2C2H8C3HNH7NC8H21CHNCH2C2H3SH2NH4C3HCH6SHCH2CH2FeH5CHCH8C2HSH5CH6C3HCH3C4H6C2HSHCNH3C3H5CH2CH3CHCH2SH2C2H9C2HSCHFeH5CH2C2FeS2FeS2FeSFeS3FeS2FeS2FeSFeS3C2H2CHC2H2C6H4C2HC3HNCSCHC4H5C6H4C6H4C6H2NC8H20C2HC3HCH6CHCH8SH8C2H2CH2CHCHCH4NH2CH8C2H3NH2C2H3CHCH2C2HC3H2C2H3CH3FeH2CHSCH3CNH4CH9CHSCHC2H4SC2H5CHC2HCH3CHNH2NCH7CHCH2SCS2FeSFeSHFeS2FeSFeS3FeS2FeS2FeSFeS3FeH2CHCHCHC2H4C6HSH2C6H7CHCHC6H5CH2CHNC8H20NC4H12CH3C2H2CH2SCH2CHCSCHSCH5CNHC2H4CHC3H3C2H2CNCH2CH7NH2C2H3C2H2CH2FeH3C2H3FeSC2SCH2SFeS2FeS2FeSFeNS2FeSHFeS2FeSFeS3HC6H4C6H5C2HC6H8CHCSH2C3H2CHCH2CHFeH3SCH3SHNH2C2HCH5CH3C3NC6HCH14CH5CH6CH2C3H2SH2C2H2CH4FeSH5CHFeC2H2C2H2NCHCH6CH5SH2CH4CHCSC2H5C2HNCH2CH3SHCFeH3CH3CH2CFeSHFeS2FeSFeS3FeS2FeS2FeSFeS3CH2S2HFeSC2HCHFeH3CH4CHCHC6H4C2H3C2H3C6H4C2H4C2H3NHCSCHC2H2CHSCHCNHCHNC5H2C2H9CH3CH5CH2CH2CH4SH5C2H6CH3C2HCH4C3H3CNHC2H3CHCHCH3FeS2FeSHFeSFeS3FeS2FeS2FeSFe2S2C2H2FeSHSCH7CH4CSCHC4SCH2C3HSC6H4C5H3CNC8H19CHCH2SCH3C2H6CH5C2H5CHCHCSCHCH2CHCHCH2SH2CFeHCH6CHCH6NHCH2CHCHCH2CH2C4NCH7FeHCH2NCH4FeH2SHSH3C2H2CH
_chemical_formula_sum              "S288 C1008 Fe144 H1728 N72"
_cell_length_a       56.0441
_cell_length_b       55.8339
_cell_length_c       66.3827
_cell_angle_alpha    91.0776
_cell_angle_beta     90.8363
_cell_angle_gamma    117.615

_space_group_name_H-M_alt    "P 1"
_space_group_IT_number       1

loop_
  _space_group_symop_operation_xyz
  'x, y, z'

loop_
  _atom_site_type_symbol
  _atom_site_label
  _atom_site_symmetry_multiplicity
  _atom_site_fract_x
  _atom_site_fract_y
  _atom_site_fract_z
  _atom_site_occupancy
  S   S1        1.0  0.23656  0.24003  0.02077  1.0000
  C   C1        1.0  0.23072  0.40222  0.09568  1.0000
  S   S2        1.0  0.25340  0.17785  0.01512  1.0000
  S   S3        1.0  0.30493  0.31133  0.03081  1.0000
  Fe  Fe1       1.0  0.12293  0.45989  0.16095  1.0000
  S   S4        1.0  0.07911  0.42991  0.16000  1.0000
  Fe  Fe2       1.0  0.99946  0.25283  0.03086  1.0000
  Fe  Fe3       1.0  0.13973  0.41629  0.17065  1.0000
  S   S5        1.0  0.09689  0.38310  0.17054  1.0000
  S   S6        1.0  0.17253  0.40564  0.17996  1.0000
  Fe  Fe4       1.0  0.09098  0.40203  0.14235  1.0000
  S   S7        1.0  0.07397  0.38484  0.11044  1.0000
  Fe  Fe5       1.0  0.08921  0.41377  0.18815  1.0000
  S   S8        1.0  0.06519  0.40766  0.21671  1.0000
  S   S9        1.0  0.13467  0.43357  0.14170  1.0000
  S   S10       1.0  0.13228  0.44545  0.18991  1.0000
  Fe  Fe6       1.0  0.32762  0.38862  0.13879  1.0000
  S   S11       1.0  0.34081  0.42778  0.12284  1.0000
  S   S12       1.0  0.30993  0.34656  0.12351  1.0000
  Fe  Fe7       1.0  0.32966  0.41587  0.18070  1.0000
  S   S13       1.0  0.34293  0.45636  0.16692  1.0000
  S   S14       1.0  0.31666  0.41647  0.21288  1.0000
  Fe  Fe8       1.0  0.31167  0.43375  0.14281  1.0000
  S   S15       1.0  0.28158  0.44789  0.13248  1.0000
  Fe  Fe9       1.0  0.37078  0.44652  0.14887  1.0000
  H   H1        1.0  0.07010  0.48827  0.11649  1.0000
  S   S16       1.0  0.29709  0.39390  0.15730  1.0000
  S   S17       1.0  0.35928  0.40676  0.16397  1.0000
  H   H2        1.0  0.08809  0.47368  0.12926  1.0000
  C   C2        1.0  0.09913  0.30043  0.03454  1.0000
  C   C3        1.0  0.16242  0.43281  0.24647  1.0000
  C   C4        1.0  0.32827  0.41049  0.23627  1.0000
  C   C5        1.0  0.34696  0.40050  0.23777  1.0000
  H   H3        1.0  0.21035  0.40059  0.09335  1.0000
  H   H4        1.0  0.35447  0.39556  0.22425  1.0000
  H   H5        1.0  0.25858  0.41022  0.22427  1.0000
  C   C6        1.0  0.07483  0.39966  0.24016  1.0000
  H   H6        1.0  0.31759  0.47593  0.19628  1.0000
  H   H7        1.0  0.12487  0.46175  0.06946  1.0000
  C   C7        1.0  0.37736  0.48685  0.21703  1.0000
  H   H8        1.0  0.04641  0.35750  0.23669  1.0000
  C   C8        1.0  0.05617  0.35248  0.09781  1.0000
  C   C9        1.0  0.05400  0.35124  0.07658  1.0000
  C   C10       1.0  0.03947  0.32632  0.06583  1.0000
  C   C11       1.0  0.02650  0.30218  0.07620  1.0000
  C   C12       1.0  0.02879  0.30339  0.09742  1.0000
  C   C13       1.0  0.04364  0.32827  0.10816  1.0000
  H   H9        1.0  0.26620  0.42002  0.19891  1.0000
  H   H10       1.0  0.17894  0.45294  0.25124  1.0000
  H   H11       1.0  0.01884  0.28493  0.10566  1.0000
  H   H12       1.0  0.04490  0.32875  0.12445  1.0000
  C   C14       1.0  0.20128  0.41614  0.16511  1.0000
  C   C15       1.0  0.20849  0.43699  0.15139  1.0000
  C   C16       1.0  0.23300  0.44640  0.14122  1.0000
  C   C17       1.0  0.25040  0.43510  0.14476  1.0000
  C   C18       1.0  0.24271  0.41390  0.15813  1.0000
  C   C19       1.0  0.21833  0.40446  0.16822  1.0000
  H   H13       1.0  0.19552  0.44625  0.14895  1.0000
  H   H14       1.0  0.23420  0.46110  0.22727  1.0000
  H   H15       1.0  0.25557  0.40483  0.16098  1.0000
  H   H16       1.0  0.21288  0.38828  0.17874  1.0000
  H   H17       1.0  0.19477  0.42211  0.24920  1.0000
  H   H18       1.0  0.28586  0.42610  0.08856  1.0000
  H   H19       1.0  0.10072  0.31210  0.06525  1.0000
  C   C20       1.0  0.30391  0.32205  0.05608  1.0000
  C   C21       1.0  0.28407  0.30589  0.06940  1.0000
  C   C22       1.0  0.28606  0.31381  0.08993  1.0000
  C   C23       1.0  0.30726  0.33844  0.09726  1.0000
  C   C24       1.0  0.32636  0.35521  0.08375  1.0000
  C   C25       1.0  0.32482  0.34690  0.06335  1.0000
  H   H20       1.0  0.26778  0.28679  0.06404  1.0000
  H   H21       1.0  0.27123  0.30064  0.10025  1.0000
  H   H22       1.0  0.34294  0.37407  0.08918  1.0000
  H   H23       1.0  0.34031  0.35956  0.05323  1.0000
  H   H24       1.0  0.24543  0.42371  0.09367  1.0000
  H   H25       1.0  0.05838  0.45513  0.07648  1.0000
  C   C26       1.0  0.07662  0.47504  0.07865  1.0000
  H   H26       1.0  0.01099  0.38684  0.24635  1.0000
  C   C27       1.0  0.09847  0.45091  0.09596  1.0000
  H   H27       1.0  0.13229  0.39539  0.21352  1.0000
  C   C28       1.0  0.24926  0.10265  0.01216  1.0000
  H   H28       1.0  0.23194  0.39659  0.11145  1.0000
  H   H29       1.0  0.21316  0.45780  0.20619  1.0000
  H   H30       1.0  0.38017  0.44983  0.21830  1.0000
  C   C29       1.0  0.12043  0.37509  0.21975  1.0000
  H   H31       1.0  0.08511  0.49177  0.16331  1.0000
  H   H32       1.0  0.34830  0.22543  0.03174  1.0000
  C   C30       1.0  0.09078  0.48039  0.05827  1.0000
  H   H33       1.0  0.15309  0.43644  0.23276  1.0000
  H   H34       1.0  0.39793  0.42420  0.20851  1.0000
  H   H35       1.0  0.06814  0.48942  0.08075  1.0000
  H   H36       1.0  0.27600  0.41814  0.06275  1.0000
  H   H37       1.0  0.14243  0.46798  0.09370  1.0000
  C   C31       1.0  0.42016  0.43542  0.20993  1.0000
  H   H38       1.0  0.10301  0.44067  0.24896  1.0000
  C   C32       1.0  0.25602  0.12974  0.01755  1.0000
  H   H39       1.0  0.26973  0.13957  0.03019  1.0000
  H   H40       1.0  0.23559  0.49110  0.21660  1.0000
  H   H41       1.0  0.28868  0.45658  0.18107  1.0000
  H   H42       1.0  0.45388  0.47388  0.20638  1.0000
  N   N1        1.0  0.26134  0.38303  0.08177  1.0000
  C   C33       1.0  0.28258  0.41093  0.07626  1.0000
  C   C34       1.0  0.23445  0.38305  0.08050  1.0000
  C   C35       1.0  0.26210  0.36292  0.06656  1.0000
  C   C36       1.0  0.26819  0.37787  0.10278  1.0000
  C   C37       1.0  0.31068  0.41368  0.07153  1.0000
  C   C38       1.0  0.23744  0.33468  0.06479  1.0000
  C   C39       1.0  0.24753  0.35222  0.11307  1.0000
  H   H43       1.0  0.21745  0.36274  0.08274  1.0000
  H   H44       1.0  0.23083  0.38840  0.06506  1.0000
  H   H45       1.0  0.26464  0.37109  0.05110  1.0000
  H   H46       1.0  0.27991  0.35960  0.06957  1.0000
  H   H47       1.0  0.28736  0.37662  0.10292  1.0000
  H   H48       1.0  0.27280  0.39538  0.11324  1.0000
  H   H49       1.0  0.32538  0.43546  0.07078  1.0000
  H   H50       1.0  0.31830  0.40488  0.08319  1.0000
  H   H51       1.0  0.31061  0.40416  0.05668  1.0000
  H   H52       1.0  0.12251  0.35981  0.21003  1.0000
  H   H53       1.0  0.21950  0.33555  0.05834  1.0000
  H   H54       1.0  0.23259  0.32396  0.07913  1.0000
  H   H55       1.0  0.24210  0.32197  0.05406  1.0000
  H   H56       1.0  0.25252  0.33532  0.11078  1.0000
  H   H57       1.0  0.22639  0.34550  0.10833  1.0000
  H   H58       1.0  0.24827  0.35645  0.12955  1.0000
  N   N2        1.0  0.32046  0.24378  0.05852  1.0000
  C   C40       1.0  0.33501  0.25611  0.03944  1.0000
  C   C41       1.0  0.31606  0.26523  0.06948  1.0000
  C   C42       1.0  0.29355  0.22055  0.05232  1.0000
  C   C43       1.0  0.33720  0.23410  0.07062  1.0000
  C   C44       1.0  0.33877  0.23667  0.02447  1.0000
  C   C45       1.0  0.34175  0.29180  0.07479  1.0000
  C   C46       1.0  0.27375  0.20620  0.06914  1.0000
  C   C47       1.0  0.33241  0.23123  0.09357  1.0000
  H   H59       1.0  0.32446  0.26575  0.03105  1.0000
  H   H60       1.0  0.35560  0.27274  0.04295  1.0000
  H   H61       1.0  0.30524  0.25811  0.08368  1.0000
  H   H62       1.0  0.30260  0.27048  0.06017  1.0000
  H   H63       1.0  0.28285  0.22740  0.04135  1.0000
  H   H64       1.0  0.29624  0.20425  0.04441  1.0000
  H   H65       1.0  0.33444  0.21426  0.06443  1.0000
  H   H66       1.0  0.35901  0.24838  0.06916  1.0000
  H   H67       1.0  0.35531  0.47383  0.21800  1.0000
  H   H68       1.0  0.06347  0.36975  0.06835  1.0000
  H   H69       1.0  0.26975  0.45641  0.23586  1.0000
  H   H70       1.0  0.33684  0.30388  0.08592  1.0000
  H   H71       1.0  0.35798  0.28827  0.08156  1.0000
  H   H72       1.0  0.34928  0.30441  0.06131  1.0000
  H   H73       1.0  0.28104  0.19487  0.07882  1.0000
  H   H74       1.0  0.25450  0.19081  0.06198  1.0000
  H   H75       1.0  0.26864  0.21998  0.07818  1.0000
  H   H76       1.0  0.33486  0.21365  0.09871  1.0000
  H   H77       1.0  0.31231  0.22777  0.09833  1.0000
  H   H78       1.0  0.34813  0.24907  0.10203  1.0000
  H   H79       1.0  0.23865  0.46274  0.13083  1.0000
  N   N3        1.0  0.15801  0.38417  0.24629  1.0000
  H   H80       1.0  0.05291  0.42704  0.11603  1.0000
  C   C48       1.0  0.07604  0.47187  0.11529  1.0000
  H   H81       1.0  0.08107  0.43289  0.08890  1.0000
  N   N4        1.0  0.42087  0.48212  0.21441  1.0000
  H   H82       1.0  0.03790  0.32587  0.04956  1.0000
  C   C49       1.0  0.27741  0.45377  0.22106  1.0000
  H   H83       1.0  0.42786  0.42496  0.19948  1.0000
  C   C50       1.0  0.42869  0.48615  0.23659  1.0000
  C   C51       1.0  0.06054  0.37323  0.24686  1.0000
  N   N5        1.0  0.09275  0.47485  0.09695  1.0000
  H   H84       1.0  0.42733  0.43374  0.22522  1.0000
  H   H85       1.0  0.25781  0.09196  0.02061  1.0000
  C   C52       1.0  0.19599  0.37188  0.23728  1.0000
  H   H86       1.0  0.10097  0.44481  0.11143  1.0000
  C   C53       1.0  0.17463  0.41363  0.24147  1.0000
  H   H87       1.0  0.09901  0.31914  0.02925  1.0000
  C   C54       1.0  0.43173  0.46513  0.20388  1.0000
  H   H88       1.0  0.12048  0.30453  0.03495  1.0000
  C   C55       1.0  0.24500  0.14409  0.00689  1.0000
  C   C56       1.0  0.04956  0.44513  0.11643  1.0000
  N   N6        1.0  0.08295  0.26825  0.06476  1.0000
  C   C57       1.0  0.07021  0.26632  0.08500  1.0000
  C   C58       1.0  0.06304  0.24489  0.05172  1.0000
  C   C59       1.0  0.08700  0.29438  0.05563  1.0000
  C   C60       1.0  0.10945  0.26773  0.06799  1.0000
  C   C61       1.0  0.08561  0.29016  0.10013  1.0000
  C   C62       1.0  0.05437  0.21650  0.06001  1.0000
  C   C63       1.0  0.09241  0.42003  0.25382  1.0000
  C   C64       1.0  0.12035  0.25820  0.04989  1.0000
  H   H89       1.0  0.04951  0.26408  0.08310  1.0000
  H   H90       1.0  0.06766  0.24787  0.09284  1.0000
  H   H91       1.0  0.07055  0.24479  0.03645  1.0000
  H   H92       1.0  0.04436  0.24689  0.04915  1.0000
  H   H93       1.0  0.06746  0.29508  0.05466  1.0000
  H   H94       1.0  0.31941  0.22225  0.01695  1.0000
  H   H95       1.0  0.12543  0.28808  0.07309  1.0000
  H   H96       1.0  0.10771  0.25383  0.08037  1.0000
  H   H97       1.0  0.10701  0.29490  0.10222  1.0000
  H   H98       1.0  0.04007  0.44499  0.13104  1.0000
  H   H99       1.0  0.07608  0.28469  0.11505  1.0000
  H   H100      1.0  0.07169  0.21374  0.06542  1.0000
  H   H101      1.0  0.03975  0.21212  0.07225  1.0000
  H   H102      1.0  0.04385  0.20112  0.04776  1.0000
  H   H103      1.0  0.23772  0.42114  0.21067  1.0000
  H   H104      1.0  0.35214  0.24864  0.01230  1.0000
  Fe  Fe10      1.0  0.27515  0.27491  0.01139  1.0000
  H   H105      1.0  0.14272  0.26943  0.05032  1.0000
  H   H106      1.0  0.11382  0.26148  0.03495  1.0000
  H   H107      1.0  0.11533  0.23656  0.05108  1.0000
  S   S18       1.0  0.41590  0.47457  0.14742  1.0000
  H   H108      1.0  0.03477  0.44319  0.10443  1.0000
  H   H109      1.0  0.08728  0.28436  0.02316  1.0000
  H   H110      1.0  0.11981  0.38469  0.25101  1.0000
  H   H111      1.0  0.09889  0.37033  0.21868  1.0000
  H   H112      1.0  0.24600  0.45474  0.18739  1.0000
  H   H113      1.0  0.08414  0.30851  0.09571  1.0000
  C   C65       1.0  0.25877  0.42480  0.21302  1.0000
  H   H114      1.0  0.12357  0.43437  0.08369  1.0000
  C   C66       1.0  0.25501  0.47247  0.19797  1.0000
  H   H115      1.0  0.44883  0.48713  0.23904  1.0000
  C   C67       1.0  0.12384  0.45439  0.08491  1.0000
  H   H116      1.0  0.08879  0.46130  0.05126  1.0000
  H   H117      1.0  0.16611  0.37187  0.21695  1.0000
  S   S19       1.0  0.03030  0.26788  0.00659  1.0000
  C   C68       1.0  0.16705  0.36757  0.23319  1.0000
  N   N7        1.0  0.28135  0.47618  0.20700  1.0000
  H   H118      1.0  0.29705  0.45432  0.22494  1.0000
  H   H119      1.0  0.15328  0.34552  0.23457  1.0000
  H   H120      1.0  0.19715  0.36139  0.25103  1.0000
  C   C69       1.0  0.12829  0.37382  0.24193  1.0000
  H   H121      1.0  0.11674  0.35237  0.24644  1.0000
  H   H122      1.0  0.20206  0.36290  0.22451  1.0000
  C   C70       1.0  0.29894  0.47576  0.19017  1.0000
  C   C71       1.0  0.23352  0.47069  0.21302  1.0000
  H   H123      1.0  0.39006  0.46617  0.25249  1.0000
  H   H124      1.0  0.38599  0.46399  0.19433  1.0000
  H   H125      1.0  0.25825  0.48961  0.18817  1.0000
  H   H126      1.0  0.30340  0.42343  0.25299  1.0000
  H   H127      1.0  0.21083  0.39354  0.23867  1.0000
  C   C72       1.0  0.40917  0.46496  0.25107  1.0000
  H   H128      1.0  0.42846  0.46496  0.18726  1.0000
  H   H129      1.0  0.08126  0.48912  0.04795  1.0000
  H   H130      1.0  0.17855  0.41562  0.22501  1.0000
  C   C73       1.0  0.39083  0.46933  0.21065  1.0000
  S   S20       1.0  0.00757  0.26996  0.06360  1.0000
  H   H131      1.0  0.40430  0.44400  0.24673  1.0000
  S   S21       1.0  0.99316  0.20971  0.02823  1.0000
  C   C74       1.0  0.31811  0.41605  0.25395  1.0000
  H   H132      1.0  0.11224  0.49557  0.05922  1.0000
  H   H133      1.0  0.32362  0.49639  0.23757  1.0000
  H   H134      1.0  0.15604  0.38597  0.29931  1.0000
  C   C75       1.0  0.24766  0.40741  0.39610  1.0000
  H   H135      1.0  0.28891  0.00215  0.42046  1.0000
  S   S22       1.0  0.28774  0.02284  0.49181  1.0000
  C   C76       1.0  0.07320  0.46612  0.28930  1.0000
  C   C77       1.0  0.08454  0.31879  0.48566  1.0000
  H   H136      1.0  0.23584  0.34424  0.35828  1.0000
  H   H137      1.0  0.15208  0.27603  0.46127  1.0000
  H   H138      1.0  0.30862  0.31288  0.47645  1.0000
  Fe  Fe11      1.0  0.25308  0.25117  0.47451  1.0000
  S   S23       1.0  0.26421  0.26629  0.44223  1.0000
  C   C78       1.0  0.10636  0.22117  0.49263  1.0000
  H   H139      1.0  0.25889  0.04785  0.41475  1.0000
  S   S24       1.0  0.21228  0.21674  0.48193  1.0000
  Fe  Fe12      1.0  0.09500  0.40610  0.33393  1.0000
  S   S25       1.0  0.12231  0.45031  0.33161  1.0000
  S   S26       1.0  0.08116  0.37823  0.30606  1.0000
  Fe  Fe13      1.0  0.09133  0.40911  0.38024  1.0000
  S   S27       1.0  0.11814  0.45447  0.38072  1.0000
  S   S28       1.0  0.08043  0.39175  0.41196  1.0000
  Fe  Fe14      1.0  0.09476  0.45578  0.35341  1.0000
  C   C79       1.0  0.35558  0.39645  0.25693  1.0000
  Fe  Fe15      1.0  0.14337  0.44538  0.35895  1.0000
  S   S29       1.0  0.18860  0.46813  0.36292  1.0000
  S   S30       1.0  0.06572  0.41120  0.35436  1.0000
  S   S31       1.0  0.11837  0.40037  0.35983  1.0000
  Fe  Fe16      1.0  0.35533  0.45956  0.35379  1.0000
  S   S32       1.0  0.36707  0.42622  0.35589  1.0000
  H   H140      1.0  0.13780  0.33576  0.46082  1.0000
  Fe  Fe17      1.0  0.29655  0.41945  0.34179  1.0000
  S   S33       1.0  0.30464  0.38364  0.34276  1.0000
  S   S34       1.0  0.25348  0.40770  0.33212  1.0000
  Fe  Fe18      1.0  0.32763  0.40228  0.37179  1.0000
  S   S35       1.0  0.32108  0.38347  0.40330  1.0000
  Fe  Fe19      1.0  0.34258  0.41057  0.32669  1.0000
  S   S36       1.0  0.35693  0.39745  0.29859  1.0000
  S   S37       1.0  0.31755  0.43703  0.37144  1.0000
  S   S38       1.0  0.33296  0.44511  0.32402  1.0000
  C   C80       1.0  0.20670  0.45151  0.35416  1.0000
  C   C81       1.0  0.23436  0.46251  0.35876  1.0000
  C   C82       1.0  0.24914  0.44947  0.35195  1.0000
  C   C83       1.0  0.23627  0.42545  0.34041  1.0000
  C   C84       1.0  0.20866  0.41459  0.33569  1.0000
  C   C85       1.0  0.19387  0.42752  0.34259  1.0000
  C   C86       1.0  0.04319  0.45625  0.29393  1.0000
  H   H141      1.0  0.27046  0.45800  0.35557  1.0000
  H   H142      1.0  0.19863  0.39597  0.32680  1.0000
  H   H143      1.0  0.17260  0.41899  0.33889  1.0000
  C   C87       1.0  0.27732  0.29879  0.43116  1.0000
  C   C88       1.0  0.28457  0.30130  0.41076  1.0000
  C   C89       1.0  0.29701  0.32683  0.40172  1.0000
  C   C90       1.0  0.30268  0.35034  0.41303  1.0000
  C   C91       1.0  0.29465  0.34776  0.43323  1.0000
  C   C92       1.0  0.28189  0.32221  0.44221  1.0000
  H   H144      1.0  0.28108  0.28339  0.40198  1.0000
  H   H145      1.0  0.30303  0.32837  0.38618  1.0000
  H   H146      1.0  0.29870  0.36575  0.44211  1.0000
  H   H147      1.0  0.27599  0.32070  0.45775  1.0000
  C   C93       1.0  0.33696  0.07327  0.45808  1.0000
  S   S39       1.0  0.00152  0.28112  0.45428  1.0000
  C   C94       1.0  0.32727  0.01761  0.40717  1.0000
  H   H148      1.0  0.41093  0.36827  0.48801  1.0000
  C   C95       1.0  0.23034  0.12904  0.49865  1.0000
  H   H149      1.0  0.33188  0.35414  0.50076  1.0000
  H   H150      1.0  0.41862  0.46898  0.26643  1.0000
  C   C96       1.0  0.05860  0.36051  0.42324  1.0000
  C   C97       1.0  0.05860  0.35914  0.44442  1.0000
  C   C98       1.0  0.04142  0.33515  0.45419  1.0000
  C   C99       1.0  0.02406  0.31198  0.44289  1.0000
  C   C100      1.0  0.02414  0.31327  0.42170  1.0000
  C   C101      1.0  0.04131  0.33730  0.41192  1.0000
  H   H151      1.0  0.07166  0.37699  0.45337  1.0000
  H   H152      1.0  0.04621  0.41521  0.26912  1.0000
  H   H153      1.0  0.04097  0.33795  0.39565  1.0000
  H   H154      1.0  0.34341  0.03571  0.40049  1.0000
  H   H155      1.0  0.31825  0.11713  0.50157  1.0000
  H   H156      1.0  0.16630  0.41527  0.28477  1.0000
  C   C102      1.0  0.24230  0.08627  0.48698  1.0000
  H   H157      1.0  0.31428  0.26945  0.46296  1.0000
  H   H158      1.0  0.00169  0.45077  0.31932  1.0000
  H   H159      1.0  0.16096  0.13219  0.49598  1.0000
  C   C103      1.0  0.34556  0.40231  0.27466  1.0000
  C   C104      1.0  0.32662  0.41193  0.27300  1.0000
  H   H160      1.0  0.19432  0.32897  0.42833  1.0000
  H   H161      1.0  0.31821  0.41586  0.28641  1.0000
  C   C105      1.0  0.09496  0.41397  0.27413  1.0000
  C   C106      1.0  0.08012  0.38745  0.28076  1.0000
  C   C107      1.0  0.09839  0.30105  0.48141  1.0000
  H   H162      1.0  0.10801  0.42981  0.28468  1.0000
  H   H163      1.0  0.05443  0.41496  0.30328  1.0000
  C   C108      1.0  0.07561  0.28447  0.44776  1.0000
  C   C109      1.0  0.05295  0.25832  0.45596  1.0000
  H   H164      1.0  0.06763  0.29931  0.44654  1.0000
  H   H165      1.0  0.07836  0.27953  0.43194  1.0000
  H   H166      1.0  0.03457  0.25197  0.44628  1.0000
  H   H167      1.0  0.05793  0.24129  0.45560  1.0000
  H   H168      1.0  0.04754  0.26141  0.47139  1.0000
  H   H169      1.0  0.18010  0.37140  0.39776  1.0000
  H   H170      1.0  0.03676  0.42179  0.32192  1.0000
  C   C110      1.0  0.99652  0.42143  0.29456  1.0000
  H   H171      1.0  0.24013  0.37066  0.42472  1.0000
  C   C111      1.0  0.02783  0.41779  0.27014  1.0000
  Fe  Fe20      1.0  0.24647  0.01993  0.49050  1.0000
  H   H172      1.0  0.29227  0.02209  0.39920  1.0000
  C   C112      1.0  0.25498  0.11172  0.47797  1.0000
  H   H173      1.0  0.21947  0.37836  0.36340  1.0000
  C   C113      1.0  0.22297  0.36529  0.41385  1.0000
  H   H174      1.0  0.23934  0.02629  0.43403  1.0000
  N   N8        1.0  0.23329  0.37696  0.39362  1.0000
  H   H175      1.0  0.36976  0.35792  0.43347  1.0000
  S   S40       1.0  0.27545  0.23215  0.49091  1.0000
  C   C114      1.0  0.25352  0.36814  0.38627  1.0000
  H   H176      1.0  0.32339  0.29650  0.49082  1.0000
  H   H177      1.0  0.14379  0.34287  0.42446  1.0000
  H   H178      1.0  0.13184  0.38784  0.28283  1.0000
  H   H179      1.0  0.08295  0.45805  0.29993  1.0000
  H   H180      1.0  0.11424  0.27031  0.44237  1.0000
  H   H181      1.0  0.36995  0.38863  0.25806  1.0000
  H   H182      1.0  0.14385  0.21991  0.48714  1.0000
  H   H183      1.0  0.11495  0.31155  0.41816  1.0000
  N   N9        1.0  0.30792  0.04513  0.42733  1.0000
  C   C115      1.0  0.32872  0.04875  0.44344  1.0000
  H   H184      1.0  0.08351  0.32121  0.50223  1.0000
  C   C116      1.0  0.31549  0.07040  0.41563  1.0000
  C   C117      1.0  0.35593  0.35523  0.46461  1.0000
  H   H185      1.0  0.33419  0.26861  0.44270  1.0000
  N   N10       1.0  0.02497  0.42618  0.29138  1.0000
  H   H186      1.0  0.23390  0.41531  0.40149  1.0000
  H   H187      1.0  0.22039  0.32489  0.41547  1.0000
  C   C118      1.0  0.13357  0.22770  0.49687  1.0000
  H   H188      1.0  0.31430  0.08653  0.42505  1.0000
  H   H189      1.0  0.04301  0.46338  0.30965  1.0000
  H   H190      1.0  0.36155  0.37042  0.47708  1.0000
  C   C119      1.0  0.37562  0.32863  0.48237  1.0000
  C   C120      1.0  0.22370  0.08245  0.50202  1.0000
  N   N11       1.0  0.35125  0.32792  0.47175  1.0000
  H   H191      1.0  0.36193  0.31583  0.44332  1.0000
  S   S41       1.0  0.08059  0.48612  0.34339  1.0000
  H   H192      1.0  0.38229  0.36441  0.50245  1.0000
  H   H193      1.0  0.19986  0.34755  0.37486  1.0000
  H   H194      1.0  0.36955  0.31040  0.49170  1.0000
  H   H195      1.0  0.03591  0.46773  0.28420  1.0000
  H   H196      1.0  0.32055  0.00094  0.39561  1.0000
  H   H197      1.0  0.28399  0.05586  0.44758  1.0000
  H   H198      1.0  0.10035  0.25787  0.46559  1.0000
  C   C121      1.0  0.01653  0.38137  0.30841  1.0000
  H   H199      1.0  0.39637  0.36701  0.45252  1.0000
  H   H200      1.0  0.22644  0.32426  0.38080  1.0000
  H   H201      1.0  0.07622  0.46133  0.27355  1.0000
  H   H202      1.0  0.33690  0.35389  0.45816  1.0000
  C   C122      1.0  0.14171  0.28664  0.46849  1.0000
  H   H203      1.0  0.21129  0.37460  0.42099  1.0000
  H   H204      1.0  0.34772  0.05087  0.43704  1.0000
  H   H205      1.0  0.25947  0.33655  0.37115  1.0000
  C   C123      1.0  0.06350  0.36712  0.26686  1.0000
  H   H206      1.0  0.28661  0.41149  0.40834  1.0000
  H   H207      1.0  0.27686  0.02134  0.44817  1.0000
  C   C124      1.0  0.15340  0.39305  0.28430  1.0000
  H   H208      1.0  0.04112  0.33486  0.47047  1.0000
  H   H209      1.0  0.19212  0.32508  0.40195  1.0000
  H   H210      1.0  0.14452  0.31205  0.43007  1.0000
  H   H211      1.0  0.38252  0.38945  0.44692  1.0000
  C   C125      1.0  0.28199  0.03854  0.43791  1.0000
  C   C126      1.0  0.12035  0.32333  0.45053  1.0000
  Fe  Fe21      1.0  0.23521  0.20007  0.50059  1.0000
  H   H212      1.0  0.05201  0.34658  0.27178  1.0000
  C   C127      1.0  0.11373  0.27704  0.45818  1.0000
  H   H213      1.0  0.25495  0.41678  0.38127  1.0000
  H   H214      1.0  0.01910  0.37552  0.32388  1.0000
  N   N12       1.0  0.10206  0.29648  0.45948  1.0000
  C   C128      1.0  0.13136  0.32194  0.42961  1.0000
  H   H215      1.0  0.10965  0.33578  0.44873  1.0000
  C   C129      1.0  0.30278  0.02141  0.41338  1.0000
  C   C130      1.0  0.24272  0.34165  0.37349  1.0000
  H   H216      1.0  0.19744  0.40085  0.38230  1.0000
  H   H217      1.0  0.13987  0.14800  0.49331  1.0000
  Fe  Fe22      1.0  0.99798  0.26227  0.48547  1.0000
  H   H218      1.0  0.34114  0.07405  0.38993  1.0000
  C   C131      1.0  0.25681  0.03092  0.42426  1.0000
  C   C132      1.0  0.20673  0.33429  0.41466  1.0000
  H   H219      1.0  0.06358  0.30916  0.47957  1.0000
  C   C133      1.0  0.18935  0.37860  0.38301  1.0000
  H   H220      1.0  0.02297  0.37019  0.29761  1.0000
  H   H221      1.0  0.26877  0.38378  0.37670  1.0000
  H   H222      1.0  0.38968  0.32763  0.47108  1.0000
  C   C134      1.0  0.03395  0.41216  0.30664  1.0000
  C   C135      1.0  0.33503  0.27926  0.45721  1.0000
  C   C136      1.0  0.39293  0.35375  0.49606  1.0000
  H   H223      1.0  0.17292  0.36982  0.37133  1.0000
  C   C137      1.0  0.34435  0.30940  0.45330  1.0000
  H   H224      1.0  0.28311  0.44162  0.40936  1.0000
  H   H225      1.0  0.08412  0.48848  0.29138  1.0000
  H   H226      1.0  0.09583  0.33938  0.47971  1.0000
  H   H227      1.0  0.35224  0.07362  0.46911  1.0000
  H   H228      1.0  0.99503  0.41754  0.32771  1.0000
  C   C138      1.0  0.21088  0.36961  0.37808  1.0000
  C   C139      1.0  0.24927  0.13300  0.48386  1.0000
  H   H229      1.0  0.26557  0.41589  0.42693  1.0000
  H   H230      1.0  0.32824  0.31049  0.44394  1.0000
  H   H231      1.0  0.18399  0.38595  0.27154  1.0000
  C   C140      1.0  0.27204  0.41936  0.41107  1.0000
  H   H232      1.0  0.99901  0.37395  0.27050  1.0000
  H   H233      1.0  0.24439  0.48113  0.36766  1.0000
  H   H234      1.0  0.01073  0.29558  0.41276  1.0000
  H   H235      1.0  0.26512  0.36598  0.39918  1.0000
  C   C141      1.0  0.34303  0.08274  0.40542  1.0000
  H   H236      1.0  0.15171  0.35698  0.27078  1.0000
  H   H237      1.0  0.30044  0.06652  0.40324  1.0000
  H   H238      1.0  0.25922  0.15234  0.47671  1.0000
  S   S42       1.0  0.05767  0.22121  0.49900  1.0000
  H   H239      1.0  0.32150  0.03027  0.45262  1.0000
  H   H240      1.0  0.13974  0.28217  0.48480  1.0000
  H   H241      1.0  0.35888  0.08047  0.41398  1.0000
  S   S43       1.0  0.25497  0.27756  0.50103  1.0000
  H   H242      1.0  0.34885  0.27614  0.46768  1.0000
  H   H243      1.0  0.26931  0.11502  0.46625  1.0000
  S   S44       1.0  0.25011  0.06007  0.47851  1.0000
  H   H244      1.0  0.09604  0.20837  0.47961  1.0000
  H   H245      1.0  0.34634  0.09266  0.45013  1.0000
  H   H246      1.0  0.35070  0.10493  0.40441  1.0000
  C   C142      1.0  0.37752  0.36786  0.44850  1.0000
  H   H247      1.0  0.33557  0.01118  0.42009  1.0000
  H   H248      1.0  0.42315  0.48856  0.34959  1.0000
  H   H249      1.0  0.31990  0.07204  0.46700  1.0000
  C   C143      1.0  0.00453  0.39167  0.26099  1.0000
  C   C144      1.0  0.16229  0.37911  0.26800  1.0000
  H   H250      1.0  0.25157  0.01251  0.41477  1.0000
  H   H251      1.0  0.08690  0.28151  0.48906  1.0000
  H   H252      1.0  0.99469  0.37438  0.30650  1.0000
  H   H253      1.0  0.15532  0.30844  0.46690  1.0000
  H   H254      1.0  0.14781  0.42636  0.25869  1.0000
  H   H255      1.0  0.11821  0.31095  0.48965  1.0000
  C   C145      1.0  0.32718  0.31656  0.48517  1.0000
  H   H256      1.0  0.03060  0.43390  0.25935  1.0000
  C   C146      1.0  0.32867  0.33355  0.50415  1.0000
  H   H257      1.0  0.33644  0.09809  0.50300  1.0000
  S   S45       1.0  0.99285  0.22002  0.48191  1.0000
  H   H258      1.0  0.30059  0.08066  0.50360  1.0000
  C   C147      1.0  0.14737  0.13815  0.50431  1.0000
  H   H259      1.0  0.20282  0.10009  0.51901  1.0000
  S   S46       1.0  0.31497  0.03088  0.54239  1.0000
  C   C148      1.0  0.14708  0.24351  0.51401  1.0000
  H   H260      1.0  0.41493  0.05622  0.57257  1.0000
  H   H261      1.0  0.44250  0.04798  0.57044  1.0000
  Fe  Fe23      1.0  0.43839  0.35420  0.68029  1.0000
  S   S47       1.0  0.46954  0.34100  0.67344  1.0000
  S   S48       1.0  0.45034  0.37843  0.70990  1.0000
  Fe  Fe24      1.0  0.40779  0.32950  0.63957  1.0000
  S   S49       1.0  0.43784  0.31532  0.63042  1.0000
  S   S50       1.0  0.36675  0.31664  0.62353  1.0000
  Fe  Fe25      1.0  0.43553  0.30194  0.66241  1.0000
  S   S51       1.0  0.42798  0.26222  0.67589  1.0000
  Fe  Fe26      1.0  0.46937  0.35638  0.64254  1.0000
  H   H262      1.0  0.39974  0.19486  0.62613  1.0000
  S   S52       1.0  0.40408  0.31400  0.67123  1.0000
  S   S53       1.0  0.43960  0.37161  0.64966  1.0000
  Fe  Fe27      1.0  0.40843  0.08150  0.64419  1.0000
  S   S54       1.0  0.44271  0.10533  0.62405  1.0000
  S   S55       1.0  0.36715  0.04937  0.63170  1.0000
  Fe  Fe28      1.0  0.44387  0.10661  0.68318  1.0000
  S   S56       1.0  0.48007  0.13231  0.66486  1.0000
  S   S57       1.0  0.45752  0.11276  0.71646  1.0000
  Fe  Fe29      1.0  0.45114  0.14010  0.64568  1.0000
  S   S58       1.0  0.46170  0.18078  0.63233  1.0000
  Fe  Fe30      1.0  0.46842  0.09539  0.64523  1.0000
  H   H263      1.0  0.28789  0.10732  0.57353  1.0000
  S   S59       1.0  0.41550  0.11697  0.66503  1.0000
  S   S60       1.0  0.43351  0.06909  0.66426  1.0000
  S   S61       1.0  0.23567  0.22406  0.52858  1.0000
  H   H264      1.0  0.38786  0.22223  0.64891  1.0000
  C   C149      1.0  0.42491  0.00711  0.63605  1.0000
  S   S62       1.0  0.31731  0.27793  0.53373  1.0000
  C   C150      1.0  0.11357  0.18323  0.53966  1.0000
  C   C151      1.0  0.35351  0.30534  0.59849  1.0000
  C   C152      1.0  0.36991  0.30752  0.58219  1.0000
  C   C153      1.0  0.35842  0.29882  0.56261  1.0000
  C   C154      1.0  0.33039  0.28769  0.55899  1.0000
  C   C155      1.0  0.31396  0.28513  0.57534  1.0000
  C   C156      1.0  0.32548  0.29399  0.59489  1.0000
  H   H265      1.0  0.39150  0.31641  0.58459  1.0000
  H   H266      1.0  0.37140  0.30101  0.55013  1.0000
  H   H267      1.0  0.29243  0.27677  0.57288  1.0000
  H   H268      1.0  0.31255  0.29228  0.60732  1.0000
  C   C157      1.0  0.43903  0.24063  0.66422  1.0000
  C   C158      1.0  0.43157  0.21517  0.67233  1.0000
  C   C159      1.0  0.43870  0.19677  0.66283  1.0000
  C   C160      1.0  0.45327  0.20371  0.64510  1.0000
  C   C161      1.0  0.46084  0.22925  0.63705  1.0000
  C   C162      1.0  0.45388  0.24774  0.64663  1.0000
  H   H269      1.0  0.42006  0.20952  0.68594  1.0000
  H   H270      1.0  0.43285  0.17721  0.66919  1.0000
  C   C163      1.0  0.37080  0.25291  0.63178  1.0000
  H   H271      1.0  0.45995  0.26743  0.64038  1.0000
  H   H272      1.0  0.11506  0.15775  0.51589  1.0000
  C   C164      1.0  0.44849  0.30899  0.74955  1.0000
  H   H273      1.0  0.09574  0.25506  0.53160  1.0000
  C   C165      1.0  0.13000  0.17352  0.52639  1.0000
  C   C166      1.0  0.44152  0.26581  0.73276  1.0000
  H   H274      1.0  0.33913  0.12225  0.53564  1.0000
  H   H275      1.0  0.42388  0.26800  0.58771  1.0000
  H   H276      1.0  0.31459  0.09239  0.59170  1.0000
  C   C167      1.0  0.32898  0.03514  0.56735  1.0000
  C   C168      1.0  0.31475  0.01895  0.58324  1.0000
  C   C169      1.0  0.32661  0.02383  0.60283  1.0000
  C   C170      1.0  0.35272  0.04505  0.60689  1.0000
  C   C171      1.0  0.36692  0.06127  0.59100  1.0000
  C   C172      1.0  0.35518  0.05621  0.57138  1.0000
  H   H277      1.0  0.38700  0.07764  0.59379  1.0000
  H   H278      1.0  0.36644  0.06891  0.55925  1.0000
  C   C173      1.0  0.41249  0.08309  0.73948  1.0000
  C   C174      1.0  0.43882  0.10415  0.73893  1.0000
  H   H279      1.0  0.46434  0.02622  0.60985  1.0000
  H   H280      1.0  0.40236  0.07234  0.72568  1.0000
  H   H281      1.0  0.17732  0.20427  0.54376  1.0000
  C   C175      1.0  0.40620  0.34926  0.73347  1.0000
  C   C176      1.0  0.43384  0.36678  0.73286  1.0000
  H   H282      1.0  0.48215  0.34641  0.74037  1.0000
  H   H283      1.0  0.39448  0.34196  0.71955  1.0000
  H   H284      1.0  0.30913  0.32352  0.51184  1.0000
  S   S63       1.0  0.22174  0.15489  0.50665  1.0000
  H   H285      1.0  0.29974  0.06709  0.57206  1.0000
  C   C177      1.0  0.18584  0.17968  0.56427  1.0000
  H   H286      1.0  0.47225  0.23476  0.62338  1.0000
  H   H287      1.0  0.48336  0.31696  0.73062  1.0000
  H   H288      1.0  0.46980  0.02876  0.58307  1.0000
  C   C178      1.0  0.13943  0.11784  0.55334  1.0000
  H   H289      1.0  0.17782  0.17727  0.51495  1.0000
  H   H290      1.0  0.41589  0.25100  0.62121  1.0000
  C   C179      1.0  0.13314  0.25347  0.52629  1.0000
  H   H291      1.0  0.48775  0.08048  0.68216  1.0000
  C   C180      1.0  0.40295  0.26020  0.59303  1.0000
  H   H292      1.0  0.37127  0.26827  0.62135  1.0000
  C   C181      1.0  0.25016  0.06276  0.55371  1.0000
  H   H293      1.0  0.24869  0.07841  0.56319  1.0000
  H   H294      1.0  0.15396  0.19007  0.56332  1.0000
  C   C182      1.0  0.43274  0.05669  0.58048  1.0000
  H   H295      1.0  0.26635  0.14339  0.53619  1.0000
  H   H296      1.0  0.39040  0.24260  0.71258  1.0000
  C   C183      1.0  0.34884  0.21418  0.60646  1.0000
  H   H297      1.0  0.38892  0.26409  0.64182  1.0000
  Fe  Fe31      1.0  0.27519  0.25685  0.51815  1.0000
  H   H298      1.0  0.33148  0.22147  0.57902  1.0000
  C   C184      1.0  0.37816  0.18749  0.62955  1.0000
  H   H299      1.0  0.13207  0.10098  0.54192  1.0000
  C   C185      1.0  0.29019  0.12213  0.53375  1.0000
  H   H300      1.0  0.40073  0.27812  0.59787  1.0000
  H   H301      1.0  0.40163  0.22390  0.60307  1.0000
  H   H302      1.0  0.36528  0.17608  0.61638  1.0000
  H   H303      1.0  0.25113  0.04735  0.56358  1.0000
  C   C186      1.0  0.37263  0.21085  0.63681  1.0000
  H   H304      1.0  0.49093  0.45031  0.70223  1.0000
  Fe  Fe32      1.0  0.02305  0.23098  0.50778  1.0000
  H   H305      1.0  0.14322  0.26572  0.53960  1.0000
  C   C187      1.0  0.33798  0.23075  0.59438  1.0000
  H   H306      1.0  0.38942  0.24977  0.57987  1.0000
  H   H307      1.0  0.27380  0.13423  0.56005  1.0000
  H   H308      1.0  0.41194  0.04974  0.60845  1.0000
  C   C188      1.0  0.46959  0.32565  0.73401  1.0000
  Fe  Fe33      1.0  0.27765  0.00434  0.52221  1.0000
  S   S64       1.0  0.23628  0.00222  0.52145  1.0000
  H   H309      1.0  0.47789  0.26110  0.73614  1.0000
  N   N13       1.0  0.37239  0.22976  0.62088  1.0000
  H   H310      1.0  0.32692  0.23130  0.63699  1.0000
  H   H311      1.0  0.19938  0.19842  0.57302  1.0000
  H   H312      1.0  0.24844  0.10910  0.54287  1.0000
  H   H313      1.0  0.26458  0.07102  0.52333  1.0000
  H   H314      1.0  0.37198  0.32916  0.75254  1.0000
  C   C189      1.0  0.30441  0.10751  0.56452  1.0000
  C   C190      1.0  0.27353  0.07289  0.53872  1.0000
  H   H315      1.0  0.34808  0.23597  0.65919  1.0000
  H   H316      1.0  0.43890  0.02892  0.63809  1.0000
  C   C191      1.0  0.12846  0.13798  0.54835  1.0000
  H   H317      1.0  0.37345  0.01293  0.59257  1.0000
  H   H318      1.0  0.12199  0.14356  0.56271  1.0000
  C   C192      1.0  0.10610  0.24741  0.52181  1.0000
  H   H319      1.0  0.17654  0.15009  0.52851  1.0000
  H   H320      1.0  0.37391  0.17306  0.64196  1.0000
  N   N14       1.0  0.14693  0.16308  0.53738  1.0000
  H   H321      1.0  0.40147  0.29714  0.73311  1.0000
  H   H322      1.0  0.46600  0.99977  0.59582  1.0000
  H   H323      1.0  0.35390  0.20206  0.59543  1.0000
  C   C193      1.0  0.16554  0.18521  0.55193  1.0000
  H   H324      1.0  0.44728  0.07835  0.58335  1.0000
  H   H325      1.0  0.47009  0.39023  0.75069  1.0000
  S   S65       1.0  0.18052  0.25000  0.52155  1.0000
  C   C194      1.0  0.42784  0.00032  0.59007  1.0000
  H   H326      1.0  0.37240  0.26145  0.70943  1.0000
  C   C195      1.0  0.42495  0.04237  0.60080  1.0000
  H   H327      1.0  0.17555  0.16387  0.57545  1.0000
  H   H328      1.0  0.46008  0.32774  0.71985  1.0000
  H   H329      1.0  0.13033  0.11945  0.50962  1.0000
  H   H330      1.0  0.09925  0.18668  0.52987  1.0000
  H   H331      1.0  0.13097  0.10821  0.56783  1.0000
  C   C196      1.0  0.40920  0.28328  0.72738  1.0000
  S   S66       1.0  0.02855  0.27349  0.51097  1.0000
  H   H332      1.0  0.42629  0.24499  0.72805  1.0000
  H   H333      1.0  0.14291  0.19058  0.51676  1.0000
  C   C197      1.0  0.45847  0.01498  0.59525  1.0000
  H   H334      1.0  0.32613  0.08668  0.53706  1.0000
  C   C198      1.0  0.31367  0.08879  0.57512  1.0000
  H   H335      1.0  0.44353  0.05060  0.61034  1.0000
  H   H336      1.0  0.46577  0.06805  0.74073  1.0000
  H   H337      1.0  0.35302  0.20118  0.64453  1.0000
  H   H338      1.0  0.33132  0.19929  0.61485  1.0000
  H   H339      1.0  0.35249  0.25211  0.59223  1.0000
  H   H340      1.0  0.31960  0.22973  0.60127  1.0000
  H   H341      1.0  0.10147  0.16816  0.55083  1.0000
  N   N15       1.0  0.29659  0.10093  0.54249  1.0000
  H   H342      1.0  0.34467  0.26377  0.64937  1.0000
  H   H343      1.0  0.45081  0.27488  0.71826  1.0000
  C   C199      1.0  0.32101  0.10264  0.53189  1.0000
  C   C200      1.0  0.39349  0.34211  0.75216  1.0000
  H   H344      1.0  0.30871  0.14204  0.53364  1.0000
  C   C201      1.0  0.39879  0.24055  0.61018  1.0000
  C   C202      1.0  0.26845  0.12709  0.54416  1.0000
  H   H345      1.0  0.33429  0.09324  0.57069  1.0000
  C   C203      1.0  0.34601  0.24512  0.64499  1.0000
  H   H346      1.0  0.12671  0.20296  0.54735  1.0000
  H   H347      1.0  0.21351  0.06302  0.50900  1.0000
  H   H348      1.0  0.39058  0.01050  0.57099  1.0000
  H   H349      1.0  0.23072  0.05208  0.54510  1.0000
  H   H350      1.0  0.28115  0.05768  0.53880  1.0000
  H   H351      1.0  0.19906  0.17466  0.55474  1.0000
  H   H352      1.0  0.32104  0.12858  0.56649  1.0000
  C   C204      1.0  0.44875  0.37653  0.75102  1.0000
  N   N16       1.0  0.41089  0.01189  0.59950  1.0000
  C   C205      1.0  0.46245  0.26208  0.74595  1.0000
  H   H353      1.0  0.31545  0.01105  0.61496  1.0000
  H   H354      1.0  0.38891  0.00909  0.62667  1.0000
  C   C206      1.0  0.38453  0.25666  0.72049  1.0000
  C   C207      1.0  0.16349  0.15793  0.52181  1.0000
  H   H355      1.0  0.16154  0.12672  0.55513  1.0000
  H   H356      1.0  0.10963  0.12606  0.53917  1.0000
  H   H357      1.0  0.42000  0.29266  0.71343  1.0000
  Fe  Fe34      1.0  0.21504  0.24250  0.50923  1.0000
  N   N17       1.0  0.42816  0.28085  0.74262  1.0000
  C   C208      1.0  0.48027  0.07172  0.75348  1.0000
  H   H358      1.0  0.28318  0.11697  0.51775  1.0000
  H   H359      1.0  0.37117  0.24637  0.73308  1.0000
  C   C209      1.0  0.09231  0.23085  0.50508  1.0000
  H   H360      1.0  0.40093  0.34727  0.50914  1.0000
  H   H361      1.0  0.42615  0.00046  0.57333  1.0000
  C   C210      1.0  0.21759  0.10355  0.50762  1.0000
  C   C211      1.0  0.40230  0.00118  0.62029  1.0000
  H   H362      1.0  0.41573  0.00010  0.65091  1.0000
  H   H363      1.0  0.29460  0.00269  0.58047  1.0000
  C   C212      1.0  0.31855  0.09945  0.50869  1.0000
  Fe  Fe35      1.0  0.99264  0.25614  0.53158  1.0000
  S   S67       1.0  0.99282  0.27548  0.56260  1.0000
  H   H364      1.0  0.34393  0.33412  0.51523  1.0000
  C   C213      1.0  0.38559  0.00340  0.58666  1.0000
  H   H365      1.0  0.49057  0.42487  0.68569  1.0000
  H   H366      1.0  0.43815  0.32108  0.75389  1.0000
  H   H367      1.0  0.05811  0.24525  0.96654  1.0000
  H   H368      1.0  0.43552  0.05961  0.81496  1.0000
  H   H369      1.0  0.24640  0.01736  0.91384  1.0000
  H   H370      1.0  0.09196  0.26828  0.92234  1.0000
  C   C214      1.0  0.05448  0.25823  0.95585  1.0000
  H   H371      1.0  0.38580  0.02654  0.89781  1.0000
  Fe  Fe36      1.0  0.47051  0.35720  0.84082  1.0000
  S   S68       1.0  0.43583  0.36608  0.84663  1.0000
  C   C215      1.0  0.09274  0.23906  0.94235  1.0000
  Fe  Fe37      1.0  0.43257  0.29681  0.83217  1.0000
  S   S69       1.0  0.39544  0.30134  0.83753  1.0000
  S   S70       1.0  0.42431  0.25613  0.81900  1.0000
  Fe  Fe38      1.0  0.41596  0.33877  0.81944  1.0000
  S   S71       1.0  0.39198  0.34358  0.79361  1.0000
  Fe  Fe39      1.0  0.41814  0.32738  0.86429  1.0000
  S   S72       1.0  0.40051  0.32462  0.89572  1.0000
  S   S73       1.0  0.45138  0.33247  0.81243  1.0000
  S   S74       1.0  0.45449  0.32037  0.86024  1.0000
  Fe  Fe40      1.0  0.44763  0.14145  0.85860  1.0000
  S   S75       1.0  0.40314  0.11799  0.85228  1.0000
  S   S76       1.0  0.46900  0.18651  0.86509  1.0000
  Fe  Fe41      1.0  0.45543  0.09080  0.85961  1.0000
  S   S77       1.0  0.41101  0.06357  0.85411  1.0000
  Fe  Fe42      1.0  0.41477  0.09373  0.83052  1.0000
  S   S78       1.0  0.39569  0.07766  0.79935  1.0000
  Fe  Fe43      1.0  0.40341  0.09013  0.87637  1.0000
  S   S79       1.0  0.37800  0.08299  0.90473  1.0000
  S   S80       1.0  0.45938  0.11950  0.83514  1.0000
  S   S81       1.0  0.44779  0.11506  0.88361  1.0000
  Fe  Fe44      1.0  0.21833  0.24618  0.99184  1.0000
  C   C216      1.0  0.22716  0.13092  0.99066  1.0000
  Fe  Fe45      1.0  0.26837  0.25335  0.96706  1.0000
  S   S82       1.0  0.28489  0.25643  0.93497  1.0000
  C   C217      1.0  0.43060  0.02399  0.93634  1.0000
  C   C218      1.0  0.39585  0.01346  0.89741  1.0000
  S   S83       1.0  0.22825  0.21728  0.97346  1.0000
  S   S84       1.0  0.25704  0.28234  0.98320  1.0000
  C   C219      1.0  0.42239  0.06142  0.92414  1.0000
  H   H372      1.0  0.00899  0.17926  0.94212  1.0000
  H   H373      1.0  0.47046  0.07738  0.90619  1.0000
  H   H374      1.0  0.42718  0.03875  0.96653  1.0000
  H   H375      1.0  0.10150  0.22756  0.93417  1.0000
  Fe  Fe46      1.0  0.23237  0.02141  0.99695  1.0000
  C   C220      1.0  0.13521  0.26031  0.99203  1.0000
  H   H376      1.0  0.32014  0.08720  0.89033  1.0000
  S   S85       1.0  0.18269  0.25656  0.99058  1.0000
  C   C221      1.0  0.46156  0.04131  0.80625  1.0000
  H   H377      1.0  0.11029  0.25704  0.94915  1.0000
  H   H378      1.0  0.07257  0.23427  0.91340  1.0000
  C   C222      1.0  0.41241  0.08893  0.77622  1.0000
  H   H379      1.0  0.08064  0.22592  0.95443  1.0000
  C   C223      1.0  0.43851  0.11040  0.77557  1.0000
  H   H380      1.0  0.41966  0.06982  0.90975  1.0000
  H   H381      1.0  0.44853  0.12138  0.78931  1.0000
  C   C224      1.0  0.40845  0.35181  0.77032  1.0000
  H   H382      1.0  0.35830  0.07696  0.94481  1.0000
  H   H383      1.0  0.42072  0.03321  0.79560  1.0000
  N   N18       1.0  0.43690  0.04480  0.92040  1.0000
  S   S86       1.0  0.48140  0.06954  0.86366  1.0000
  C   C225      1.0  0.36863  0.30419  0.90662  1.0000
  C   C226      1.0  0.36463  0.30948  0.92678  1.0000
  C   C227      1.0  0.33941  0.29483  0.93584  1.0000
  C   C228      1.0  0.31767  0.27471  0.92479  1.0000
  C   C229      1.0  0.32178  0.26915  0.90469  1.0000
  C   C230      1.0  0.34711  0.28354  0.89574  1.0000
  H   H384      1.0  0.38108  0.32532  0.93544  1.0000
  H   H385      1.0  0.33666  0.29943  0.95128  1.0000
  H   H386      1.0  0.30518  0.25356  0.89601  1.0000
  H   H387      1.0  0.34981  0.27880  0.88036  1.0000
  C   C231      1.0  0.43848  0.23763  0.83083  1.0000
  C   C232      1.0  0.42769  0.20988  0.82631  1.0000
  C   C233      1.0  0.43715  0.19409  0.83659  1.0000
  C   C234      1.0  0.45761  0.20604  0.85135  1.0000
  C   C235      1.0  0.46880  0.23393  0.85559  1.0000
  C   C236      1.0  0.45917  0.24970  0.84542  1.0000
  H   H388      1.0  0.41168  0.20045  0.81503  1.0000
  H   H389      1.0  0.42862  0.17268  0.83307  1.0000
  C   C237      1.0  0.48719  0.08981  0.80113  1.0000
  H   H390      1.0  0.46773  0.27115  0.84884  1.0000
  H   H391      1.0  0.40842  0.01193  0.93784  1.0000
  H   H392      1.0  0.07941  0.29117  0.97680  1.0000
  H   H393      1.0  0.09857  0.26429  0.99279  1.0000
  C   C238      1.0  0.41341  0.26548  0.76071  1.0000
  H   H394      1.0  0.27587  0.05821  0.90056  1.0000
  H   H395      1.0  0.03512  0.25726  0.96060  1.0000
  C   C239      1.0  0.30697  0.01341  0.93568  1.0000
  C   C240      1.0  0.31318  0.00993  0.91569  1.0000
  C   C241      1.0  0.33531  0.03058  0.90610  1.0000
  C   C242      1.0  0.35155  0.05503  0.91644  1.0000
  C   C243      1.0  0.34582  0.05819  0.93661  1.0000
  C   C244      1.0  0.32375  0.03753  0.94620  1.0000
  C   C245      1.0  0.25759  0.04669  0.93928  1.0000
  H   H396      1.0  0.33928  0.02784  0.89055  1.0000
  H   H397      1.0  0.03189  0.20225  0.96041  1.0000
  H   H398      1.0  0.20567  0.09361  0.97327  1.0000
  H   H399      1.0  0.44472  0.01867  0.96580  1.0000
  N   N19       1.0  0.27649  0.07381  0.93097  1.0000
  H   H400      1.0  0.07015  0.30232  0.95453  1.0000
  H   H401      1.0  0.26923  0.03688  0.94576  1.0000
  C   C246      1.0  0.29790  0.09013  0.94674  1.0000
  C   C247      1.0  0.26219  0.08933  0.92353  1.0000
  H   H402      1.0  0.21832  0.14149  0.98239  1.0000
  C   C248      1.0  0.07648  0.28750  0.96024  1.0000
  C   C249      1.0  0.28831  0.09555  0.96711  1.0000
  C   C250      1.0  0.23821  0.08744  0.93588  1.0000
  H   H403      1.0  0.09613  0.29150  0.95393  1.0000
  H   H404      1.0  0.33203  0.10159  0.91479  1.0000
  H   H405      1.0  0.24609  0.04845  0.95211  1.0000
  H   H406      1.0  0.00258  0.30546  0.91824  1.0000
  H   H407      1.0  0.31054  0.08005  0.95010  1.0000
  H   H408      1.0  0.31182  0.11045  0.94116  1.0000
  H   H409      1.0  0.27670  0.11116  0.92229  1.0000
  H   H410      1.0  0.25378  0.08213  0.90800  1.0000
  C   C251      1.0  0.23681  0.02628  0.92396  1.0000
  C   C252      1.0  0.02783  0.22055  0.93202  1.0000
  H   H411      1.0  0.39123  0.00337  0.88224  1.0000
  C   C253      1.0  0.48417  0.04868  0.91502  1.0000
  H   H412      1.0  0.42305  0.02508  0.82115  1.0000
  H   H413      1.0  0.04045  0.27663  0.89071  1.0000
  C   C254      1.0  0.43591  0.08614  0.93876  1.0000
  H   H414      1.0  0.27505  0.07670  0.97477  1.0000
  H   H415      1.0  0.40168  0.04858  0.92961  1.0000
  H   H416      1.0  0.23786  0.10717  0.93564  1.0000
  H   H417      1.0  0.23872  0.08282  0.95186  1.0000
  H   H418      1.0  0.21876  0.07246  0.92881  1.0000
  N   N20       1.0  0.39872  0.22979  0.89380  1.0000
  C   C255      1.0  0.42752  0.23663  0.89907  1.0000
  C   C256      1.0  0.38192  0.19961  0.89569  1.0000
  C   C257      1.0  0.38994  0.24506  0.90858  1.0000
  C   C258      1.0  0.39784  0.23854  0.87258  1.0000
  C   C259      1.0  0.44806  0.26697  0.89932  1.0000
  C   C260      1.0  0.38934  0.18151  0.88193  1.0000
  C   C261      1.0  0.36001  0.23152  0.91440  1.0000
  C   C262      1.0  0.36983  0.23107  0.86346  1.0000
  H   H419      1.0  0.42882  0.22874  0.91414  1.0000
  H   H420      1.0  0.43541  0.22678  0.88823  1.0000
  H   H421      1.0  0.36026  0.19313  0.89249  1.0000
  H   H422      1.0  0.38307  0.19382  0.91152  1.0000
  H   H423      1.0  0.40119  0.24889  0.92327  1.0000
  H   H424      1.0  0.39492  0.26555  0.90304  1.0000
  H   H425      1.0  0.40975  0.26086  0.87149  1.0000
  H   H426      1.0  0.40745  0.22995  0.86227  1.0000
  H   H427      1.0  0.43389  0.04441  0.88778  1.0000
  H   H428      1.0  0.44207  0.27963  0.90894  1.0000
  H   H429      1.0  0.46772  0.26953  0.90538  1.0000
  H   H430      1.0  0.37450  0.16000  0.88393  1.0000
  H   H431      1.0  0.38851  0.18554  0.86571  1.0000
  H   H432      1.0  0.40933  0.18311  0.88595  1.0000
  H   H433      1.0  0.34590  0.22542  0.90127  1.0000
  H   H434      1.0  0.35621  0.24611  0.92372  1.0000
  H   H435      1.0  0.35508  0.21370  0.92385  1.0000
  H   H436      1.0  0.35656  0.20894  0.86269  1.0000
  H   H437      1.0  0.37225  0.23802  0.84768  1.0000
  H   H438      1.0  0.36010  0.24151  0.87162  1.0000
  N   N21       1.0  0.35008  0.35139  0.85609  1.0000
  C   C263      1.0  0.36476  0.35886  0.83645  1.0000
  C   C264      1.0  0.34086  0.32167  0.85884  1.0000
  C   C265      1.0  0.37009  0.36719  0.87283  1.0000
  C   C266      1.0  0.32706  0.35838  0.85524  1.0000
  C   C267      1.0  0.37909  0.38923  0.83178  1.0000
  C   C268      1.0  0.32431  0.30279  0.84104  1.0000
  C   C269      1.0  0.35952  0.36265  0.89443  1.0000
  C   C270      1.0  0.30237  0.34155  0.86815  1.0000
  H   H439      1.0  0.38013  0.35152  0.83581  1.0000
  H   H440      1.0  0.35074  0.34872  0.82338  1.0000
  H   H441      1.0  0.32868  0.31422  0.87249  1.0000
  H   H442      1.0  0.35861  0.31806  0.86143  1.0000
  H   H443      1.0  0.38762  0.36285  0.87256  1.0000
  H   H444      1.0  0.37855  0.38932  0.87082  1.0000
  H   H445      1.0  0.33431  0.38004  0.85965  1.0000
  H   H446      1.0  0.31892  0.35633  0.83952  1.0000
  H   H447      1.0  0.39805  0.40019  0.84088  1.0000
  H   H448      1.0  0.38500  0.39150  0.81573  1.0000
  H   H449      1.0  0.36591  0.39890  0.83397  1.0000
  H   H450      1.0  0.30883  0.30800  0.83498  1.0000
  H   H451      1.0  0.33768  0.30331  0.82866  1.0000
  H   H452      1.0  0.31395  0.28161  0.84616  1.0000
  H   H453      1.0  0.34852  0.34109  0.89827  1.0000
  H   H454      1.0  0.34687  0.37281  0.89720  1.0000
  H   H455      1.0  0.37698  0.37208  0.90523  1.0000
  H   H456      1.0  0.29075  0.32051  0.86211  1.0000
  H   H457      1.0  0.28849  0.35069  0.86767  1.0000
  H   H458      1.0  0.30756  0.34092  0.88418  1.0000
  N   N22       1.0  0.05195  0.24815  0.93428  1.0000
  H   H459      1.0  0.00915  0.22168  0.93622  1.0000
  S   S87       1.0  0.22078  0.05480  0.98896  1.0000
  H   H460      1.0  0.27869  0.10888  0.96568  1.0000
  C   C271      1.0  0.10721  0.25070  0.99434  1.0000
  H   H461      1.0  0.22652  0.03541  0.91493  1.0000
  C   C272      1.0  0.43622  0.36872  0.76968  1.0000
  H   H462      1.0  0.43496  0.01550  0.89745  1.0000
  H   H463      1.0  0.44123  0.08123  0.95364  1.0000
  H   H464      1.0  0.47119  0.04470  0.82154  1.0000
  H   H465      1.0  0.45772  0.02065  0.80120  1.0000
  H   H466      1.0  0.39987  0.24386  0.75661  1.0000
  H   H467      1.0  0.01981  0.24215  0.89621  1.0000
  H   H468      1.0  0.31946  0.04040  0.96165  1.0000
  C   C273      1.0  0.07719  0.24770  0.92707  1.0000
  H   H469      1.0  0.14780  0.28132  0.98866  1.0000
  C   C274      1.0  0.46420  0.05785  0.77219  1.0000
  S   S88       1.0  0.27401  0.02449  0.99824  1.0000
  H   H470      1.0  0.22114  0.00923  0.93218  1.0000
  C   C275      1.0  0.44165  0.03444  0.95789  1.0000
  C   C276      1.0  0.39673  0.27694  0.77182  1.0000
  H   H471      1.0  0.45173  0.27483  0.88387  1.0000
  C   C277      1.0  0.29036  0.06847  0.91336  1.0000
  C   C278      1.0  0.46675  0.06304  0.91866  1.0000
  H   H472      1.0  0.30613  0.10654  0.97738  1.0000
  H   H473      1.0  0.38676  0.26387  0.78470  1.0000
  C   C279      1.0  0.14714  0.24304  0.99394  1.0000
  H   H474      1.0  0.04410  0.19223  0.93818  1.0000
  H   H475      1.0  0.48480  0.24327  0.86689  1.0000
  H   H476      1.0  0.02464  0.21306  0.91609  1.0000
  H   H477      1.0  0.47560  0.07630  0.93222  1.0000
  H   H478      1.0  0.44845  0.06460  0.77367  1.0000
  H   H479      1.0  0.45311  0.03585  0.76811  1.0000
  H   H480      1.0  0.46163  0.05242  0.95848  1.0000
  H   H481      1.0  0.30843  0.10951  0.90091  1.0000
  H   H482      1.0  0.47933  0.03751  0.90031  1.0000
  S   S89       1.0  0.99946  0.28092  0.95660  1.0000
  C   C280      1.0  0.02876  0.19767  0.94403  1.0000
  H   H483      1.0  0.40962  0.29750  0.77830  1.0000
  C   C281      1.0  0.04631  0.26713  0.92141  1.0000
  H   H484      1.0  0.05556  0.25463  0.89184  1.0000
  C   C282      1.0  0.31400  0.09343  0.90454  1.0000
  S   S90       1.0  0.28918  0.24842  0.99456  1.0000
  C   C283      1.0  0.43375  0.04002  0.80944  1.0000
  H   H485      1.0  0.43694  0.00850  0.93186  1.0000
  N   N23       1.0  0.47978  0.06231  0.79187  1.0000
  H   H486      1.0  0.06368  0.28781  0.92204  1.0000
  C   C284      1.0  0.04028  0.25929  0.89879  1.0000
  H   H487      1.0  0.46943  0.09361  0.80074  1.0000
  C   C285      1.0  0.22002  0.10369  0.98552  1.0000
  H   H488      1.0  0.29819  0.05420  0.91750  1.0000
  H   H489      1.0  0.42156  0.09444  0.94134  1.0000
  H   H490      1.0  0.42785  0.26490  0.77218  1.0000
  H   H491      1.0  0.45398  0.10260  0.93206  1.0000
  C   C286      1.0  0.42677  0.02994  0.90032  1.0000
  H   H492      1.0  0.44790  0.37645  0.78357  1.0000
  C   C287      1.0  0.23093  0.08929  0.99622  1.0000
  H   H493      1.0  0.02889  0.26940  0.92723  1.0000
  H   H494      1.0  0.48263  0.03500  0.92738  1.0000
  H   H495      1.0  0.38065  0.27721  0.76208  1.0000
  C   C288      1.0  0.39943  0.07546  0.75806  1.0000
  H   H496      1.0  0.37918  0.05892  0.75837  1.0000
  C   C289      1.0  0.45170  0.11773  0.75707  1.0000
  C   C290      1.0  0.09057  0.22353  0.99855  1.0000
  Fe  Fe47      1.0  0.24907  0.21355  0.00177  1.0000
  H   H497      1.0  0.13919  0.20231  0.99977  1.0000
  C   C291      1.0  0.10247  0.20629  0.00049  1.0000
  C   C292      1.0  0.13050  0.21593  0.99828  1.0000
  H   H498      1.0  0.47197  0.13421  0.75678  1.0000
  Fe  Fe48      1.0  0.02285  0.22485  0.00312  1.0000
  S   S91       1.0  0.05490  0.20988  0.00121  1.0000
  Fe  Fe49      1.0  0.99454  0.25597  0.98490  1.0000
  H   H499      1.0  0.49213  0.09059  0.81754  1.0000
  H   H500      1.0  0.38673  0.99732  0.90853  1.0000
  H   H501      1.0  0.45946  0.30876  0.76360  1.0000
  H   H502      1.0  0.49183  0.09390  0.75552  1.0000
  H   H503      1.0  0.47366  0.27904  0.75682  1.0000
  H   H504      1.0  0.08991  0.18522  0.00368  1.0000
  H   H505      1.0  0.45260  0.24311  0.75447  1.0000
  H   H506      1.0  0.40351  0.90015  0.17032  1.0000
  C   C293      1.0  0.44014  0.94712  0.23244  1.0000
  H   H507      1.0  0.45705  0.88651  0.19833  1.0000
  S   S92       1.0  0.00935  0.77973  0.01828  1.0000
  C   C294      1.0  0.11772  0.87349  0.01260  1.0000
  C   C295      1.0  0.01244  0.66243  0.01620  1.0000
  Fe  Fe50      1.0  0.33701  0.90479  0.16784  1.0000
  S   S93       1.0  0.32540  0.86076  0.16817  1.0000
  S   S94       1.0  0.34908  0.92923  0.19755  1.0000
  Fe  Fe51      1.0  0.32769  0.90336  0.12155  1.0000
  S   S95       1.0  0.31618  0.85884  0.11940  1.0000
  S   S96       1.0  0.32813  0.92174  0.09079  1.0000
  Fe  Fe52      1.0  0.29186  0.85529  0.14679  1.0000
  S   S97       1.0  0.24783  0.82772  0.15253  1.0000
  Fe  Fe53      1.0  0.35134  0.86899  0.14098  1.0000
  S   S98       1.0  0.38000  0.85025  0.14118  1.0000
  S   S99       1.0  0.30164  0.89917  0.14805  1.0000
  S   S100      1.0  0.36458  0.91357  0.14148  1.0000
  Fe  Fe54      1.0  0.10064  0.67034  0.17656  1.0000
  S   S101      1.0  0.12836  0.65177  0.17420  1.0000
  S   S102      1.0  0.09890  0.68762  0.20755  1.0000
  Fe  Fe55      1.0  0.08866  0.66566  0.13038  1.0000
  S   S103      1.0  0.11558  0.64606  0.12565  1.0000
  S   S104      1.0  0.07392  0.67207  0.09932  1.0000
  Fe  Fe56      1.0  0.09691  0.62165  0.15280  1.0000
  S   S105      1.0  0.07896  0.57595  0.15578  1.0000
  Fe  Fe57      1.0  0.14447  0.67795  0.14743  1.0000
  S   S106      1.0  0.18904  0.70014  0.14113  1.0000
  S   S107      1.0  0.06777  0.63885  0.15645  1.0000
  S   S108      1.0  0.11886  0.69875  0.15091  1.0000
  C   C296      1.0  0.48552  0.85703  0.08181  1.0000
  C   C297      1.0  0.41844  0.52555  0.14947  1.0000
  C   C298      1.0  0.43256  0.55405  0.15071  1.0000
  C   C299      1.0  0.46092  0.56784  0.15104  1.0000
  H   H508      1.0  0.43721  0.81168  0.05782  1.0000
  C   C300      1.0  0.46093  0.52425  0.14891  1.0000
  H   H509      1.0  0.39666  0.51528  0.14914  1.0000
  H   H510      1.0  0.42146  0.56555  0.15125  1.0000
  H   H511      1.0  0.24741  0.84040  0.24604  1.0000
  C   C301      1.0  0.09301  0.66830  0.22949  1.0000
  H   H512      1.0  0.29433  0.84313  0.20839  1.0000
  C   C302      1.0  0.06795  0.64589  0.23216  1.0000
  H   H513      1.0  0.11843  0.55792  0.19458  1.0000
  H   H514      1.0  0.05331  0.63843  0.21979  1.0000
  C   C303      1.0  0.09671  0.55672  0.15551  1.0000
  C   C304      1.0  0.12431  0.56837  0.15198  1.0000
  C   C305      1.0  0.13765  0.55229  0.15225  1.0000
  C   C306      1.0  0.12361  0.52454  0.15618  1.0000
  H   H515      1.0  0.07953  0.51743  0.20837  1.0000
  C   C307      1.0  0.08269  0.52899  0.15950  1.0000
  H   H516      1.0  0.13535  0.58970  0.14894  1.0000
  H   H517      1.0  0.15896  0.56140  0.14927  1.0000
  H   H518      1.0  0.30322  0.96356  0.03516  1.0000
  H   H519      1.0  0.06135  0.51985  0.16234  1.0000
  C   C308      1.0  0.34406  0.91283  0.22093  1.0000
  C   C309      1.0  0.34348  0.92636  0.23886  1.0000
  H   H520      1.0  0.43946  0.79204  0.09274  1.0000
  H   H521      1.0  0.43664  0.85187  0.07027  1.0000
  H   H522      1.0  0.34212  0.87615  0.20851  1.0000
  C   C310      1.0  0.47266  0.89771  0.14293  1.0000
  C   C311      1.0  0.45943  0.87200  0.15112  1.0000
  C   C312      1.0  0.43104  0.85779  0.15064  1.0000
  C   C313      1.0  0.41561  0.86929  0.14231  1.0000
  C   C314      1.0  0.42885  0.89522  0.13457  1.0000
  C   C315      1.0  0.45721  0.90933  0.13489  1.0000
  H   H523      1.0  0.47105  0.86298  0.15763  1.0000
  H   H524      1.0  0.42095  0.83775  0.15670  1.0000
  H   H525      1.0  0.41723  0.90417  0.12790  1.0000
  H   H526      1.0  0.48781  0.85597  0.12295  1.0000
  C   C316      1.0  0.23286  0.79225  0.15035  1.0000
  C   C317      1.0  0.20596  0.77734  0.15587  1.0000
  C   C318      1.0  0.19277  0.74907  0.15380  1.0000
  C   C319      1.0  0.20617  0.73543  0.14580  1.0000
  C   C320      1.0  0.23327  0.75031  0.14057  1.0000
  C   C321      1.0  0.24666  0.77870  0.14289  1.0000
  H   H527      1.0  0.19522  0.78772  0.16172  1.0000
  H   H528      1.0  0.17217  0.73788  0.15829  1.0000
  H   H529      1.0  0.24380  0.73988  0.13441  1.0000
  H   H530      1.0  0.26743  0.79009  0.13858  1.0000
  C   C322      1.0  0.03037  0.71680  0.07107  1.0000
  C   C323      1.0  0.04446  0.70691  0.05919  1.0000
  C   C324      1.0  0.05749  0.69323  0.06815  1.0000
  C   C325      1.0  0.05737  0.68995  0.08915  1.0000
  C   C326      1.0  0.04405  0.70063  0.10111  1.0000
  C   C327      1.0  0.03044  0.71375  0.09208  1.0000
  H   H531      1.0  0.04514  0.70965  0.04310  1.0000
  H   H532      1.0  0.06790  0.68524  0.05874  1.0000
  H   H533      1.0  0.04375  0.69832  0.11726  1.0000
  H   H534      1.0  0.22747  0.87660  0.05708  1.0000
  H   H535      1.0  0.16198  0.60640  0.20870  1.0000
  H   H536      1.0  0.10757  0.72961  0.11315  1.0000
  H   H537      1.0  0.47270  0.91238  0.21727  1.0000
  C   C328      1.0  0.46412  0.52441  0.20404  1.0000
  C   C329      1.0  0.28941  0.97159  0.06330  1.0000
  C   C330      1.0  0.28843  0.96730  0.08420  1.0000
  C   C331      1.0  0.29952  0.95159  0.09286  1.0000
  C   C332      1.0  0.31233  0.94045  0.08075  1.0000
  C   C333      1.0  0.31335  0.94480  0.05988  1.0000
  C   C334      1.0  0.30189  0.96014  0.05119  1.0000
  H   H538      1.0  0.28320  0.88187  0.22366  1.0000
  H   H539      1.0  0.29879  0.94870  0.10894  1.0000
  H   H540      1.0  0.32337  0.93649  0.05037  1.0000
  H   H541      1.0  0.20495  0.96364  0.06357  1.0000
  H   H542      1.0  0.27111  0.82132  0.18969  1.0000
  H   H543      1.0  0.13662  0.56381  0.21773  1.0000
  N   N24       1.0  0.46653  0.83514  0.09520  1.0000
  C   C335      1.0  0.43575  0.95356  0.16564  1.0000
  H   H544      1.0  0.16857  0.89181  0.04377  1.0000
  H   H545      1.0  0.17368  0.88854  0.07830  1.0000
  H   H546      1.0  0.47176  0.51505  0.19262  1.0000
  C   C336      1.0  0.19398  0.86497  0.08523  1.0000
  C   C337      1.0  0.39237  0.87192  0.19369  1.0000
  C   C338      1.0  0.42746  0.94961  0.18792  1.0000
  C   C339      1.0  0.40015  0.90072  0.18668  1.0000
  H   H547      1.0  0.11294  0.61699  0.21163  1.0000
  H   H548      1.0  0.40907  0.82062  0.07850  1.0000
  H   H549      1.0  0.45034  0.91503  0.17849  1.0000
  H   H550      1.0  0.14512  0.77662  0.06074  1.0000
  H   H551      1.0  0.24742  0.90950  0.06718  1.0000
  C   C340      1.0  0.43309  0.50937  0.20466  1.0000
  H   H552      1.0  0.46225  0.79355  0.12287  1.0000
  H   H553      1.0  0.44851  0.85706  0.11086  1.0000
  H   H554      1.0  0.22369  0.79497  0.19643  1.0000
  H   H555      1.0  0.20567  0.78494  0.11080  1.0000
  S   S109      1.0  0.16348  0.92202  0.00791  1.0000
  C   C341      1.0  0.45393  0.90128  0.20797  1.0000
  C   C342      1.0  0.44252  0.83902  0.10075  1.0000
  C   C343      1.0  0.11578  0.52707  0.10083  1.0000
  S   S110      1.0  0.47754  0.60378  0.15226  1.0000
  H   H556      1.0  0.09364  0.55817  0.24751  1.0000
  C   C344      1.0  0.24834  0.84736  0.20842  1.0000
  H   H557      1.0  0.44928  0.81413  0.13552  1.0000
  C   C345      1.0  0.11604  0.55716  0.21121  1.0000
  H   H558      1.0  0.17887  0.93442  0.05136  1.0000
  H   H559      1.0  0.47855  0.89115  0.09238  1.0000
  H   H560      1.0  0.26313  0.90208  0.03456  1.0000
  H   H561      1.0  0.45544  0.95383  0.16332  1.0000
  H   H562      1.0  0.28780  0.87691  0.19714  1.0000
  C   C346      1.0  0.06271  0.58245  0.20926  1.0000
  H   H563      1.0  0.44336  0.96757  0.19612  1.0000
  H   H564      1.0  0.11039  0.76300  0.11403  1.0000
  H   H565      1.0  0.15891  0.68675  0.09728  1.0000
  H   H566      1.0  0.11849  0.76892  0.07861  1.0000
  H   H567      1.0  0.05951  0.70684  0.22849  1.0000
  C   C347      1.0  0.01115  0.84400  0.01300  1.0000
  H   H568      1.0  0.14517  0.69484  0.07562  1.0000
  Fe  Fe58      1.0  0.00410  0.73874  0.02730  1.0000
  H   H569      1.0  0.12253  0.75143  0.13458  1.0000
  C   C348      1.0  0.10003  0.59864  0.25144  1.0000
  H   H570      1.0  0.10528  0.61710  0.24288  1.0000
  H   H571      1.0  0.18065  0.71452  0.08276  1.0000
  H   H572      1.0  0.11150  0.75122  0.05497  1.0000
  H   H573      1.0  0.22425  0.78437  0.08946  1.0000
  C   C349      1.0  0.19504  0.94117  0.06316  1.0000
  H   H574      1.0  0.11045  0.51595  0.21068  1.0000
  H   H575      1.0  0.19164  0.85195  0.03856  1.0000
  H   H576      1.0  0.10644  0.52986  0.08684  1.0000
  C   C350      1.0  0.45775  0.80754  0.08544  1.0000
  C   C351      1.0  0.46744  0.81384  0.12942  1.0000
  H   H577      1.0  0.38195  0.90375  0.18787  1.0000
  C   C352      1.0  0.44937  0.92116  0.19441  1.0000
  C   C353      1.0  0.28344  0.80191  0.21225  1.0000
  H   H578      1.0  0.01969  0.72139  0.10145  1.0000
  H   H579      1.0  0.38730  0.86901  0.20980  1.0000
  H   H580      1.0  0.42844  0.82211  0.11000  1.0000
  N   N25       1.0  0.25273  0.82487  0.21725  1.0000
  H   H581      1.0  0.43737  0.88948  0.21811  1.0000
  H   H582      1.0  0.08144  0.83592  0.01699  1.0000
  C   C354      1.0  0.27559  0.82385  0.20622  1.0000
  H   H583      1.0  0.16981  0.85439  0.02037  1.0000
  H   H584      1.0  0.19440  0.90005  0.02667  1.0000
  H   H585      1.0  0.47371  0.52551  0.21899  1.0000
  H   H586      1.0  0.47361  0.80096  0.08772  1.0000
  H   H587      1.0  0.18157  0.85833  0.09889  1.0000
  H   H588      1.0  0.13310  0.50371  0.08786  1.0000
  C   C355      1.0  0.30735  0.49874  0.17500  1.0000
  H   H589      1.0  0.42531  0.50737  0.18887  1.0000
  H   H590      1.0  0.28077  0.84669  0.24179  1.0000
  H   H591      1.0  0.40861  0.95164  0.18907  1.0000
  C   C356      1.0  0.05291  0.71081  0.24335  1.0000
  H   H592      1.0  0.11835  0.88096  0.02785  1.0000
  H   H593      1.0  0.18622  0.93471  0.07815  1.0000
  H   H594      1.0  0.09717  0.52390  0.23264  1.0000
  C   C357      1.0  0.19474  0.89148  0.07812  1.0000
  C   C358      1.0  0.17618  0.85879  0.03654  1.0000
  N   N26       1.0  0.15385  0.74680  0.09272  1.0000
  C   C359      1.0  0.18090  0.76380  0.08364  1.0000
  C   C360      1.0  0.13253  0.73793  0.07614  1.0000
  C   C361      1.0  0.15283  0.72203  0.10218  1.0000
  C   C362      1.0  0.14932  0.76347  0.10890  1.0000
  C   C363      1.0  0.20567  0.77210  0.09786  1.0000
  C   C364      1.0  0.12696  0.76028  0.06733  1.0000
  C   C365      1.0  0.15989  0.70383  0.08837  1.0000
  C   C366      1.0  0.12081  0.75087  0.11786  1.0000
  H   H595      1.0  0.18380  0.75345  0.07011  1.0000
  H   H596      1.0  0.18215  0.78299  0.07804  1.0000
  H   H597      1.0  0.11305  0.72170  0.08118  1.0000
  H   H598      1.0  0.13792  0.72854  0.06323  1.0000
  H   H599      1.0  0.16619  0.72757  0.11582  1.0000
  H   H600      1.0  0.13240  0.70878  0.10777  1.0000
  H   H601      1.0  0.16379  0.76777  0.12181  1.0000
  H   H602      1.0  0.15372  0.78370  0.10320  1.0000
  H   H603      1.0  0.20749  0.75441  0.10340  1.0000
  H   H604      1.0  0.25286  0.92755  0.03187  1.0000
  C   C367      1.0  0.34088  0.88655  0.22195  1.0000
  H   H605      1.0  0.26644  0.89088  0.20444  1.0000
  H   H606      1.0  0.42032  0.93833  0.15532  1.0000
  C   C368      1.0  0.06107  0.63418  0.25117  1.0000
  H   H607      1.0  0.12936  0.50024  0.11394  1.0000
  H   H608      1.0  0.04128  0.61740  0.25319  1.0000
  C   C369      1.0  0.45169  0.80446  0.06252  1.0000
  H   H609      1.0  0.46724  0.92922  0.12856  1.0000
  N   N27       1.0  0.10471  0.57571  0.21818  1.0000
  H   H610      1.0  0.46741  0.94129  0.19665  1.0000
  H   H611      1.0  0.43430  0.94366  0.24847  1.0000
  H   H612      1.0  0.07305  0.55385  0.19577  1.0000
  H   H613      1.0  0.37391  0.85748  0.18518  1.0000
  C   C370      1.0  0.48206  0.83668  0.11441  1.0000
  H   H614      1.0  0.33231  0.85269  0.24086  1.0000
  C   C371      1.0  0.25946  0.83109  0.23948  1.0000
  H   H615      1.0  0.42712  0.52349  0.21250  1.0000
  H   H616      1.0  0.04094  0.57020  0.20537  1.0000
  H   H617      1.0  0.47650  0.85598  0.06666  1.0000
  H   H618      1.0  0.41105  0.90586  0.22673  1.0000
  H   H619      1.0  0.06254  0.54675  0.22101  1.0000
  C   C372      1.0  0.07558  0.56338  0.21107  1.0000
  H   H620      1.0  0.34627  0.94685  0.23830  1.0000
  H   H621      1.0  0.15849  0.84666  0.04583  1.0000
  H   H622      1.0  0.13620  0.54464  0.10254  1.0000
  H   H623      1.0  0.43803  0.97349  0.16094  1.0000
  H   H624      1.0  0.45955  0.94657  0.23113  1.0000
  H   H625      1.0  0.27916  0.97632  0.09379  1.0000
  N   N28       1.0  0.20719  0.90190  0.05801  1.0000
  H   H626      1.0  0.02534  0.68102  0.00803  1.0000
  H   H627      1.0  0.26661  0.78117  0.21030  1.0000
  H   H628      1.0  0.39959  0.92896  0.22019  1.0000
  H   H629      1.0  0.23251  0.84998  0.21662  1.0000
  N   N29       1.0  0.42397  0.92371  0.19727  1.0000
  H   H630      1.0  0.40797  0.86575  0.18999  1.0000
  H   H631      1.0  0.29489  0.51942  0.20945  1.0000
  H   H632      1.0  0.07142  0.59672  0.19679  1.0000
  H   H633      1.0  0.06419  0.59378  0.22339  1.0000
  H   H634      1.0  0.23326  0.94252  0.06949  1.0000
  C   C373      1.0  0.11151  0.67821  0.24590  1.0000
  S   S111      1.0  0.21763  0.99188  0.02209  1.0000
  H   H635      1.0  0.20587  0.90668  0.09045  1.0000
  C   C374      1.0  0.09954  0.52700  0.21622  1.0000
  H   H636      1.0  0.03477  0.69214  0.24710  1.0000
  C   C375      1.0  0.21647  0.93199  0.05823  1.0000
  H   H637      1.0  0.22454  0.94076  0.04343  1.0000
  H   H638      1.0  0.11914  0.59963  0.19168  1.0000
  H   H639      1.0  0.47207  0.51281  0.14814  1.0000
  H   H640      1.0  0.01950  0.84281  0.02801  1.0000
  C   C376      1.0  0.32297  0.51141  0.22717  1.0000
  H   H641      1.0  0.18495  0.84828  0.07387  1.0000
  H   H642      1.0  0.31852  0.51909  0.18225  1.0000
  C   C377      1.0  0.18678  0.88925  0.04097  1.0000
  H   H643      1.0  0.21446  0.86823  0.08976  1.0000
  S   S112      1.0  0.27537  0.99191  0.05327  1.0000
  C   C378      1.0  0.43259  0.51050  0.14842  1.0000
  H   H644      1.0  0.29221  0.80565  0.22777  1.0000
  C   C379      1.0  0.23182  0.89790  0.05524  1.0000
  C   C380      1.0  0.33561  0.87336  0.24041  1.0000
  C   C381      1.0  0.27308  0.87567  0.20861  1.0000
  H   H645      1.0  0.29953  0.80299  0.20214  1.0000
  H   H646      1.0  0.25341  0.78890  0.24528  1.0000
  S   S113      1.0  0.01131  0.73180  0.06037  1.0000
  C   C382      1.0  0.47505  0.55275  0.15027  1.0000
  C   C383      1.0  0.15112  0.61741  0.21426  1.0000
  C   C384      1.0  0.41743  0.92522  0.21910  1.0000
  H   H647      1.0  0.43107  0.50599  0.24247  1.0000
  H   H648      1.0  0.18507  0.77625  0.22048  1.0000
  H   H649      1.0  0.47062  0.54546  0.19923  1.0000
  H   H650      1.0  0.00084  0.64117  0.05446  1.0000
  H   H651      1.0  0.13080  0.69577  0.24407  1.0000
  H   H652      1.0  0.38047  0.50222  0.20558  1.0000
  H   H653      1.0  0.32994  0.53068  0.23601  1.0000
  H   H654      1.0  0.23168  0.89357  0.02203  1.0000
  H   H655      1.0  0.41515  0.85313  0.08876  1.0000
  C   C385      1.0  0.09610  0.51301  0.16003  1.0000
  C   C386      1.0  0.24530  0.90582  0.03466  1.0000
  C   C387      1.0  0.10706  0.57795  0.24088  1.0000
  Fe  Fe59      1.0  0.25792  0.99191  0.02171  1.0000
  C   C388      1.0  0.42504  0.84099  0.08338  1.0000
  H   H656      1.0  0.24080  0.84231  0.19249  1.0000
  H   H657      1.0  0.15457  0.62151  0.23073  1.0000
  C   C389      1.0  0.22732  0.79881  0.21301  1.0000
  H   H658      1.0  0.04764  0.72749  0.24126  1.0000
  H   H659      1.0  0.02507  0.66092  0.02859  1.0000
  C   C390      1.0  0.12086  0.60249  0.20842  1.0000
  H   H660      1.0  0.19448  0.81001  0.21335  1.0000
  H   H661      1.0  0.44267  0.78268  0.05803  1.0000
  S   S114      1.0  0.14111  0.50504  0.15553  1.0000
  H   H662      1.0  0.47050  0.81491  0.05397  1.0000
  H   H663      1.0  0.48121  0.81683  0.14249  1.0000
  H   H664      1.0  0.16037  0.63735  0.20697  1.0000
  H   H665      1.0  0.22892  0.78097  0.21839  1.0000
  C   C391      1.0  0.20145  0.79742  0.22189  1.0000
  H   H666      1.0  0.09262  0.73839  0.25344  1.0000
  H   H667      1.0  0.00316  0.85874  0.01473  1.0000
  C   C392      1.0  0.29424  0.50271  0.21870  1.0000
  H   H668      1.0  0.44293  0.96766  0.22918  1.0000
  H   H669      1.0  0.12749  0.58202  0.24640  1.0000
  H   H670      1.0  0.20406  0.80350  0.23808  1.0000
  H   H671      1.0  0.10451  0.52816  0.11409  1.0000
  H   H672      1.0  0.99457  0.82356  0.00932  1.0000
  H   H673      1.0  0.33759  0.51529  0.21503  1.0000
  H   H674      1.0  0.28178  0.50204  0.23182  1.0000
  H   H675      1.0  0.28987  0.49728  0.16600  1.0000
  H   H676      1.0  0.00685  0.64536  0.00523  1.0000
  C   C393      1.0  0.25489  0.80716  0.25308  1.0000
  C   C394      1.0  0.09665  0.84791  0.00645  1.0000
  H   H677      1.0  0.99526  0.68413  0.03246  1.0000
  C   C395      1.0  0.11862  0.50087  0.09988  1.0000
  H   H678      1.0  0.32107  0.49672  0.16397  1.0000
  H   H679      1.0  0.38493  0.49707  0.23195  1.0000
  S   S115      1.0  0.38189  0.50481  0.35997  1.0000
  C   C396      1.0  0.47947  0.91107  0.26606  1.0000
  S   S116      1.0  0.29686  0.97169  0.45594  1.0000
  H   H680      1.0  0.07966  0.78309  0.41823  1.0000
  Fe  Fe60      1.0  0.02253  0.73931  0.48666  1.0000
  S   S117      1.0  0.05022  0.72642  0.46937  1.0000
  Fe  Fe61      1.0  0.32982  0.87901  0.31344  1.0000
  S   S118      1.0  0.34736  0.85554  0.32980  1.0000
  S   S119      1.0  0.32208  0.86675  0.27998  1.0000
  Fe  Fe62      1.0  0.32336  0.90519  0.35365  1.0000
  S   S120      1.0  0.34140  0.88390  0.37199  1.0000
  S   S121      1.0  0.30164  0.92804  0.36701  1.0000
  Fe  Fe63      1.0  0.37190  0.89415  0.34749  1.0000
  S   S122      1.0  0.41763  0.91307  0.35217  1.0000
  Fe  Fe64      1.0  0.31518  0.84726  0.35240  1.0000
  S   S123      1.0  0.28927  0.80684  0.36664  1.0000
  S   S124      1.0  0.35578  0.91837  0.33016  1.0000
  S   S125      1.0  0.29594  0.86794  0.33507  1.0000
  Fe  Fe65      1.0  0.08996  0.65008  0.32168  1.0000
  S   S126      1.0  0.13187  0.65712  0.32929  1.0000
  S   S127      1.0  0.06807  0.63108  0.29180  1.0000
  Fe  Fe66      1.0  0.08265  0.67024  0.36428  1.0000
  S   S128      1.0  0.12439  0.67903  0.37454  1.0000
  S   S129      1.0  0.05059  0.67611  0.38175  1.0000
  Fe  Fe67      1.0  0.13739  0.69628  0.34379  1.0000
  S   S130      1.0  0.16860  0.73744  0.33385  1.0000
  Fe  Fe68      1.0  0.11492  0.63888  0.35908  1.0000
  S   S131      1.0  0.12319  0.60791  0.37563  1.0000
  S   S132      1.0  0.09608  0.68999  0.33450  1.0000
  S   S133      1.0  0.07246  0.62922  0.35058  1.0000
  C   C397      1.0  0.47387  0.55392  0.35264  1.0000
  C   C398      1.0  0.46093  0.52561  0.34978  1.0000
  C   C399      1.0  0.43279  0.51032  0.35168  1.0000
  C   C400      1.0  0.41727  0.52318  0.35663  1.0000
  C   C401      1.0  0.43022  0.55151  0.35936  1.0000
  C   C402      1.0  0.45833  0.56683  0.35729  1.0000
  H   H681      1.0  0.41843  0.56166  0.36321  1.0000
  H   H682      1.0  0.46796  0.58856  0.35958  1.0000
  C   C403      1.0  0.11054  0.57396  0.36667  1.0000
  C   C404      1.0  0.11298  0.55499  0.37903  1.0000
  C   C405      1.0  0.10386  0.52801  0.37218  1.0000
  C   C406      1.0  0.09234  0.51979  0.35283  1.0000
  C   C407      1.0  0.08940  0.53864  0.34065  1.0000
  C   C408      1.0  0.09848  0.56559  0.34749  1.0000
  H   H683      1.0  0.12194  0.56120  0.39400  1.0000
  H   H684      1.0  0.06187  0.62024  0.46022  1.0000
  H   H685      1.0  0.08018  0.53242  0.32576  1.0000
  H   H686      1.0  0.09632  0.57994  0.33787  1.0000
  C   C409      1.0  0.43666  0.89506  0.35171  1.0000
  C   C410      1.0  0.42463  0.86700  0.35359  1.0000
  C   C411      1.0  0.44069  0.85366  0.35432  1.0000
  C   C412      1.0  0.46882  0.86814  0.35281  1.0000
  H   H687      1.0  0.41737  0.85669  0.29591  1.0000
  C   C413      1.0  0.46481  0.90951  0.35008  1.0000
  H   H688      1.0  0.40300  0.85564  0.35491  1.0000
  H   H689      1.0  0.43121  0.83199  0.35612  1.0000
  H   H690      1.0  0.14535  0.89211  0.45389  1.0000
  H   H691      1.0  0.47426  0.93123  0.34857  1.0000
  C   C414      1.0  0.25628  0.78638  0.35671  1.0000
  C   C415      1.0  0.24699  0.79355  0.33935  1.0000
  C   C416      1.0  0.22013  0.77820  0.33256  1.0000
  C   C417      1.0  0.20238  0.75519  0.34279  1.0000
  C   C418      1.0  0.21172  0.74759  0.35995  1.0000
  C   C419      1.0  0.23859  0.76322  0.36692  1.0000
  H   H692      1.0  0.26045  0.81098  0.33114  1.0000
  H   H693      1.0  0.21312  0.78415  0.31922  1.0000
  H   H694      1.0  0.19820  0.72987  0.36793  1.0000
  H   H695      1.0  0.24565  0.75747  0.38033  1.0000
  C   C420      1.0  0.05005  0.71321  0.44463  1.0000
  C   C421      1.0  0.02799  0.70466  0.43120  1.0000
  C   C422      1.0  0.02873  0.69378  0.41196  1.0000
  C   C423      1.0  0.05163  0.69168  0.40572  1.0000
  C   C424      1.0  0.07393  0.70080  0.41899  1.0000
  C   C425      1.0  0.07300  0.71121  0.43837  1.0000
  H   H696      1.0  0.29526  0.85495  0.42537  1.0000
  H   H697      1.0  0.09174  0.69944  0.41446  1.0000
  H   H698      1.0  0.09022  0.71778  0.44860  1.0000
  H   H699      1.0  0.14655  0.86933  0.43526  1.0000
  H   H700      1.0  0.03132  0.74796  0.30359  1.0000
  C   C426      1.0  0.21612  0.55961  0.36780  1.0000
  H   H701      1.0  0.18690  0.57930  0.34322  1.0000
  C   C427      1.0  0.29563  0.95572  0.43208  1.0000
  C   C428      1.0  0.27440  0.94863  0.41799  1.0000
  C   C429      1.0  0.27632  0.93965  0.39830  1.0000
  C   C430      1.0  0.29898  0.93671  0.39261  1.0000
  C   C431      1.0  0.31947  0.94235  0.40703  1.0000
  C   C432      1.0  0.31790  0.95204  0.42652  1.0000
  H   H702      1.0  0.04565  0.83735  0.44254  1.0000
  H   H703      1.0  0.26036  0.93541  0.38727  1.0000
  H   H704      1.0  0.33709  0.94036  0.40291  1.0000
  C   C433      1.0  0.10462  0.66644  0.26497  1.0000
  H   H705      1.0  0.10926  0.77878  0.41812  1.0000
  C   C434      1.0  0.07905  0.64479  0.26779  1.0000
  H   H706      1.0  0.06990  0.78478  0.46301  1.0000
  H   H707      1.0  0.11881  0.67455  0.27758  1.0000
  S   S134      1.0  0.22938  0.97912  0.47375  1.0000
  H   H708      1.0  0.07666  0.86091  0.45445  1.0000
  H   H709      1.0  0.43295  0.86189  0.27196  1.0000
  C   C435      1.0  0.33824  0.91315  0.25744  1.0000
  C   C436      1.0  0.46918  0.91508  0.41084  1.0000
  H   H710      1.0  0.00007  0.60384  0.42555  1.0000
  H   H711      1.0  0.20213  0.54714  0.33033  1.0000
  C   C437      1.0  0.23774  0.85584  0.43556  1.0000
  H   H712      1.0  0.11787  0.87614  0.43620  1.0000
  H   H713      1.0  0.15349  0.53946  0.39977  1.0000
  H   H714      1.0  0.20715  0.78525  0.39504  1.0000
  H   H715      1.0  0.20805  0.60428  0.37451  1.0000
  H   H716      1.0  0.08147  0.59147  0.40873  1.0000
  C   C438      1.0  0.18604  0.59054  0.37387  1.0000
  C   C439      1.0  0.11373  0.81288  0.43719  1.0000
  H   H717      1.0  0.47562  0.88108  0.41715  1.0000
  N   N30       1.0  0.07078  0.72171  0.28076  1.0000
  H   H718      1.0  0.28131  0.88083  0.38969  1.0000
  C   C440      1.0  0.48078  0.89609  0.35036  1.0000
  H   H719      1.0  0.10438  0.77512  0.47276  1.0000
  H   H720      1.0  0.09488  0.74080  0.30797  1.0000
  N   N31       1.0  0.24846  0.84372  0.39976  1.0000
  C   C441      1.0  0.05264  0.73481  0.28262  1.0000
  C   C442      1.0  0.18572  0.53331  0.34013  1.0000
  H   H721      1.0  0.21336  0.82316  0.37971  1.0000
  N   N32       1.0  0.05106  0.60485  0.41309  1.0000
  H   H722      1.0  0.24391  0.82686  0.36943  1.0000
  H   H723      1.0  0.25483  0.82023  0.42323  1.0000
  H   H724      1.0  0.47274  0.51538  0.34625  1.0000
  C   C443      1.0  0.02600  0.60139  0.40186  1.0000
  H   H725      1.0  0.02705  0.59800  0.46153  1.0000
  C   C444      1.0  0.17829  0.56828  0.35730  1.0000
  H   H726      1.0  0.13872  0.74818  0.29704  1.0000
  H   H727      1.0  0.11003  0.85720  0.47200  1.0000
  S   S135      1.0  0.01391  0.77295  0.47672  1.0000
  H   H728      1.0  0.15604  0.55889  0.35505  1.0000
  H   H729      1.0  0.10473  0.76146  0.28645  1.0000
  H   H730      1.0  0.03322  0.72314  0.27426  1.0000
  H   H731      1.0  0.11078  0.66344  0.42591  1.0000
  H   H732      1.0  0.01131  0.68675  0.40188  1.0000
  H   H733      1.0  0.07001  0.59981  0.38620  1.0000
  N   N33       1.0  0.18714  0.54680  0.36042  1.0000
  H   H734      1.0  0.08839  0.76864  0.43945  1.0000
  H   H735      1.0  0.18884  0.54869  0.40254  1.0000
  H   H736      1.0  0.17899  0.58253  0.38890  1.0000
  C   C445      1.0  0.16852  0.52528  0.37419  1.0000
  H   H737      1.0  0.22873  0.52922  0.35768  1.0000
  H   H738      1.0  0.18892  0.51517  0.34178  1.0000
  H   H739      1.0  0.07835  0.58926  0.25514  1.0000
  C   C446      1.0  0.16911  0.53302  0.39669  1.0000
  H   H740      1.0  0.33670  0.92334  0.27101  1.0000
  C   C447      1.0  0.15906  0.52363  0.32781  1.0000
  C   C448      1.0  0.13279  0.87288  0.44530  1.0000
  H   H741      1.0  0.03464  0.71954  0.31210  1.0000
  C   C449      1.0  0.03149  0.67285  0.28340  1.0000
  H   H742      1.0  0.23678  0.80154  0.26232  1.0000
  H   H743      1.0  0.14729  0.51738  0.36890  1.0000
  C   C450      1.0  0.05943  0.69479  0.29080  1.0000
  H   H744      1.0  0.15619  0.54081  0.32238  1.0000
  H   H745      1.0  0.28679  0.85217  0.38714  1.0000
  C   C451      1.0  0.04531  0.73895  0.30428  1.0000
  H   H746      1.0  0.02212  0.65841  0.29569  1.0000
  H   H747      1.0  0.33446  0.95741  0.43723  1.0000
  H   H748      1.0  0.03324  0.66136  0.27016  1.0000
  H   H749      1.0  0.17161  0.50701  0.37337  1.0000
  H   H750      1.0  0.06023  0.58706  0.43877  1.0000
  H   H751      1.0  0.01127  0.57967  0.39977  1.0000
  H   H752      1.0  0.14125  0.51004  0.33636  1.0000
  H   H753      1.0  0.99352  0.61225  0.40104  1.0000
  H   H754      1.0  0.47137  0.92861  0.39816  1.0000
  H   H755      1.0  0.47830  0.88937  0.39146  1.0000
  H   H756      1.0  0.25548  0.80874  0.39868  1.0000
  C   C452      1.0  0.09933  0.64126  0.42292  1.0000
  C   C453      1.0  0.04484  0.55973  0.39642  1.0000
  C   C454      1.0  0.48337  0.84729  0.28375  1.0000
  H   H757      1.0  0.06058  0.80416  0.43606  1.0000
  H   H758      1.0  0.48177  0.83720  0.29841  1.0000
  H   H759      1.0  0.08401  0.70397  0.25700  1.0000
  C   C455      1.0  0.23703  0.86153  0.36702  1.0000
  H   H760      1.0  0.22387  0.85375  0.35327  1.0000
  H   H761      1.0  0.23022  0.87432  0.37566  1.0000
  H   H762      1.0  0.03110  0.60956  0.38641  1.0000
  H   H763      1.0  0.21635  0.52488  0.38313  1.0000
  N   N34       1.0  0.09952  0.82282  0.45163  1.0000
  H   H764      1.0  0.17624  0.60330  0.37010  1.0000
  H   H765      1.0  0.24881  0.55147  0.37767  1.0000
  C   C456      1.0  0.07691  0.82471  0.44034  1.0000
  C   C457      1.0  0.09649  0.78424  0.42790  1.0000
  H   H766      1.0  0.05733  0.55074  0.39024  1.0000
  H   H767      1.0  0.12840  0.80979  0.47961  1.0000
  H   H768      1.0  0.47563  0.92691  0.42526  1.0000
  H   H769      1.0  0.01017  0.70601  0.43574  1.0000
  H   H770      1.0  0.21942  0.57157  0.38199  1.0000
  H   H771      1.0  0.22929  0.57459  0.35680  1.0000
  H   H772      1.0  0.29081  0.88543  0.42592  1.0000
  H   H773      1.0  0.07306  0.68558  0.28891  1.0000
  H   H774      1.0  0.07462  0.64256  0.39831  1.0000
  H   H775      1.0  0.05504  0.82956  0.46631  1.0000
  C   C458      1.0  0.06314  0.59015  0.40095  1.0000
  H   H776      1.0  0.13194  0.81334  0.44449  1.0000
  H   H777      1.0  0.02216  0.63630  0.41490  1.0000
  C   C459      1.0  0.04456  0.59281  0.43372  1.0000
  H   H778      1.0  0.21532  0.77905  0.41974  1.0000
  C   C460      1.0  0.08770  0.80356  0.46864  1.0000
  C   C461      1.0  0.22779  0.53987  0.37168  1.0000
  H   H779      1.0  0.03757  0.62683  0.44644  1.0000
  C   C462      1.0  0.07135  0.63442  0.41378  1.0000
  H   H780      1.0  0.44727  0.90104  0.41162  1.0000
  H   H781      1.0  0.03527  0.54853  0.41010  1.0000
  H   H782      1.0  0.09808  0.63113  0.43732  1.0000
  H   H783      1.0  0.20248  0.80285  0.41666  1.0000
  H   H784      1.0  0.02932  0.55641  0.38461  1.0000
  H   H785      1.0  0.21393  0.84856  0.40845  1.0000
  C   C463      1.0  0.24500  0.81741  0.40820  1.0000
  H   H786      1.0  0.01711  0.68068  0.27991  1.0000
  H   H787      1.0  0.06405  0.64691  0.42214  1.0000
  H   H788      1.0  0.08387  0.83505  0.42581  1.0000
  C   C464      1.0  0.12063  0.73314  0.28841  1.0000
  H   H789      1.0  0.24466  0.87927  0.40870  1.0000
  H   H790      1.0  0.08001  0.81242  0.48042  1.0000
  H   H791      1.0  0.15963  0.51195  0.31425  1.0000
  H   H792      1.0  0.11127  0.63600  0.41215  1.0000
  H   H793      1.0  0.46483  0.83386  0.27483  1.0000
  C   C465      1.0  0.07636  0.71895  0.25885  1.0000
  H   H794      1.0  0.25708  0.95123  0.42197  1.0000
  H   H795      1.0  0.13633  0.84886  0.46863  1.0000
  H   H796      1.0  0.12127  0.82648  0.42420  1.0000
  H   H797      1.0  0.25761  0.87417  0.36163  1.0000
  C   C466      1.0  0.48437  0.89848  0.40690  1.0000
  C   C467      1.0  0.27806  0.86209  0.39721  1.0000
  H   H798      1.0  0.24079  0.87535  0.44255  1.0000
  C   C468      1.0  0.11952  0.85004  0.46043  1.0000
  C   C469      1.0  0.06308  0.83903  0.45177  1.0000
  C   C470      1.0  0.23524  0.83732  0.37898  1.0000
  H   H799      1.0  0.21840  0.84024  0.44140  1.0000
  C   C471      1.0  0.23583  0.85744  0.41236  1.0000
  H   H800      1.0  0.25445  0.85243  0.44134  1.0000
  C   C472      1.0  0.29583  0.87182  0.41654  1.0000
  H   H801      1.0  0.10539  0.51348  0.38197  1.0000
  C   C473      1.0  0.21565  0.79513  0.40997  1.0000
  H   H802      1.0  0.31711  0.88417  0.41225  1.0000
  C   C474      1.0  0.43324  0.85463  0.28731  1.0000
  H   H803      1.0  0.02521  0.57369  0.43306  1.0000
  H   H804      1.0  0.05895  0.69703  0.30745  1.0000
  Fe  Fe69      1.0  0.27034  0.98127  0.47753  1.0000
  H   H805      1.0  0.45942  0.85996  0.31270  1.0000
  C   C475      1.0  0.46056  0.87087  0.29860  1.0000
  C   C476      1.0  0.48732  0.88787  0.26705  1.0000
  C   C477      1.0  0.10690  0.79462  0.47931  1.0000
  H   H806      1.0  0.42732  0.83271  0.28654  1.0000
  H   H807      1.0  0.10087  0.79021  0.49522  1.0000
  C   C478      1.0  0.09728  0.74025  0.29137  1.0000
  H   H808      1.0  0.06315  0.75323  0.31342  1.0000
  C   C479      1.0  0.00991  0.61437  0.41170  1.0000
  H   H809      1.0  0.46141  0.89013  0.30397  1.0000
  H   H810      1.0  0.12649  0.73398  0.27245  1.0000
  H   H811      1.0  0.16466  0.51499  0.40582  1.0000
  H   H812      1.0  0.06205  0.75495  0.27550  1.0000
  H   H813      1.0  0.11609  0.71316  0.29440  1.0000
  C   C480      1.0  0.04285  0.61093  0.45103  1.0000
  H   H814      1.0  0.11200  0.60607  0.26577  1.0000
  S   S136      1.0  0.48822  0.85060  0.35420  1.0000
  N   N35       1.0  0.48521  0.87497  0.28718  1.0000
  H   H815      1.0  0.27207  0.81388  0.26411  1.0000
  H   H816      1.0  0.47732  0.91938  0.28073  1.0000
  C   C481      1.0  0.33369  0.88632  0.25818  1.0000
  H   H817      1.0  0.46048  0.90447  0.25707  1.0000
  H   H818      1.0  0.47434  0.87227  0.25554  1.0000
  H   H819      1.0  0.05006  0.76184  0.61192  1.0000
  H   H820      1.0  0.09433  0.81871  0.62404  1.0000
  Fe  Fe70      1.0  0.03166  0.79267  0.50703  1.0000
  H   H821      1.0  0.01956  0.75119  0.59680  1.0000
  H   H822      1.0  0.01880  0.78520  0.58233  1.0000
  H   H823      1.0  0.03737  0.73195  0.59623  1.0000
  S   S137      1.0  0.26267  0.96268  0.50800  1.0000
  H   H824      1.0  0.03761  0.83488  0.58002  1.0000
  Fe  Fe71      1.0  0.22162  0.96131  0.50488  1.0000
  S   S138      1.0  0.05968  0.83857  0.51050  1.0000
  H   H825      1.0  0.37713  0.96104  0.58015  1.0000
  H   H826      1.0  0.10713  0.82943  0.51587  1.0000
  H   H827      1.0  0.04812  0.75675  0.56524  1.0000
  H   H828      1.0  0.05313  0.80553  0.60805  1.0000
  H   H829      1.0  0.09803  0.79741  0.60594  1.0000
  H   H830      1.0  0.11363  0.83345  0.60196  1.0000
  N   N36       1.0  0.06120  0.79737  0.57736  1.0000
  C   C482      1.0  0.36650  0.97274  0.58458  1.0000
  C   C483      1.0  0.05731  0.76887  0.57940  1.0000
  C   C484      1.0  0.08107  0.81196  0.56110  1.0000
  C   C485      1.0  0.06969  0.81333  0.59703  1.0000
  H   H831      1.0  0.07664  0.76820  0.58138  1.0000
  S   S139      1.0  0.04148  0.75993  0.51671  1.0000
  H   H832      1.0  0.07098  0.80663  0.54589  1.0000
  C   C486      1.0  0.09549  0.81584  0.60753  1.0000
  H   H833      1.0  0.04814  0.83350  0.55448  1.0000
  H   H834      1.0  0.35528  0.96478  0.59859  1.0000
  H   H835      1.0  0.35106  0.96918  0.57260  1.0000
  C   C487      1.0  0.04006  0.75297  0.59715  1.0000
  H   H836      1.0  0.39028  0.97880  0.61977  1.0000
  H   H837      1.0  0.08894  0.83427  0.56285  1.0000
  H   H838      1.0  0.07345  0.83449  0.59483  1.0000
  H   H839      1.0  0.12039  0.82173  0.54909  1.0000
  C   C488      1.0  0.10575  0.80680  0.55933  1.0000
  H   H840      1.0  0.02649  0.78196  0.55698  1.0000
  H   H841      1.0  0.09981  0.78643  0.55250  1.0000
  C   C489      1.0  0.03383  0.82195  0.56626  1.0000
  H   H842      1.0  0.11658  0.80910  0.57383  1.0000
  C   C490      1.0  0.09529  0.86030  0.51058  1.0000
  C   C491      1.0  0.03428  0.79511  0.57081  1.0000
  C   C492      1.0  0.10497  0.88815  0.50752  1.0000
  H   H843      1.0  0.01342  0.81725  0.56035  1.0000
  H   H844      1.0  0.42007  0.97872  0.59400  1.0000
  Fe  Fe72      1.0  0.99947  0.73854  0.52885  1.0000
  S   S140      1.0  0.18745  0.91822  0.51077  1.0000
  C   C493      1.0  0.15177  0.89656  0.51038  1.0000
  C   C494      1.0  0.14205  0.86868  0.51351  1.0000
  C   C495      1.0  0.11411  0.85068  0.51350  1.0000
  H   H845      1.0  0.15634  0.86098  0.51599  1.0000
  H   H846      1.0  0.13989  0.92741  0.50489  1.0000
  C   C496      1.0  0.13292  0.90611  0.50725  1.0000
  H   H847      1.0  0.09072  0.89595  0.50527  1.0000
  H   H848      1.0  0.43621  0.99578  0.63240  1.0000
  C   C497      1.0  0.00007  0.62068  0.91288  1.0000
  H   H849      1.0  0.06016  0.85059  0.96362  1.0000
  H   H850      1.0  0.01755  0.82419  0.93639  1.0000
  N   N37       1.0  0.02605  0.85390  0.97594  1.0000
  C   C498      1.0  0.05143  0.86487  0.96383  1.0000
  H   H851      1.0  0.08487  0.89146  0.98454  1.0000
  H   H852      1.0  0.04396  0.84044  0.99925  1.0000
  H   H853      1.0  0.01554  0.87939  0.95761  1.0000
  H   H854      1.0  0.00966  0.54027  0.88016  1.0000
  C   C499      1.0  0.11543  0.85406  0.97333  1.0000
  C   C500      1.0  0.13667  0.87953  0.97954  1.0000
  H   H855      1.0  0.11462  0.84677  0.95799  1.0000
  H   H856      1.0  0.15191  0.89152  0.96902  1.0000
  C   C501      1.0  0.99640  0.56480  0.89809  1.0000
  H   H857      1.0  0.30039  0.99132  0.90741  1.0000
  C   C502      1.0  0.00851  0.82520  0.96845  1.0000
  H   H858      1.0  0.02324  0.89044  0.98322  1.0000
  H   H859      1.0  0.00300  0.61312  0.87439  1.0000
  Fe  Fe73      1.0  0.20388  0.95780  0.99885  1.0000
  C   C503      1.0  0.03392  0.85350  0.99771  1.0000
  Fe  Fe74      1.0  0.02956  0.77369  0.99114  1.0000
  S   S141      1.0  0.02611  0.73363  0.00091  1.0000
  H   H860      1.0  0.00466  0.63378  0.92670  1.0000
  C   C504      1.0  0.09518  0.83808  0.98666  1.0000
  S   S142      1.0  0.24381  0.95704  0.99934  1.0000
  H   H861      1.0  0.06712  0.90810  0.97294  1.0000
  H   H862      1.0  0.01357  0.58266  0.89180  1.0000
  C   C505      1.0  0.01293  0.87198  0.97330  1.0000
  S   S143      1.0  0.21599  0.98729  0.97356  1.0000
  H   H863      1.0  0.00478  0.56187  0.91258  1.0000
  H   H864      1.0  0.01936  0.62209  0.90768  1.0000
  S   S144      1.0  0.06799  0.80680  0.97743  1.0000
  H   H865      1.0  0.08976  0.90029  0.95888  1.0000
  C   C506      1.0  0.07429  0.89282  0.97067  1.0000
  C   C507      1.0  0.13787  0.88955  0.99922  1.0000
  C   C508      1.0  0.00041  0.82166  0.94587  1.0000
  H   H866      1.0  0.04693  0.86683  0.94774  1.0000
  S   S145      1.0  0.27754  0.98764  0.94645  1.0000
  H   H867      1.0  0.01896  0.81273  0.97116  1.0000
  Fe  Fe75      1.0  0.25720  0.98947  0.97583  1.0000
  H   H868      1.0  0.99248  0.58334  0.85859  1.0000
  H   H869      1.0  0.04878  0.87397  0.00338  1.0000
  H   H870      1.0  0.99266  0.83569  0.94106  1.0000
  C   C509      1.0  0.70735  0.04858  0.05203  1.0000
  H   H871      1.0  0.86387  0.10269  0.04998  1.0000
  H   H872      1.0  0.73371  0.06090  0.09491  1.0000
  H   H873      1.0  0.83569  0.02252  0.04622  1.0000
  C   C510      1.0  0.89632  0.02938  0.03514  1.0000
  H   H874      1.0  0.75406  0.08919  0.04580  1.0000
  C   C511      1.0  0.75037  0.07554  0.08567  1.0000
  H   H875      1.0  0.79234  0.06182  0.07748  1.0000
  H   H876      1.0  0.80236  0.11481  0.04040  1.0000
  N   N38       1.0  0.75451  0.06097  0.06772  1.0000
  C   C512      1.0  0.86553  0.10683  0.03407  1.0000
  H   H877      1.0  0.77638  0.02029  0.09366  1.0000
  H   H878      1.0  0.77225  0.07877  0.11423  1.0000
  H   H879      1.0  0.79469  0.09636  0.09421  1.0000
  H   H880      1.0  0.68702  0.03086  0.05037  1.0000
  C   C513      1.0  0.76039  0.02559  0.08882  1.0000
  H   H881      1.0  0.81029  0.09795  0.05964  1.0000
  H   H882      1.0  0.76847  0.06857  0.03716  1.0000
  H   H883      1.0  0.77499  0.10979  0.10581  1.0000
  C   C514      1.0  0.87917  0.00594  0.02008  1.0000
  C   C515      1.0  0.76694  0.07994  0.05063  1.0000
  C   C516      1.0  0.88846  0.12970  0.02723  1.0000
  C   C517      1.0  0.79500  0.10407  0.05471  1.0000
  C   C518      1.0  0.77154  0.04729  0.07264  1.0000
  H   H884      1.0  0.90696  0.04893  0.02750  1.0000
  C   C519      1.0  0.84487  0.08935  0.02055  1.0000
  S   S146      1.0  0.74163  0.02683  0.00463  1.0000
  Fe  Fe76      1.0  0.77981  0.02558  0.01412  1.0000
  S   S147      1.0  0.81664  0.06046  0.03012  1.0000
  H   H885      1.0  0.77422  0.03723  0.05884  1.0000
  H   H886      1.0  0.70542  0.06346  0.06225  1.0000
  H   H887      1.0  0.90411  0.14287  0.03784  1.0000
  H   H888      1.0  0.74365  0.09040  0.08058  1.0000
  C   C520      1.0  0.77470  0.09066  0.10048  1.0000
  H   H889      1.0  0.79414  0.11895  0.06559  1.0000
  H   H890      1.0  0.74343  0.00670  0.08259  1.0000
  C   C521      1.0  0.72734  0.03905  0.06028  1.0000
  H   H891      1.0  0.91214  0.02530  0.04217  1.0000
  H   H892      1.0  0.72978  0.02631  0.04819  1.0000
  H   H893      1.0  0.71665  0.02487  0.07249  1.0000
  H   H894      1.0  0.71281  0.05683  0.03673  1.0000
  H   H895      1.0  0.88459  0.03184  0.04750  1.0000
  H   H896      1.0  0.86251  0.04576  0.02248  1.0000
  C   C522      1.0  0.83115  0.00101  0.04544  1.0000
  H   H897      1.0  0.89322  0.00669  0.00811  1.0000
  H   H898      1.0  0.75377  0.03250  0.10237  1.0000
  N   N39       1.0  0.85417  0.00572  0.01100  1.0000
  Fe  Fe77      1.0  0.95995  0.20187  0.00537  1.0000
  S   S148      1.0  0.96405  0.24405  0.00950  1.0000
  C   C523      1.0  0.85729  0.03376  0.00811  1.0000
  C   C524      1.0  0.89115  0.13546  0.00669  1.0000
  H   H899      1.0  0.84545  0.99746  0.05509  1.0000
  H   H900      1.0  0.93230  0.17882  0.45463  1.0000
  H   H901      1.0  0.87973  0.14223  0.43905  1.0000
  H   H902      1.0  0.94915  0.23974  0.45204  1.0000
  C   C525      1.0  0.91319  0.24147  0.46012  1.0000
  H   H903      1.0  0.97048  0.18887  0.43413  1.0000
  S   S149      1.0  0.75550  0.02903  0.49363  1.0000
  H   H904      1.0  0.92160  0.16881  0.42915  1.0000
  H   H905      1.0  0.89545  0.22995  0.46954  1.0000
  H   H906      1.0  0.85064  0.14715  0.43996  1.0000
  H   H907      1.0  0.93904  0.23824  0.39662  1.0000
  H   H908      1.0  0.92668  0.26018  0.46893  1.0000
  H   H909      1.0  0.97303  0.22090  0.44091  1.0000
  H   H910      1.0  0.93106  0.21704  0.47047  1.0000
  H   H911      1.0  0.96098  0.20606  0.41586  1.0000
  C   C526      1.0  0.92850  0.22509  0.45585  1.0000
  C   C527      1.0  0.84792  0.09994  0.49661  1.0000
  S   S150      1.0  0.91647  0.17284  0.49649  1.0000
  H   H912      1.0  0.95641  0.24492  0.42023  1.0000
  H   H913      1.0  0.87226  0.15963  0.41892  1.0000
  H   H914      1.0  0.98155  0.40005  0.29153  1.0000
  N   N40       1.0  0.91562  0.20246  0.44025  1.0000
  H   H915      1.0  0.90676  0.24763  0.44615  1.0000
  C   C528      1.0  0.91304  0.21223  0.41966  1.0000
  H   H916      1.0  0.87468  0.19381  0.44725  1.0000
  H   H917      1.0  0.89469  0.21516  0.41878  1.0000
  H   H918      1.0  0.91002  0.19657  0.40785  1.0000
  C   C529      1.0  0.93652  0.23935  0.41313  1.0000
  C   C530      1.0  0.87202  0.15677  0.43540  1.0000
  C   C531      1.0  0.88776  0.18371  0.44744  1.0000
  H   H919      1.0  0.88862  0.17847  0.46342  1.0000
  C   C532      1.0  0.96058  0.20196  0.43217  1.0000
  H   H920      1.0  0.93151  0.25623  0.41552  1.0000
  C   C533      1.0  0.93149  0.18679  0.43949  1.0000
  H   H921      1.0  0.86091  0.13949  0.48438  1.0000
  H   H922      1.0  0.96885  0.42294  0.31657  1.0000
  C   C534      1.0  0.86686  0.12715  0.49339  1.0000
  H   H923      1.0  0.82781  0.09165  0.49004  1.0000
  H   H924      1.0  0.98652  0.39443  0.25762  1.0000
  C   C535      1.0  0.89331  0.13844  0.50166  1.0000
  Fe  Fe78      1.0  0.95968  0.20656  0.50428  1.0000
  C   C536      1.0  0.99064  0.42874  0.31583  1.0000
  H   H925      1.0  0.99111  0.43304  0.28352  1.0000
  H   H926      1.0  0.84900  0.08838  0.57045  1.0000
  H   H927      1.0  0.79002  0.02310  0.57732  1.0000
  H   H928      1.0  0.49759  0.42433  0.64118  1.0000
  Fe  Fe79      1.0  0.90342  0.31958  0.63901  1.0000
  S   S151      1.0  0.87503  0.33801  0.63878  1.0000
  S   S152      1.0  0.91078  0.30894  0.60676  1.0000
  Fe  Fe80      1.0  0.90411  0.31977  0.68568  1.0000
  S   S153      1.0  0.87565  0.33746  0.68839  1.0000
  S   S154      1.0  0.92065  0.30700  0.71255  1.0000
  Fe  Fe81      1.0  0.85283  0.30856  0.66276  1.0000
  S   S155      1.0  0.80732  0.28611  0.66020  1.0000
  Fe  Fe82      1.0  0.90024  0.36543  0.66427  1.0000
  S   S156      1.0  0.91703  0.41105  0.66845  1.0000
  S   S157      1.0  0.87935  0.28847  0.66164  1.0000
  S   S158      1.0  0.93056  0.34942  0.66296  1.0000
  Fe  Fe83      1.0  0.67307  0.07623  0.64327  1.0000
  S   S159      1.0  0.68725  0.11860  0.63258  1.0000
  S   S160      1.0  0.68062  0.04367  0.62713  1.0000
  Fe  Fe84      1.0  0.65598  0.08977  0.68477  1.0000
  S   S161      1.0  0.67014  0.13296  0.67663  1.0000
  S   S162      1.0  0.63435  0.08003  0.71472  1.0000
  Fe  Fe85      1.0  0.64932  0.11569  0.64668  1.0000
  S   S163      1.0  0.62322  0.13431  0.63525  1.0000
  Fe  Fe86      1.0  0.70612  0.13154  0.66362  1.0000
  S   S164      1.0  0.75013  0.15951  0.67135  1.0000
  S   S165      1.0  0.63365  0.07235  0.65520  1.0000
  S   S166      1.0  0.69356  0.08941  0.67396  1.0000
  H   H929      1.0  0.93642  0.36684  0.62039  1.0000
  H   H930      1.0  0.75474  0.45955  0.61024  1.0000
  S   S167      1.0  0.71283  0.03108  0.53661  1.0000
  C   C537      1.0  0.58745  0.11760  0.63546  1.0000
  C   C538      1.0  0.57351  0.13303  0.63473  1.0000
  C   C539      1.0  0.54514  0.12058  0.63541  1.0000
  C   C540      1.0  0.53036  0.09243  0.63618  1.0000
  C   C541      1.0  0.54426  0.07694  0.63652  1.0000
  C   C542      1.0  0.57266  0.08944  0.63643  1.0000
  H   H931      1.0  0.58475  0.15478  0.63378  1.0000
  H   H932      1.0  0.53473  0.13275  0.63494  1.0000
  H   H933      1.0  0.53304  0.05514  0.63701  1.0000
  H   H934      1.0  0.58308  0.07729  0.63682  1.0000
  C   C543      1.0  0.69049  0.04122  0.60202  1.0000
  C   C544      1.0  0.69766  0.02078  0.59701  1.0000
  C   C545      1.0  0.70477  0.01745  0.57719  1.0000
  C   C546      1.0  0.70447  0.03435  0.56200  1.0000
  C   C547      1.0  0.69762  0.05499  0.56704  1.0000
  C   C548      1.0  0.69087  0.05855  0.58692  1.0000
  H   H935      1.0  0.52653  0.47349  0.64803  1.0000
  H   H936      1.0  0.69728  0.06819  0.55544  1.0000
  H   H937      1.0  0.68530  0.07426  0.59045  1.0000
  C   C549      1.0  0.79095  0.25126  0.66486  1.0000
  C   C550      1.0  0.80516  0.23843  0.67277  1.0000
  C   C551      1.0  0.79217  0.21030  0.67496  1.0000
  C   C552      1.0  0.76492  0.19481  0.66928  1.0000
  C   C553      1.0  0.75046  0.20764  0.66184  1.0000
  C   C554      1.0  0.76347  0.23586  0.65971  1.0000
  H   H938      1.0  0.82621  0.25015  0.67701  1.0000
  H   H939      1.0  0.80339  0.20043  0.68080  1.0000
  H   H940      1.0  0.72942  0.19582  0.65746  1.0000
  H   H941      1.0  0.75238  0.24572  0.65360  1.0000
  H   H942      1.0  0.72373  0.44225  0.63796  1.0000
  H   H943      1.0  0.75617  0.15595  0.74758  1.0000
  H   H944      1.0  0.75806  0.08090  0.54668  1.0000
  C   C555      1.0  0.78258  0.43004  0.60165  1.0000
  C   C556      1.0  0.96893  0.28340  0.57478  1.0000
  C   C557      1.0  0.94667  0.28285  0.56450  1.0000
  C   C558      1.0  0.92910  0.29052  0.57460  1.0000
  C   C559      1.0  0.93319  0.29846  0.59517  1.0000
  C   C560      1.0  0.95516  0.29857  0.60555  1.0000
  H   H945      1.0  0.76105  0.42479  0.59949  1.0000
  N   N41       1.0  0.54050  0.42837  0.70505  1.0000
  H   H946      1.0  0.91233  0.29049  0.56632  1.0000
  H   H947      1.0  0.95874  0.30467  0.62132  1.0000
  C   C561      1.0  0.97296  0.29129  0.59537  1.0000
  C   C562      1.0  0.56382  0.47247  0.64228  1.0000
  C   C563      1.0  0.57536  0.45602  0.63647  1.0000
  C   C564      1.0  0.55882  0.42823  0.63217  1.0000
  C   C565      1.0  0.53072  0.41649  0.63413  1.0000
  C   C566      1.0  0.51920  0.43303  0.63981  1.0000
  C   C567      1.0  0.53566  0.46092  0.64359  1.0000
  H   H948      1.0  0.59701  0.46459  0.63546  1.0000
  H   H949      1.0  0.56789  0.41562  0.62768  1.0000
  C   C568      1.0  0.80627  0.46345  0.66309  1.0000
  C   C569      1.0  0.88291  0.46633  0.64470  1.0000
  C   C570      1.0  0.90544  0.47648  0.65776  1.0000
  C   C571      1.0  0.91540  0.45918  0.66501  1.0000
  C   C572      1.0  0.90285  0.43154  0.65946  1.0000
  C   C573      1.0  0.88021  0.42131  0.64646  1.0000
  C   C574      1.0  0.87037  0.43868  0.63906  1.0000
  H   H950      1.0  0.57787  0.48153  0.59018  1.0000
  H   H951      1.0  0.93296  0.46731  0.67500  1.0000
  H   H952      1.0  0.87036  0.40009  0.64206  1.0000
  H   H953      1.0  0.85295  0.43064  0.62895  1.0000
  C   C575      1.0  0.69307  0.14591  0.73426  1.0000
  C   C576      1.0  0.64955  0.07928  0.73809  1.0000
  C   C577      1.0  0.67263  0.07572  0.73919  1.0000
  C   C578      1.0  0.76346  0.46522  0.62581  1.0000
  H   H954      1.0  0.68103  0.07234  0.72550  1.0000
  S   S168      1.0  0.96262  0.24835  0.50625  1.0000
  C   C579      1.0  0.92862  0.32295  0.73682  1.0000
  H   H955      1.0  0.86677  0.21498  0.75033  1.0000
  H   H956      1.0  0.96657  0.32205  0.73819  1.0000
  C   C580      1.0  0.96585  0.42546  0.59396  1.0000
  N   N42       1.0  0.55336  0.11501  0.70315  1.0000
  C   C581      1.0  0.52663  0.11058  0.69408  1.0000
  C   C582      1.0  0.57040  0.14510  0.70650  1.0000
  C   C583      1.0  0.54780  0.10139  0.72319  1.0000
  C   C584      1.0  0.56589  0.10281  0.68899  1.0000
  H   H957      1.0  0.82823  0.49245  0.60941  1.0000
  H   H958      1.0  0.81587  0.44881  0.62289  1.0000
  C   C585      1.0  0.57231  0.10382  0.73558  1.0000
  C   C586      1.0  0.59687  0.11406  0.69049  1.0000
  H   H959      1.0  0.51776  0.12128  0.70328  1.0000
  H   H960      1.0  0.52925  0.11922  0.67879  1.0000
  H   H961      1.0  0.59043  0.15026  0.71324  1.0000
  H   H962      1.0  0.56086  0.15300  0.71763  1.0000
  H   H963      1.0  0.53669  0.10919  0.73289  1.0000
  H   H964      1.0  0.53458  0.07926  0.72115  1.0000
  H   H965      1.0  0.55655  0.08047  0.69052  1.0000
  H   H966      1.0  0.56153  0.10606  0.67324  1.0000
  C   C587      1.0  0.59070  0.45420  0.69428  1.0000
  C   C588      1.0  0.90041  0.12204  0.51341  1.0000
  C   C589      1.0  0.67627  0.16084  0.73086  1.0000
  H   H967      1.0  0.59131  0.43480  0.69528  1.0000
  N   N43       1.0  0.72291  0.16318  0.73800  1.0000
  H   H968      1.0  0.68897  0.13238  0.72078  1.0000
  H   H969      1.0  0.98835  0.42128  0.62997  1.0000
  H   H970      1.0  0.58758  0.12502  0.73880  1.0000
  H   H971      1.0  0.58160  0.09222  0.72825  1.0000
  H   H972      1.0  0.60181  0.09746  0.68655  1.0000
  H   H973      1.0  0.60637  0.12228  0.70541  1.0000
  H   H974      1.0  0.60691  0.12945  0.67893  1.0000
  N   N44       1.0  0.82491  0.22852  0.61223  1.0000
  C   C590      1.0  0.79527  0.21347  0.61678  1.0000
  C   C591      1.0  0.83382  0.25817  0.61635  1.0000
  C   C592      1.0  0.83973  0.21919  0.62669  1.0000
  C   C593      1.0  0.82861  0.22219  0.59063  1.0000
  C   C594      1.0  0.78239  0.18229  0.61644  1.0000
  C   C595      1.0  0.81821  0.27023  0.60456  1.0000
  C   C596      1.0  0.87056  0.23212  0.62496  1.0000
  C   C597      1.0  0.85418  0.24298  0.58018  1.0000
  H   H975      1.0  0.79147  0.21980  0.63182  1.0000
  H   H976      1.0  0.78307  0.21854  0.60593  1.0000
  H   H977      1.0  0.85538  0.27093  0.61343  1.0000
  H   H978      1.0  0.83196  0.26193  0.63264  1.0000
  H   H979      1.0  0.83541  0.22255  0.64256  1.0000
  H   H980      1.0  0.83273  0.19710  0.62478  1.0000
  H   H981      1.0  0.82835  0.20215  0.58939  1.0000
  H   H982      1.0  0.81133  0.22042  0.58104  1.0000
  H   H983      1.0  0.76013  0.17386  0.61707  1.0000
  H   H984      1.0  0.78686  0.17401  0.60254  1.0000
  H   H985      1.0  0.78851  0.17491  0.63000  1.0000
  H   H986      1.0  0.79806  0.26402  0.61100  1.0000
  H   H987      1.0  0.82931  0.29265  0.60612  1.0000
  H   H988      1.0  0.81603  0.26471  0.58829  1.0000
  H   H989      1.0  0.87887  0.22510  0.63751  1.0000
  H   H990      1.0  0.88057  0.25445  0.62636  1.0000
  H   H991      1.0  0.87634  0.22552  0.61081  1.0000
  H   H992      1.0  0.86102  0.23207  0.56943  1.0000
  H   H993      1.0  0.87161  0.25513  0.59029  1.0000
  H   H994      1.0  0.84956  0.25669  0.57085  1.0000
  H   H995      1.0  0.79445  0.44195  0.58889  1.0000
  C   C598      1.0  0.73520  0.14447  0.74132  1.0000
  H   H996      1.0  0.81051  0.05537  0.58936  1.0000
  N   N45       1.0  0.79228  0.47008  0.62656  1.0000
  C   C599      1.0  0.73837  0.20892  0.71969  1.0000
  H   H997      1.0  0.50343  0.41896  0.72051  1.0000
  H   H998      1.0  0.60450  0.46876  0.70593  1.0000
  C   C600      1.0  0.96810  0.42018  0.63101  1.0000
  C   C601      1.0  0.96153  0.45046  0.58997  1.0000
  H   H999      1.0  0.59967  0.46282  0.67962  1.0000
  H   H1000     1.0  0.71715  0.11736  0.71428  1.0000
  H   H1001     1.0  0.91466  0.39356  0.62790  1.0000
  S   S169      1.0  0.86996  0.48745  0.63488  1.0000
  H   H1002     1.0  0.95522  0.45115  0.63916  1.0000
  H   H1003     1.0  0.94664  0.44606  0.57741  1.0000
  N   N46       1.0  0.95177  0.40862  0.61174  1.0000
  H   H1004     1.0  0.72505  0.16934  0.70573  1.0000
  H   H1005     1.0  0.55602  0.45397  0.67958  1.0000
  H   H1006     1.0  0.58257  0.15417  0.67480  1.0000
  H   H1007     1.0  0.89166  0.32534  0.74064  1.0000
  C   C602      1.0  0.50414  0.44284  0.69512  1.0000
  C   C603      1.0  0.73585  0.18016  0.71992  1.0000
  C   C604      1.0  0.56239  0.45259  0.69519  1.0000
  H   H1008     1.0  0.71929  0.20949  0.72264  1.0000
  C   C605      1.0  0.94877  0.38047  0.60842  1.0000
  H   H1009     1.0  0.88559  0.39460  0.59884  1.0000
  H   H1010     1.0  0.78620  0.44662  0.66610  1.0000
  H   H1011     1.0  0.53237  0.37502  0.67188  1.0000
  H   H1012     1.0  0.77460  0.03712  0.59376  1.0000
  H   H1013     1.0  0.76229  0.48409  0.62976  1.0000
  H   H1014     1.0  0.61226  0.48915  0.58710  1.0000
  S   S170      1.0  0.76382  0.99812  0.53319  1.0000
  H   H1015     1.0  0.82339  0.12482  0.56996  1.0000
  C   C606      1.0  0.91031  0.32830  0.74785  1.0000
  H   H1016     1.0  0.74259  0.11292  0.72747  1.0000
  H   H1017     1.0  0.75213  0.14145  0.71201  1.0000
  C   C607      1.0  0.81910  0.10352  0.57230  1.0000
  H   H1018     1.0  0.81453  0.10845  0.52853  1.0000
  H   H1019     1.0  0.85061  0.23776  0.72196  1.0000
  Fe  Fe87      1.0  0.73156  0.00722  0.52058  1.0000
  H   H1020     1.0  0.82344  0.10244  0.58860  1.0000
  H   H1021     1.0  0.79139  0.07257  0.52476  1.0000
  H   H1022     1.0  0.83371  0.08767  0.54627  1.0000
  H   H1023     1.0  0.51821  0.45906  0.68546  1.0000
  H   H1024     1.0  0.98066  0.46712  0.58471  1.0000
  C   C608      1.0  0.79041  0.04239  0.58233  1.0000
  H   H1025     1.0  0.78025  0.07996  0.59907  1.0000
  C   C609      1.0  0.52724  0.40462  0.69037  1.0000
  H   H1026     1.0  0.69737  0.00720  0.60852  1.0000
  H   H1027     1.0  0.79599  0.05316  0.55141  1.0000
  H   H1028     1.0  0.75180  0.06876  0.58258  1.0000
  H   H1029     1.0  0.76298  0.04257  0.55939  1.0000
  H   H1030     1.0  0.81438  0.47526  0.67745  1.0000
  H   H1031     1.0  0.85778  0.11865  0.55749  1.0000
  H   H1032     1.0  0.56067  0.40742  0.67191  1.0000
  H   H1033     1.0  0.56595  0.41350  0.71972  1.0000
  C   C610      1.0  0.57555  0.16219  0.68750  1.0000
  C   C611      1.0  0.73664  0.12836  0.72257  1.0000
  H   H1034     1.0  0.93768  0.37114  0.59398  1.0000
  S   S171      1.0  0.51080  0.38123  0.62937  1.0000
  H   H1035     1.0  0.74220  0.42346  0.63663  1.0000
  H   H1036     1.0  0.78425  0.42916  0.63375  1.0000
  H   H1037     1.0  0.49347  0.06297  0.74858  1.0000
  H   H1038     1.0  0.79227  0.12914  0.59007  1.0000
  H   H1039     1.0  0.82021  0.45516  0.65899  1.0000
  C   C612      1.0  0.84051  0.09879  0.56084  1.0000
  H   H1040     1.0  0.89677  0.36961  0.59604  1.0000
  H   H1041     1.0  0.75924  0.11479  0.57749  1.0000
  H   H1042     1.0  0.56540  0.47163  0.70307  1.0000
  H   H1043     1.0  0.94330  0.27699  0.54868  1.0000
  H   H1044     1.0  0.55419  0.38563  0.69353  1.0000
  H   H1045     1.0  0.95818  0.40668  0.64377  1.0000
  C   C613      1.0  0.79435  0.44448  0.62217  1.0000
  C   C614      1.0  0.79321  0.09269  0.52875  1.0000
  C   C615      1.0  0.86702  0.24721  0.73360  1.0000
  H   H1046     1.0  0.51891  0.40996  0.67692  1.0000
  C   C616      1.0  0.92383  0.40560  0.61439  1.0000
  H   H1047     1.0  0.78380  0.11458  0.55091  1.0000
  H   H1048     1.0  0.78377  0.41071  0.60107  1.0000
  H   H1049     1.0  0.51208  0.06836  0.68288  1.0000
  C   C617      1.0  0.97513  0.37810  0.60762  1.0000
  C   C618      1.0  0.78449  0.05554  0.56400  1.0000
  C   C619      1.0  0.77194  0.11152  0.58901  1.0000
  C   C620      1.0  0.77301  0.08478  0.58476  1.0000
  H   H1050     1.0  0.76211  0.11021  0.60367  1.0000
  H   H1051     1.0  0.92389  0.42514  0.61762  1.0000
  H   H1052     1.0  0.68168  0.17220  0.71673  1.0000
  H   H1053     1.0  0.65473  0.14555  0.72904  1.0000
  H   H1054     1.0  0.57673  0.46119  0.73547  1.0000
  H   H1055     1.0  0.55730  0.16375  0.68259  1.0000
  C   C621      1.0  0.55039  0.41971  0.72339  1.0000
  C   C622      1.0  0.90376  0.39177  0.59659  1.0000
  H   H1056     1.0  0.74495  0.21745  0.70458  1.0000
  S   S172      1.0  0.83222  0.04886  0.51288  1.0000
  H   H1057     1.0  0.95561  0.45876  0.60309  1.0000
  C   C623      1.0  0.78025  0.09337  0.54890  1.0000
  N   N47       1.0  0.78987  0.08444  0.56726  1.0000
  H   H1058     1.0  0.67773  0.17424  0.74385  1.0000
  H   H1059     1.0  0.75018  0.44976  0.65601  1.0000
  H   H1060     1.0  0.91224  0.40037  0.58192  1.0000
  C   C624      1.0  0.54510  0.39288  0.68177  1.0000
  C   C625      1.0  0.95243  0.32639  0.74644  1.0000
  C   C626      1.0  0.74413  0.44380  0.64002  1.0000
  H   H1061     1.0  0.68414  0.13226  0.74699  1.0000
  H   H1062     1.0  0.75694  0.18353  0.71833  1.0000
  H   H1063     1.0  0.53365  0.40124  0.72964  1.0000
  H   H1064     1.0  0.86983  0.26800  0.73609  1.0000
  H   H1065     1.0  0.52768  0.45360  0.72237  1.0000
  C   C627      1.0  0.50474  0.08092  0.69125  1.0000
  H   H1066     1.0  0.79760  0.48225  0.59531  1.0000
  H   H1067     1.0  0.49617  0.07178  0.70580  1.0000
  C   C628      1.0  0.80730  0.48984  0.61042  1.0000
  H   H1068     1.0  0.50970  0.38778  0.69743  1.0000
  H   H1069     1.0  0.99010  0.29186  0.60350  1.0000
  H   H1070     1.0  0.79608  0.49423  0.65364  1.0000
  C   C629      1.0  0.51901  0.43568  0.71187  1.0000
  H   H1071     1.0  0.59147  0.18313  0.69100  1.0000
  C   C630      1.0  0.56219  0.44102  0.74076  1.0000
  H   H1072     1.0  0.88737  0.08238  0.52560  1.0000
  H   H1073     1.0  0.98439  0.38029  0.62288  1.0000
  S   S173      1.0  0.49463  0.07568  0.63655  1.0000
  H   H1074     1.0  0.88596  0.24872  0.72735  1.0000
  H   H1075     1.0  0.78248  0.09739  0.51647  1.0000
  C   C631      1.0  0.97374  0.44897  0.63757  1.0000
  C   C632      1.0  0.85513  0.08347  0.50818  1.0000
  H   H1076     1.0  0.72384  0.12915  0.75266  1.0000
  H   H1077     1.0  0.97036  0.35749  0.60189  1.0000
  H   H1078     1.0  0.70995  0.00147  0.57361  1.0000
  H   H1079     1.0  0.75409  0.22263  0.73072  1.0000
  H   H1080     1.0  0.98782  0.46426  0.62730  1.0000
  H   H1081     1.0  0.98378  0.45374  0.65273  1.0000
  H   H1082     1.0  0.95913  0.41275  0.57982  1.0000
  H   H1083     1.0  0.57301  0.43452  0.75178  1.0000
  H   H1084     1.0  0.54591  0.44264  0.74902  1.0000
  C   C633      1.0  0.80556  0.48255  0.64681  1.0000
  C   C634      1.0  0.88148  0.09482  0.51659  1.0000
  H   H1085     1.0  0.92056  0.13024  0.51991  1.0000
  S   S174      1.0  0.98910  0.21395  0.53019  1.0000
  C   C635      1.0  0.85931  0.23010  0.75275  1.0000
  H   H1086     1.0  0.56536  0.09453  0.75042  1.0000
  Fe  Fe88      1.0  0.78741  0.01920  0.50594  1.0000
  H   H1087     1.0  0.98988  0.39265  0.59731  1.0000
  H   H1088     1.0  0.98796  0.43260  0.59538  1.0000
  H   H1089     1.0  0.83703  0.21756  0.75288  1.0000
  H   H1090     1.0  0.53896  0.46577  0.88239  1.0000
  H   H1091     1.0  0.88704  0.40838  0.77169  1.0000
  C   C636      1.0  0.90066  0.25919  0.77184  1.0000
  H   H1092     1.0  0.74991  0.13164  0.89161  1.0000
  H   H1093     1.0  0.63256  0.43027  0.91998  1.0000
  C   C637      1.0  0.87842  0.05090  0.99269  1.0000
  C   C638      1.0  0.77983  0.12046  0.95609  1.0000
  Fe  Fe89      1.0  0.88064  0.34720  0.85355  1.0000
  S   S175      1.0  0.92352  0.35535  0.85886  1.0000
  S   S176      1.0  0.86008  0.37411  0.85580  1.0000
  Fe  Fe90      1.0  0.86261  0.28841  0.83918  1.0000
  S   S177      1.0  0.90407  0.29217  0.84284  1.0000
  S   S178      1.0  0.82789  0.25185  0.82423  1.0000
  Fe  Fe91      1.0  0.90648  0.31378  0.87252  1.0000
  S   S179      1.0  0.91270  0.29953  0.90359  1.0000
  Fe  Fe92      1.0  0.91757  0.33285  0.82893  1.0000
  S   S180      1.0  0.94756  0.34898  0.80386  1.0000
  S   S181      1.0  0.86372  0.30754  0.86927  1.0000
  S   S182      1.0  0.87608  0.32729  0.82306  1.0000
  Fe  Fe93      1.0  0.67700  0.09267  0.82875  1.0000
  S   S183      1.0  0.67708  0.13241  0.83439  1.0000
  S   S184      1.0  0.69010  0.08149  0.79931  1.0000
  Fe  Fe94      1.0  0.66369  0.07541  0.87242  1.0000
  S   S185      1.0  0.66147  0.11355  0.88098  1.0000
  S   S186      1.0  0.65654  0.04388  0.89634  1.0000
  Fe  Fe95      1.0  0.63901  0.10819  0.85145  1.0000
  S   S187      1.0  0.60681  0.12163  0.84536  1.0000
  Fe  Fe96      1.0  0.69919  0.13450  0.86332  1.0000
  S   S188      1.0  0.73430  0.17054  0.87836  1.0000
  S   S189      1.0  0.63774  0.06801  0.84409  1.0000
  S   S190      1.0  0.70260  0.09675  0.85644  1.0000
  C   C639      1.0  0.67396  0.08051  0.77597  1.0000
  C   C640      1.0  0.65086  0.08407  0.77487  1.0000
  H   H1094     1.0  0.65987  0.42183  0.91830  1.0000
  H   H1095     1.0  0.64242  0.08741  0.78855  1.0000
  C   C641      1.0  0.75781  0.11965  0.90002  1.0000
  H   H1096     1.0  0.57302  0.46824  0.80624  1.0000
  C   C642      1.0  0.51025  0.11475  0.79170  1.0000
  C   C643      1.0  0.98215  0.29817  0.92319  1.0000
  H   H1097     1.0  0.76938  0.09395  0.92979  1.0000
  H   H1098     1.0  0.75503  0.16188  0.91782  1.0000
  C   C644      1.0  0.80243  0.22881  0.83943  1.0000
  C   C645      1.0  0.80472  0.23135  0.86044  1.0000
  C   C646      1.0  0.78361  0.21343  0.87223  1.0000
  C   C647      1.0  0.76036  0.19254  0.86309  1.0000
  C   C648      1.0  0.75826  0.18968  0.84206  1.0000
  C   C649      1.0  0.77922  0.20788  0.83026  1.0000
  H   H1099     1.0  0.82281  0.24705  0.86761  1.0000
  H   H1100     1.0  0.78536  0.21569  0.88849  1.0000
  H   H1101     1.0  0.74040  0.17357  0.83492  1.0000
  H   H1102     1.0  0.77739  0.20577  0.81401  1.0000
  C   C650      1.0  0.93707  0.29368  0.91750  1.0000
  C   C651      1.0  0.96347  0.30241  0.91113  1.0000
  H   H1103     1.0  0.53032  0.08344  0.81382  1.0000
  C   C652      1.0  0.97470  0.28487  0.94166  1.0000
  C   C653      1.0  0.94820  0.27573  0.94784  1.0000
  C   C654      1.0  0.92964  0.28028  0.93592  1.0000
  H   H1104     1.0  0.89162  0.21240  0.79034  1.0000
  N   N48       1.0  0.65669  0.46300  0.88096  1.0000
  C   C655      1.0  0.52954  0.47482  0.81547  1.0000
  S   S191      1.0  0.51478  0.38684  0.83612  1.0000
  C   C656      1.0  0.91300  0.44119  0.80485  1.0000
  H   H1105     1.0  0.96773  0.43150  0.81300  1.0000
  C   C657      1.0  0.71716  0.02558  0.93264  1.0000
  C   C658      1.0  0.72410  0.03810  0.91388  1.0000
  C   C659      1.0  0.70611  0.04443  0.90288  1.0000
  C   C660      1.0  0.68071  0.03808  0.91036  1.0000
  H   H1106     1.0  0.63526  0.43808  0.83140  1.0000
  H   H1107     1.0  0.69586  0.15383  0.77647  1.0000
  H   H1108     1.0  0.74350  0.04272  0.90776  1.0000
  H   H1109     1.0  0.71174  0.05379  0.88846  1.0000
  H   H1110     1.0  0.96962  0.31285  0.89710  1.0000
  C   C661      1.0  0.51651  0.08473  0.85936  1.0000
  C   C662      1.0  0.53065  0.06990  0.86291  1.0000
  C   C663      1.0  0.55840  0.08096  0.85904  1.0000
  C   C664      1.0  0.57222  0.10697  0.85145  1.0000
  C   C665      1.0  0.55803  0.12177  0.84795  1.0000
  C   C666      1.0  0.53038  0.11082  0.85198  1.0000
  H   H1111     1.0  0.52010  0.04970  0.86862  1.0000
  H   H1112     1.0  0.56904  0.06934  0.86178  1.0000
  H   H1113     1.0  0.56855  0.14192  0.84213  1.0000
  H   H1114     1.0  0.51983  0.12254  0.84927  1.0000
  C   C667      1.0  0.90092  0.46733  0.85822  1.0000
  C   C668      1.0  0.87326  0.45218  0.85411  1.0000
  C   C669      1.0  0.86109  0.42368  0.85349  1.0000
  C   C670      1.0  0.87642  0.41001  0.85682  1.0000
  C   C671      1.0  0.90409  0.42514  0.86089  1.0000
  C   C672      1.0  0.91625  0.45364  0.86157  1.0000
  H   H1115     1.0  0.86122  0.46244  0.85150  1.0000
  H   H1116     1.0  0.83966  0.41219  0.85039  1.0000
  H   H1117     1.0  0.91605  0.41488  0.86377  1.0000
  H   H1118     1.0  0.93765  0.46516  0.86480  1.0000
  C   C673      1.0  0.57158  0.47148  0.86296  1.0000
  C   C674      1.0  0.57981  0.45972  0.84760  1.0000
  C   C675      1.0  0.56219  0.43369  0.83983  1.0000
  C   C676      1.0  0.53603  0.41917  0.84712  1.0000
  C   C677      1.0  0.52771  0.43087  0.86250  1.0000
  C   C678      1.0  0.54552  0.45686  0.87047  1.0000
  H   H1119     1.0  0.59975  0.47069  0.84166  1.0000
  H   H1120     1.0  0.56879  0.42476  0.82796  1.0000
  N   N49       1.0  0.78552  0.30651  0.86071  1.0000
  C   C679      1.0  0.80087  0.29788  0.84628  1.0000
  C   C680      1.0  0.80059  0.31311  0.88079  1.0000
  C   C681      1.0  0.78502  0.33130  0.85226  1.0000
  C   C682      1.0  0.75740  0.28354  0.86199  1.0000
  C   C683      1.0  0.78960  0.29119  0.82436  1.0000
  C   C684      1.0  0.79972  0.28884  0.89217  1.0000
  C   C685      1.0  0.78264  0.35143  0.86731  1.0000
  C   C686      1.0  0.73888  0.28730  0.87729  1.0000
  H   H1121     1.0  0.82216  0.31394  0.84553  1.0000
  H   H1122     1.0  0.80185  0.27958  0.85145  1.0000
  H   H1123     1.0  0.79303  0.32319  0.89159  1.0000
  H   H1124     1.0  0.82213  0.32802  0.87890  1.0000
  H   H1125     1.0  0.80376  0.34370  0.84394  1.0000
  H   H1126     1.0  0.76829  0.32538  0.84089  1.0000
  H   H1127     1.0  0.74651  0.27973  0.84719  1.0000
  H   H1128     1.0  0.75755  0.26397  0.86481  1.0000
  H   H1129     1.0  0.80418  0.28801  0.81496  1.0000
  H   H1130     1.0  0.77044  0.27205  0.82331  1.0000
  H   H1131     1.0  0.78697  0.30780  0.81754  1.0000
  H   H1132     1.0  0.77902  0.27468  0.89670  1.0000
  H   H1133     1.0  0.80814  0.27758  0.88351  1.0000
  H   H1134     1.0  0.81227  0.29649  0.90622  1.0000
  H   H1135     1.0  0.77950  0.36672  0.85877  1.0000
  H   H1136     1.0  0.80170  0.36279  0.87627  1.0000
  H   H1137     1.0  0.76551  0.34165  0.87747  1.0000
  H   H1138     1.0  0.72855  0.29816  0.87050  1.0000
  H   H1139     1.0  0.74945  0.29789  0.89144  1.0000
  H   H1140     1.0  0.72343  0.26709  0.88199  1.0000
  C   C687      1.0  0.63558  0.00659  0.80746  1.0000
  C   C688      1.0  0.52220  0.06244  0.80773  1.0000
  H   H1141     1.0  0.63252  0.41630  0.85154  1.0000
  C   C689      1.0  0.84747  0.09510  0.00003  1.0000
  C   C690      1.0  0.65138  0.43671  0.89041  1.0000
  C   C691      1.0  0.95135  0.41766  0.82252  1.0000
  H   H1142     1.0  0.78996  0.10832  0.89446  1.0000
  C   C692      1.0  0.83103  0.25763  0.77130  1.0000
  H   H1143     1.0  0.67567  0.45676  0.85430  1.0000
  H   H1144     1.0  0.53186  0.47612  0.76502  1.0000
  H   H1145     1.0  0.90967  0.28837  0.79728  1.0000
  H   H1146     1.0  0.86614  0.23709  0.80436  1.0000
  H   H1147     1.0  0.49721  0.03633  0.78328  1.0000
  H   H1148     1.0  0.61808  0.00758  0.81428  1.0000
  C   C693      1.0  0.93848  0.42925  0.77988  1.0000
  H   H1149     1.0  0.63087  0.42057  0.88596  1.0000
  C   C694      1.0  0.71145  0.02985  0.84285  1.0000
  H   H1150     1.0  0.52272  0.12919  0.80396  1.0000
  H   H1151     1.0  0.96216  0.41880  0.75916  1.0000
  H   H1152     1.0  0.79777  0.12565  0.92729  1.0000
  H   H1153     1.0  0.70233  0.07306  0.75880  1.0000
  H   H1154     1.0  0.90858  0.39766  0.82394  1.0000
  H   H1155     1.0  0.50196  0.12537  0.78211  1.0000
  H   H1156     1.0  0.95060  0.42870  0.83637  1.0000
  H   H1157     1.0  0.66497  0.42888  0.88436  1.0000
  S   S192      1.0  0.78097  0.00265  0.98638  1.0000
  H   H1158     1.0  0.90936  0.27346  0.94108  1.0000
  H   H1159     1.0  0.71243  0.47631  0.87213  1.0000
  H   H1160     1.0  0.81771  0.23933  0.77954  1.0000
  H   H1161     1.0  0.94207  0.26553  0.96197  1.0000
  H   H1162     1.0  0.68210  0.03658  0.85913  1.0000
  H   H1163     1.0  0.51620  0.48417  0.81871  1.0000
  H   H1164     1.0  0.90791  0.27503  0.76027  1.0000
  H   H1165     1.0  0.87270  0.28472  0.76667  1.0000
  C   C695      1.0  0.50386  0.05748  0.78889  1.0000
  C   C696      1.0  0.70832  0.11252  0.91905  1.0000
  H   H1166     1.0  0.93239  0.43919  0.76787  1.0000
  H   H1167     1.0  0.63301  0.48331  0.87295  1.0000
  C   C697      1.0  0.56721  0.47859  0.79442  1.0000
  H   H1168     1.0  0.80097  0.14424  0.89277  1.0000
  H   H1169     1.0  0.78036  0.12140  0.87328  1.0000
  C   C698      1.0  0.78402  0.12388  0.88987  1.0000
  H   H1170     1.0  0.63385  0.01430  0.85547  1.0000
  C   C699      1.0  0.86115  0.26672  0.77577  1.0000
  H   H1171     1.0  0.61436  0.48397  0.90643  1.0000
  C   C700      1.0  0.69189  0.01953  0.94026  1.0000
  H   H1172     1.0  0.97670  0.33773  0.77378  1.0000
  H   H1173     1.0  0.66734  0.45603  0.92073  1.0000
  H   H1174     1.0  0.79815  0.18142  0.90529  1.0000
  H   H1175     1.0  0.80387  0.19407  0.93099  1.0000
  N   N50       1.0  0.75918  0.12573  0.92242  1.0000
  H   H1176     1.0  0.63634  0.47329  0.91820  1.0000
  H   H1177     1.0  0.84810  0.37374  0.78842  1.0000
  C   C701      1.0  0.68329  0.48622  0.88796  1.0000
  H   H1178     1.0  0.53982  0.05951  0.80356  1.0000
  H   H1179     1.0  0.93204  0.48155  0.81862  1.0000
  H   H1180     1.0  0.83188  0.08196  0.98938  1.0000
  H   H1181     1.0  0.72757  0.15311  0.78078  1.0000
  H   H1182     1.0  0.86544  0.27473  0.79161  1.0000
  H   H1183     1.0  0.71373  0.01400  0.83407  1.0000
  H   H1184     1.0  0.88461  0.07268  0.99565  1.0000
  H   H1185     1.0  0.75081  0.19374  0.75897  1.0000
  C   C702      1.0  0.67372  0.02550  0.92908  1.0000
  C   C703      1.0  0.66041  0.01856  0.82193  1.0000
  H   H1186     1.0  0.50765  0.41988  0.86830  1.0000
  H   H1187     1.0  0.68905  0.10053  0.92677  1.0000
  H   H1188     1.0  0.83777  0.03270  0.00307  1.0000
  N   N51       1.0  0.87034  0.24550  0.77242  1.0000
  H   H1189     1.0  0.74331  0.09815  0.89660  1.0000
  H   H1190     1.0  0.51713  0.07016  0.77704  1.0000
  C   C704      1.0  0.70791  0.48076  0.88751  1.0000
  C   C705      1.0  0.93830  0.46803  0.81024  1.0000
  H   H1191     1.0  0.53600  0.47092  0.83046  1.0000
  H   H1192     1.0  0.66111  0.47855  0.85080  1.0000
  H   H1193     1.0  0.72010  0.19514  0.75548  1.0000
  C   C706      1.0  0.79710  0.17554  0.92128  1.0000
  H   H1194     1.0  0.76057  0.10807  0.96361  1.0000
  C   C707      1.0  0.76802  0.15536  0.92653  1.0000
  H   H1195     1.0  0.59946  0.48189  0.77498  1.0000
  H   H1196     1.0  0.81198  0.16822  0.92438  1.0000
  C   C708      1.0  0.63378  0.46963  0.88468  1.0000
  C   C709      1.0  0.87042  0.11793  0.99320  1.0000
  H   H1197     1.0  0.76471  0.15947  0.94244  1.0000
  C   C710      1.0  0.77700  0.11603  0.93299  1.0000
  C   C711      1.0  0.86567  0.38791  0.79792  1.0000
  C   C712      1.0  0.86941  0.20394  0.78979  1.0000
  H   H1198     1.0  0.65405  0.02022  0.93498  1.0000
  H   H1199     1.0  0.95756  0.40223  0.82699  1.0000
  C   C713      1.0  0.73118  0.10995  0.93053  1.0000
  C   C714      1.0  0.52792  0.49262  0.77065  1.0000
  H   H1200     1.0  0.72528  0.08797  0.93082  1.0000
  H   H1201     1.0  0.93756  0.28389  0.78919  1.0000
  H   H1202     1.0  0.90125  0.43462  0.81883  1.0000
  C   C715      1.0  0.51161  0.44644  0.80597  1.0000
  H   H1203     1.0  0.82632  0.27402  0.77636  1.0000
  H   H1204     1.0  0.86189  0.19215  0.80366  1.0000
  H   H1205     1.0  0.51186  0.04802  0.81977  1.0000
  Fe  Fe97      1.0  0.74158  0.00231  0.97734  1.0000
  H   H1206     1.0  0.70528  0.10399  0.90346  1.0000
  H   H1207     1.0  0.90102  0.33928  0.77719  1.0000
  C   C716      1.0  0.95807  0.33505  0.76671  1.0000
  H   H1208     1.0  0.68515  0.00816  0.86654  1.0000
  S   S193      1.0  0.91980  0.16378  0.99690  1.0000
  C   C717      1.0  0.71810  0.16601  0.77672  1.0000
  H   H1209     1.0  0.83784  0.21537  0.78937  1.0000
  H   H1210     1.0  0.87219  0.12209  0.97728  1.0000
  H   H1211     1.0  0.71156  0.13365  0.91873  1.0000
  C   C718      1.0  0.65277  0.43652  0.91363  1.0000
  N   N52       1.0  0.91721  0.41848  0.79568  1.0000
  H   H1212     1.0  0.66323  0.03872  0.82727  1.0000
  H   H1213     1.0  0.90068  0.44675  0.79442  1.0000
  H   H1214     1.0  0.86710  0.37630  0.81081  1.0000
  H   H1215     1.0  0.73039  0.11610  0.94645  1.0000
  C   C719      1.0  0.93941  0.33915  0.77808  1.0000
  H   H1216     1.0  0.52216  0.43381  0.80601  1.0000
  H   H1217     1.0  0.78786  0.14209  0.96059  1.0000
  H   H1218     1.0  0.86965  0.04587  0.97713  1.0000
  H   H1219     1.0  0.55337  0.46202  0.78410  1.0000
  H   H1220     1.0  0.95291  0.46545  0.82009  1.0000
  H   H1221     1.0  0.74476  0.49513  0.83169  1.0000
  H   H1222     1.0  0.52438  0.11052  0.78279  1.0000
  H   H1223     1.0  0.94829  0.47889  0.79651  1.0000
  H   H1224     1.0  0.72337  0.18128  0.78922  1.0000
  C   C720      1.0  0.86023  0.22607  0.78949  1.0000
  H   H1225     1.0  0.86074  0.18939  0.77686  1.0000
  S   S194      1.0  0.74056  0.01742  0.94544  1.0000
  C   C721      1.0  0.65809  0.45975  0.85841  1.0000
  H   H1226     1.0  0.79442  0.11376  0.96190  1.0000
  C   C722      1.0  0.89117  0.39890  0.78505  1.0000
  C   C723      1.0  0.63396  0.48368  0.90496  1.0000
  H   H1227     1.0  0.64037  0.01910  0.79381  1.0000
  H   H1228     1.0  0.90817  0.24480  0.76689  1.0000
  H   H1229     1.0  0.86103  0.40413  0.80345  1.0000
  H   H1230     1.0  0.49365  0.43579  0.81540  1.0000
  S   S195      1.0  0.98932  0.21384  0.97998  1.0000
  C   C724      1.0  0.91556  0.27307  0.79177  1.0000
  C   C725      1.0  0.92347  0.40329  0.81175  1.0000
  H   H1231     1.0  0.92071  0.38335  0.80583  1.0000
  H   H1232     1.0  0.61416  0.43573  0.85193  1.0000
  H   H1233     1.0  0.72772  0.03807  0.85467  1.0000
  H   H1234     1.0  0.89245  0.38079  0.77907  1.0000
  H   H1235     1.0  0.61397  0.45109  0.88335  1.0000
  C   C726      1.0  0.91548  0.33593  0.76859  1.0000
  H   H1236     1.0  0.95786  0.44545  0.78601  1.0000
  C   C727      1.0  0.94519  0.40824  0.76947  1.0000
  C   C728      1.0  0.63340  0.43604  0.84800  1.0000
  H   H1237     1.0  0.91240  0.25837  0.80372  1.0000
  C   C729      1.0  0.68461  0.07607  0.75807  1.0000
  H   H1238     1.0  0.89682  0.04826  0.99344  1.0000
  H   H1239     1.0  0.67800  0.02282  0.81235  1.0000
  H   H1240     1.0  0.82613  0.25414  0.75491  1.0000
  C   C730      1.0  0.68390  0.01881  0.85299  1.0000
  H   H1241     1.0  0.95186  0.39769  0.78044  1.0000
  N   N53       1.0  0.55380  0.49387  0.80390  1.0000
  H   H1242     1.0  0.71473  0.04687  0.83294  1.0000
  H   H1243     1.0  0.70569  0.46430  0.89759  1.0000
  N   N54       1.0  0.65972  0.00159  0.83961  1.0000
  C   C731      1.0  0.63856  0.08315  0.75602  1.0000
  H   H1244     1.0  0.50563  0.06422  0.91444  1.0000
  H   H1245     1.0  0.50632  0.48434  0.77440  1.0000
  H   H1246     1.0  0.92813  0.39329  0.76000  1.0000
  H   H1247     1.0  0.86520  0.00212  0.98026  1.0000
  H   H1248     1.0  0.68611  0.00976  0.95458  1.0000
  H   H1249     1.0  0.62069  0.08590  0.75529  1.0000
  H   H1250     1.0  0.50419  0.44695  0.79058  1.0000
  C   C732      1.0  0.72865  0.18085  0.75680  1.0000
  H   H1251     1.0  0.68275  0.49304  0.90364  1.0000
  C   C733      1.0  0.59264  0.49555  0.78241  1.0000
  H   H1252     1.0  0.60072  0.75029  0.06472  1.0000
  H   H1253     1.0  0.85242  0.71486  0.02598  1.0000
  S   S196      1.0  0.76835  0.77314  0.02487  1.0000
  C   C734      1.0  0.60910  0.74308  0.07715  1.0000
  S   S197      1.0  0.75704  0.98747  0.03150  1.0000
  S   S198      1.0  0.68077  0.97719  0.03742  1.0000
  Fe  Fe98      1.0  0.72805  0.73673  0.03001  1.0000
  S   S199      1.0  0.71227  0.73207  0.06237  1.0000
  Fe  Fe99      1.0  0.53756  0.89863  0.14676  1.0000
  S   S200      1.0  0.57771  0.92319  0.16310  1.0000
  H   H1254     1.0  0.70578  0.96477  0.07242  1.0000
  Fe  Fe100     1.0  0.54901  0.85127  0.13873  1.0000
  S   S201      1.0  0.58942  0.87214  0.15426  1.0000
  S   S202      1.0  0.53277  0.80897  0.12513  1.0000
  Fe  Fe101     1.0  0.56852  0.88410  0.17812  1.0000
  S   S203      1.0  0.57390  0.87304  0.21012  1.0000
  Fe  Fe102     1.0  0.59527  0.90921  0.13763  1.0000
  S   S204      1.0  0.63788  0.93401  0.12545  1.0000
  S   S205      1.0  0.52754  0.86075  0.16343  1.0000
  S   S206      1.0  0.55580  0.88733  0.12040  1.0000
  Fe  Fe103     1.0  0.57389  0.64959  0.18077  1.0000
  S   S207      1.0  0.53764  0.65579  0.18471  1.0000
  S   S208      1.0  0.59150  0.63640  0.20682  1.0000
  Fe  Fe104     1.0  0.57865  0.66346  0.13563  1.0000
  S   S209      1.0  0.54177  0.67009  0.13679  1.0000
  S   S210      1.0  0.59753  0.66821  0.10424  1.0000
  Fe  Fe105     1.0  0.55950  0.69245  0.16604  1.0000
  S   S211      1.0  0.56372  0.73280  0.17743  1.0000
  Fe  Fe106     1.0  0.52275  0.63246  0.15523  1.0000
  S   S212      1.0  0.74107  0.70824  0.01533  1.0000
  S   S213      1.0  0.59739  0.68812  0.16411  1.0000
  S   S214      1.0  0.55806  0.62397  0.15210  1.0000
  Fe  Fe107     1.0  0.71897  0.98657  0.01971  1.0000
  H   H1255     1.0  0.96163  0.68697  0.04925  1.0000
  H   H1256     1.0  0.66627  0.89921  0.16299  1.0000
  C   C735      1.0  0.57730  0.87652  0.25123  1.0000
  H   H1257     1.0  0.62911  0.95896  0.05542  1.0000
  C   C736      1.0  0.59538  0.64792  0.23232  1.0000
  H   H1258     1.0  0.69560  0.96340  0.19976  1.0000
  C   C737      1.0  0.64075  0.96531  0.19885  1.0000
  H   H1259     1.0  0.63801  0.66107  0.23232  1.0000
  C   C738      1.0  0.58084  0.70809  0.22663  1.0000
  C   C739      1.0  0.57523  0.88912  0.23366  1.0000
  H   H1260     1.0  0.63514  0.96560  0.18276  1.0000
  H   H1261     1.0  0.62260  0.73749  0.21947  1.0000
  H   H1262     1.0  0.68142  0.92986  0.14974  1.0000
  H   H1263     1.0  0.62792  0.97149  0.20793  1.0000
  C   C740      1.0  0.64874  0.94395  0.10035  1.0000
  C   C741      1.0  0.67550  0.95084  0.09541  1.0000
  C   C742      1.0  0.68538  0.96009  0.07606  1.0000
  C   C743      1.0  0.66886  0.96337  0.06153  1.0000
  C   C744      1.0  0.64213  0.95652  0.06649  1.0000
  C   C745      1.0  0.63203  0.94660  0.08564  1.0000
  H   H1264     1.0  0.68864  0.94884  0.10659  1.0000
  S   S215      1.0  0.76900  0.93163  0.00994  1.0000
  H   H1265     1.0  0.63251  0.93516  0.22117  1.0000
  H   H1266     1.0  0.61150  0.94163  0.08916  1.0000
  C   C746      1.0  0.54045  0.78726  0.13985  1.0000
  C   C747      1.0  0.55406  0.79627  0.15846  1.0000
  C   C748      1.0  0.56085  0.77924  0.16981  1.0000
  C   C749      1.0  0.55389  0.75295  0.16279  1.0000
  C   C750      1.0  0.53962  0.74356  0.14443  1.0000
  C   C751      1.0  0.53305  0.76075  0.13291  1.0000
  H   H1267     1.0  0.55922  0.81631  0.16426  1.0000
  H   H1268     1.0  0.57154  0.78653  0.18413  1.0000
  H   H1269     1.0  0.53331  0.72297  0.13929  1.0000
  H   H1270     1.0  0.52209  0.75345  0.11871  1.0000
  H   H1271     1.0  0.69640  0.92805  0.17326  1.0000
  H   H1272     1.0  0.94852  0.66318  0.06932  1.0000
  H   H1273     1.0  0.62903  0.80198  0.08370  1.0000
  C   C752      1.0  0.62103  0.65822  0.24137  1.0000
  H   H1274     1.0  0.62970  0.89765  0.23233  1.0000
  C   C753      1.0  0.61101  0.71633  0.22424  1.0000
  H   H1275     1.0  0.57039  0.68603  0.22932  1.0000
  C   C754      1.0  0.68006  0.71415  0.07361  1.0000
  C   C755      1.0  0.65657  0.69772  0.06235  1.0000
  C   C756      1.0  0.63167  0.68384  0.07203  1.0000
  C   C757      1.0  0.62977  0.68604  0.09307  1.0000
  C   C758      1.0  0.65325  0.70254  0.10433  1.0000
  C   C759      1.0  0.67813  0.71651  0.09465  1.0000
  H   H1276     1.0  0.65755  0.69558  0.04620  1.0000
  H   H1277     1.0  0.61371  0.67113  0.06312  1.0000
  H   H1278     1.0  0.65224  0.70452  0.12050  1.0000
  H   H1279     1.0  0.69601  0.72930  0.10358  1.0000
  H   H1280     1.0  0.94666  0.59789  0.03556  1.0000
  C   C760      1.0  0.86343  0.73244  0.01701  1.0000
  H   H1281     1.0  0.66205  0.98055  0.20152  1.0000
  H   H1282     1.0  0.52949  0.69676  0.21298  1.0000
  C   C761      1.0  0.94533  0.66712  0.05345  1.0000
  H   H1283     1.0  0.77229  0.84548  0.01786  1.0000
  N   N55       1.0  0.77591  0.71244  0.07786  1.0000
  C   C762      1.0  0.78737  0.70441  0.06003  1.0000
  C   C763      1.0  0.77761  0.73956  0.07333  1.0000
  C   C764      1.0  0.74665  0.69182  0.07915  1.0000
  C   C765      1.0  0.79172  0.71300  0.09664  1.0000
  C   C766      1.0  0.78592  0.67612  0.06034  1.0000
  C   C767      1.0  0.80621  0.76280  0.07035  1.0000
  C   C768      1.0  0.73112  0.69515  0.09702  1.0000
  C   C769      1.0  0.79118  0.73057  0.11482  1.0000
  H   H1284     1.0  0.77716  0.70529  0.04576  1.0000
  H   H1285     1.0  0.80906  0.71887  0.05838  1.0000
  H   H1286     1.0  0.76811  0.74656  0.08494  1.0000
  H   H1287     1.0  0.76574  0.73792  0.05931  1.0000
  H   H1288     1.0  0.73538  0.69147  0.06504  1.0000
  H   H1289     1.0  0.74438  0.67109  0.08052  1.0000
  H   H1290     1.0  0.78484  0.69208  0.10200  1.0000
  H   H1291     1.0  0.81340  0.72070  0.09310  1.0000
  H   H1292     1.0  0.79395  0.67245  0.07465  1.0000
  H   H1293     1.0  0.76513  0.65986  0.05714  1.0000
  H   H1294     1.0  0.79844  0.67460  0.04804  1.0000
  H   H1295     1.0  0.81392  0.76095  0.05539  1.0000
  H   H1296     1.0  0.80539  0.78231  0.07056  1.0000
  H   H1297     1.0  0.82075  0.76408  0.08231  1.0000
  H   H1298     1.0  0.73822  0.69082  0.11151  1.0000
  H   H1299     1.0  0.70949  0.68020  0.09504  1.0000
  H   H1300     1.0  0.73181  0.71525  0.09784  1.0000
  H   H1301     1.0  0.78977  0.71965  0.12894  1.0000
  H   H1302     1.0  0.77426  0.73551  0.11479  1.0000
  H   H1303     1.0  0.81045  0.74960  0.11628  1.0000
  N   N56       1.0  0.59825  0.74622  0.09727  1.0000
  C   C770      1.0  0.57155  0.72145  0.09989  1.0000
  C   C771      1.0  0.61692  0.74718  0.11424  1.0000
  C   C772      1.0  0.55000  0.71523  0.08306  1.0000
  C   C773      1.0  0.60800  0.74938  0.13576  1.0000
  H   H1304     1.0  0.57446  0.70314  0.10123  1.0000
  H   H1305     1.0  0.56205  0.72305  0.11402  1.0000
  H   H1306     1.0  0.63735  0.76442  0.11295  1.0000
  H   H1307     1.0  0.61978  0.72871  0.11350  1.0000
  H   H1308     1.0  0.60254  0.72128  0.07344  1.0000
  H   H1309     1.0  0.55695  0.71273  0.06799  1.0000
  H   H1310     1.0  0.53214  0.69575  0.08628  1.0000
  H   H1311     1.0  0.54292  0.73077  0.08272  1.0000
  H   H1312     1.0  0.58981  0.73080  0.13976  1.0000
  H   H1313     1.0  0.62412  0.75154  0.14670  1.0000
  H   H1314     1.0  0.60463  0.76727  0.13811  1.0000
  H   H1315     1.0  0.64901  0.74625  0.08399  1.0000
  C   C774      1.0  0.65884  0.93188  0.17556  1.0000
  H   H1316     1.0  0.50370  0.85428  0.07901  1.0000
  H   H1317     1.0  0.69511  0.93335  0.20823  1.0000
  H   H1318     1.0  0.81099  0.98940  0.05205  1.0000
  C   C775      1.0  0.61820  0.79844  0.09802  1.0000
  C   C776      1.0  0.96550  0.62156  0.07173  1.0000
  H   H1319     1.0  0.94359  0.61464  0.07022  1.0000
  H   H1320     1.0  0.57718  0.85711  0.25008  1.0000
  C   C777      1.0  0.94308  0.64431  0.03888  1.0000
  H   H1321     1.0  0.55335  0.63494  0.23767  1.0000
  H   H1322     1.0  0.57409  0.92426  0.22191  1.0000
  S   S216      1.0  0.81533  0.73489  0.01483  1.0000
  C   C778      1.0  0.68329  0.94481  0.20828  1.0000
  H   H1323     1.0  0.92612  0.62515  0.04387  1.0000
  H   H1324     1.0  0.93593  0.64810  0.02410  1.0000
  C   C779      1.0  0.58463  0.75217  0.23610  1.0000
  H   H1325     1.0  0.64480  0.75502  0.05906  1.0000
  C   C780      1.0  0.64001  0.75676  0.07504  1.0000
  S   S217      1.0  0.50826  0.91603  0.14225  1.0000
  C   C781      1.0  0.67690  0.92155  0.16511  1.0000
  H   H1326     1.0  0.63203  0.80154  0.11103  1.0000
  S   S218      1.0  0.96306  0.71683  0.01180  1.0000
  C   C782      1.0  0.68360  0.95468  0.23026  1.0000
  H   H1327     1.0  0.62033  0.71305  0.23807  1.0000
  H   H1328     1.0  0.65948  0.89102  0.19583  1.0000
  H   H1329     1.0  0.92625  0.66861  0.05270  1.0000
  H   H1330     1.0  0.58061  0.77013  0.08459  1.0000
  H   H1331     1.0  0.62607  0.88642  0.19336  1.0000
  C   C783      1.0  0.89075  0.74044  0.01286  1.0000
  N   N57       1.0  0.96849  0.64161  0.03643  1.0000
  H   H1332     1.0  0.61151  0.81427  0.09950  1.0000
  C   C784      1.0  0.49538  0.88637  0.08968  1.0000
  C   C785      1.0  0.76552  0.85662  0.00819  1.0000
  H   H1333     1.0  0.67127  0.93830  0.24042  1.0000
  H   H1334     1.0  0.57339  0.71023  0.21155  1.0000
  H   H1335     1.0  0.58140  0.77017  0.11125  1.0000
  H   H1336     1.0  0.65017  0.77842  0.07948  1.0000
  C   C786      1.0  0.57560  0.91432  0.23534  1.0000
  H   H1337     1.0  0.61291  0.70329  0.21215  1.0000
  C   C787      1.0  0.96125  0.61462  0.02639  1.0000
  C   C788      1.0  0.52748  0.70896  0.22558  1.0000
  C   C789      1.0  0.59322  0.77054  0.09781  1.0000
  H   H1338     1.0  0.81149  0.98877  0.01630  1.0000
  H   H1339     1.0  0.50576  0.69937  0.22917  1.0000
  H   H1340     1.0  0.66734  0.95361  0.17182  1.0000
  C   C790      1.0  0.64150  0.88979  0.22381  1.0000
  C   C791      1.0  0.64560  0.89846  0.20172  1.0000
  H   H1341     1.0  0.53295  0.72963  0.22049  1.0000
  H   H1342     1.0  0.66107  0.89549  0.23168  1.0000
  C   C792      1.0  0.83001  0.99016  0.02378  1.0000
  N   N58       1.0  0.65606  0.92821  0.19805  1.0000
  C   C793      1.0  0.63531  0.93661  0.20465  1.0000
  H   H1343     1.0  0.97142  0.63032  0.08729  1.0000
  H   H1344     1.0  0.63869  0.92171  0.16779  1.0000
  C   C794      1.0  0.98221  0.64321  0.05648  1.0000
  H   H1345     1.0  0.50139  0.83652  0.11091  1.0000
  H   H1346     1.0  0.61519  0.92253  0.19796  1.0000
  H   H1347     1.0  0.98983  0.66355  0.06392  1.0000
  H   H1348     1.0  0.57867  0.75310  0.22016  1.0000
  H   H1349     1.0  0.78000  0.89153  0.02848  1.0000
  H   H1350     1.0  0.90052  0.72915  0.01871  1.0000
  H   H1351     1.0  0.57757  0.78717  0.23950  1.0000
  N   N59       1.0  0.57409  0.72340  0.24268  1.0000
  H   H1352     1.0  0.96918  0.60370  0.07022  1.0000
  H   H1353     1.0  0.70461  0.96407  0.23643  1.0000
  C   C795      1.0  0.57339  0.64358  0.24443  1.0000
  C   C796      1.0  0.98757  0.66457  0.02388  1.0000
  H   H1354     1.0  0.49684  0.56306  0.15046  1.0000
  H   H1355     1.0  0.62990  0.86738  0.22405  1.0000
  H   H1356     1.0  0.67690  0.97048  0.23117  1.0000
  C   C797      1.0  0.57761  0.77109  0.24911  1.0000
  C   C798      1.0  0.76991  0.88285  0.01417  1.0000
  H   H1357     1.0  0.82624  0.96892  0.02548  1.0000
  H   H1358     1.0  0.97701  0.66714  0.01046  1.0000
  C   C799      1.0  0.54387  0.70922  0.24456  1.0000
  H   H1359     1.0  0.97916  0.61102  0.02559  1.0000
  H   H1360     1.0  0.87386  0.98670  0.02791  1.0000
  Fe  Fe108     1.0  0.78018  0.74462  0.00814  1.0000
  H   H1361     1.0  0.50817  0.89096  0.10349  1.0000
  H   H1362     1.0  0.60700  0.76227  0.23575  1.0000
  H   H1363     1.0  0.50818  0.90049  0.07817  1.0000
  C   C800      1.0  0.85023  0.74681  0.00960  1.0000
  C   C801      1.0  0.94834  0.61024  0.00503  1.0000
  H   H1364     1.0  0.92864  0.61044  0.00519  1.0000
  H   H1365     1.0  0.53689  0.68779  0.24876  1.0000
  H   H1366     1.0  0.81533  0.82292  0.49016  1.0000
  Fe  Fe109     1.0  0.73871  0.72762  0.47613  1.0000
  S   S219      1.0  0.72056  0.70697  0.44550  1.0000
  C   C802      1.0  0.88136  0.73768  0.47696  1.0000
  C   C803      1.0  0.59687  0.59183  0.27009  1.0000
  S   S220      1.0  0.77764  0.76652  0.47818  1.0000
  C   C804      1.0  0.56650  0.55060  0.32731  1.0000
  H   H1367     1.0  0.59800  0.57495  0.29818  1.0000
  H   H1368     1.0  0.61074  0.63845  0.47836  1.0000
  S   S221      1.0  0.93278  0.74255  0.47869  1.0000
  Fe  Fe110     1.0  0.57935  0.90612  0.32410  1.0000
  S   S222      1.0  0.55031  0.86193  0.32216  1.0000
  S   S223      1.0  0.58467  0.93060  0.29594  1.0000
  Fe  Fe111     1.0  0.58986  0.90514  0.37007  1.0000
  S   S224      1.0  0.56087  0.86062  0.37069  1.0000
  S   S225      1.0  0.60565  0.92514  0.40136  1.0000
  Fe  Fe112     1.0  0.58028  0.85721  0.34221  1.0000
  S   S226      1.0  0.59622  0.82744  0.33568  1.0000
  Fe  Fe113     1.0  0.53364  0.86994  0.35059  1.0000
  N   N60       1.0  0.59519  0.75967  0.39581  1.0000
  S   S227      1.0  0.61095  0.90125  0.34248  1.0000
  S   S228      1.0  0.56098  0.91452  0.35166  1.0000
  Fe  Fe114     1.0  0.53627  0.61775  0.35121  1.0000
  S   S229      1.0  0.58109  0.63127  0.35260  1.0000
  H   H1369     1.0  0.65215  0.87807  0.48553  1.0000
  Fe  Fe115     1.0  0.54559  0.67587  0.34771  1.0000
  S   S230      1.0  0.59055  0.69329  0.34871  1.0000
  S   S231      1.0  0.52435  0.70181  0.34612  1.0000
  Fe  Fe116     1.0  0.58289  0.65849  0.32733  1.0000
  S   S232      1.0  0.60997  0.66498  0.30070  1.0000
  Fe  Fe117     1.0  0.58486  0.66480  0.37392  1.0000
  S   S233      1.0  0.60595  0.68010  0.40501  1.0000
  S   S234      1.0  0.53831  0.64301  0.32459  1.0000
  S   S235      1.0  0.53976  0.64933  0.37421  1.0000
  H   H1370     1.0  0.50890  0.59223  0.28536  1.0000
  C   C805      1.0  0.57478  0.79242  0.33624  1.0000
  C   C806      1.0  0.54787  0.78200  0.34174  1.0000
  C   C807      1.0  0.53214  0.75395  0.34392  1.0000
  C   C808      1.0  0.54332  0.73632  0.34077  1.0000
  C   C809      1.0  0.56990  0.74672  0.33451  1.0000
  C   C810      1.0  0.58555  0.77467  0.33223  1.0000
  H   H1371     1.0  0.53939  0.79556  0.34479  1.0000
  H   H1372     1.0  0.51153  0.74598  0.34866  1.0000
  H   H1373     1.0  0.57854  0.73332  0.33171  1.0000
  H   H1374     1.0  0.60630  0.78265  0.32783  1.0000
  C   C811      1.0  0.68995  0.96204  0.43296  1.0000
  C   C812      1.0  0.68680  0.95415  0.41240  1.0000
  C   C813      1.0  0.66122  0.94252  0.40253  1.0000
  C   C814      1.0  0.63838  0.93884  0.41309  1.0000
  C   C815      1.0  0.64150  0.94659  0.43368  1.0000
  C   C816      1.0  0.66704  0.95797  0.44358  1.0000
  H   H1375     1.0  0.56430  0.53264  0.31847  1.0000
  H   H1376     1.0  0.65927  0.93680  0.38670  1.0000
  H   H1377     1.0  0.62406  0.94395  0.44202  1.0000
  H   H1378     1.0  0.66905  0.96396  0.45937  1.0000
  H   H1379     1.0  0.54755  0.90402  0.40273  1.0000
  C   C817      1.0  0.60386  0.76612  0.41773  1.0000
  C   C818      1.0  0.90538  0.74678  0.48858  1.0000
  H   H1380     1.0  0.88830  0.88067  0.49398  1.0000
  C   C819      1.0  0.68911  0.70071  0.43404  1.0000
  C   C820      1.0  0.67146  0.70844  0.44343  1.0000
  C   C821      1.0  0.64617  0.70188  0.43432  1.0000
  C   C822      1.0  0.63842  0.68819  0.41543  1.0000
  C   C823      1.0  0.65629  0.68092  0.40584  1.0000
  C   C824      1.0  0.68136  0.68697  0.41518  1.0000
  H   H1381     1.0  0.67728  0.71942  0.45773  1.0000
  H   H1382     1.0  0.63254  0.70750  0.44198  1.0000
  H   H1383     1.0  0.65067  0.67033  0.39135  1.0000
  H   H1384     1.0  0.69486  0.68095  0.40772  1.0000
  H   H1385     1.0  0.50828  0.89593  0.26153  1.0000
  H   H1386     1.0  0.59568  0.60553  0.30064  1.0000
  H   H1387     1.0  0.61463  0.61756  0.44620  1.0000
  H   H1388     1.0  0.50784  0.57136  0.30545  1.0000
  C   C825      1.0  0.51703  0.92104  0.30485  1.0000
  H   H1389     1.0  0.53847  0.69670  0.40081  1.0000
  C   C826      1.0  0.60315  0.65940  0.27439  1.0000
  S   S236      1.0  0.71058  0.96709  0.50355  1.0000
  H   H1390     1.0  0.49521  0.92823  0.25795  1.0000
  H   H1391     1.0  0.56036  0.64604  0.27474  1.0000
  C   C827      1.0  0.52476  0.93818  0.39658  1.0000
  C   C828      1.0  0.58072  0.91429  0.27207  1.0000
  C   C829      1.0  0.58004  0.88900  0.27031  1.0000
  H   H1392     1.0  0.60865  0.81476  0.40458  1.0000
  H   H1393     1.0  0.58211  0.87922  0.28365  1.0000
  C   C830      1.0  0.58057  0.77549  0.38983  1.0000
  H   H1394     1.0  0.51661  0.95196  0.40167  1.0000
  C   C831      1.0  0.54869  0.71916  0.40198  1.0000
  H   H1395     1.0  0.57155  0.76918  0.37446  1.0000
  H   H1396     1.0  0.56329  0.77109  0.39978  1.0000
  C   C832      1.0  0.83131  0.84414  0.49274  1.0000
  H   H1397     1.0  0.64791  0.75941  0.39981  1.0000
  Fe  Fe118     1.0  0.73684  0.98795  0.47769  1.0000
  H   H1398     1.0  0.81984  0.85769  0.46562  1.0000
  H   H1399     1.0  0.52557  0.85448  0.28154  1.0000
  H   H1400     1.0  0.56593  0.93307  0.42740  1.0000
  S   S237      1.0  0.72279  0.97639  0.44456  1.0000
  C   C833      1.0  0.51441  0.57628  0.28974  1.0000
  H   H1401     1.0  0.87289  0.83739  0.47829  1.0000
  H   H1402     1.0  0.70434  0.95721  0.40399  1.0000
  H   H1403     1.0  0.61141  0.81341  0.37733  1.0000
  S   S238      1.0  0.50949  0.57201  0.35058  1.0000
  H   H1404     1.0  0.55084  0.72512  0.41817  1.0000
  N   N61       1.0  0.64974  0.64785  0.49183  1.0000
  H   H1405     1.0  0.84087  0.73338  0.47492  1.0000
  H   H1406     1.0  0.61920  0.60368  0.27034  1.0000
  C   C834      1.0  0.86477  0.82802  0.49292  1.0000
  C   C835      1.0  0.57548  0.72590  0.28209  1.0000
  H   H1407     1.0  0.60932  0.73753  0.26270  1.0000
  C   C836      1.0  0.61918  0.76814  0.38244  1.0000
  H   H1408     1.0  0.62504  0.73148  0.38328  1.0000
  H   H1409     1.0  0.62486  0.75544  0.44095  1.0000
  H   H1410     1.0  0.68385  0.62779  0.47678  1.0000
  H   H1411     1.0  0.58815  0.56452  0.33049  1.0000
  H   H1412     1.0  0.57165  0.72618  0.37514  1.0000
  C   C837      1.0  0.66966  0.89788  0.48906  1.0000
  H   H1413     1.0  0.85415  0.87873  0.47322  1.0000
  H   H1414     1.0  0.55910  0.58504  0.32515  1.0000
  H   H1415     1.0  0.63339  0.79000  0.38473  1.0000
  C   C838      1.0  0.76956  0.87563  0.49562  1.0000
  C   C839      1.0  0.57607  0.73014  0.39162  1.0000
  C   C840      1.0  0.64255  0.69001  0.49836  1.0000
  N   N62       1.0  0.69141  0.88790  0.45798  1.0000
  C   C841      1.0  0.71109  0.90223  0.44167  1.0000
  C   C842      1.0  0.66442  0.86973  0.44802  1.0000
  C   C843      1.0  0.70029  0.87100  0.47036  1.0000
  C   C844      1.0  0.68997  0.90882  0.47185  1.0000
  C   C845      1.0  0.74085  0.91896  0.44854  1.0000
  C   C846      1.0  0.64934  0.88422  0.43879  1.0000
  H   H1416     1.0  0.68717  0.65070  0.45682  1.0000
  C   C847      1.0  0.50991  0.89129  0.30033  1.0000
  H   H1417     1.0  0.71031  0.88773  0.42962  1.0000
  H   H1418     1.0  0.70559  0.91655  0.43392  1.0000
  H   H1419     1.0  0.65065  0.85456  0.45858  1.0000
  H   H1420     1.0  0.66670  0.85738  0.43556  1.0000
  H   H1421     1.0  0.71885  0.88408  0.47929  1.0000
  H   H1422     1.0  0.68516  0.85983  0.48189  1.0000
  H   H1423     1.0  0.70988  0.92139  0.47947  1.0000
  H   H1424     1.0  0.68623  0.92382  0.46342  1.0000
  H   H1425     1.0  0.75307  0.92825  0.43515  1.0000
  H   H1426     1.0  0.74374  0.93592  0.45886  1.0000
  H   H1427     1.0  0.74925  0.90658  0.45561  1.0000
  H   H1428     1.0  0.66140  0.89883  0.42735  1.0000
  H   H1429     1.0  0.63054  0.86907  0.43101  1.0000
  H   H1430     1.0  0.52816  0.89223  0.29335  1.0000
  C   C848      1.0  0.54665  0.54384  0.28233  1.0000
  H   H1431     1.0  0.58815  0.76863  0.42628  1.0000
  H   H1432     1.0  0.53091  0.55371  0.32006  1.0000
  H   H1433     1.0  0.55482  0.60742  0.29568  1.0000
  H   H1434     1.0  0.56356  0.96684  0.41089  1.0000
  H   H1435     1.0  0.59055  0.73138  0.43763  1.0000
  C   C849      1.0  0.69085  0.64916  0.47311  1.0000
  H   H1436     1.0  0.54851  0.59159  0.27127  1.0000
  H   H1437     1.0  0.55719  0.54361  0.34216  1.0000
  H   H1438     1.0  0.56647  0.94508  0.39135  1.0000
  H   H1439     1.0  0.57899  0.94649  0.25574  1.0000
  H   H1440     1.0  0.56158  0.53589  0.28295  1.0000
  H   H1441     1.0  0.87996  0.72843  0.46222  1.0000
  C   C850      1.0  0.55024  0.92635  0.43887  1.0000
  H   H1442     1.0  0.53453  0.92985  0.31562  1.0000
  H   H1443     1.0  0.61301  0.59803  0.46757  1.0000
  C   C851      1.0  0.55545  0.95619  0.39617  1.0000
  C   C852      1.0  0.85907  0.74042  0.48414  1.0000
  C   C853      1.0  0.54500  0.58738  0.28753  1.0000
  H   H1444     1.0  0.68679  0.83443  0.45076  1.0000
  H   H1445     1.0  0.62252  0.78580  0.41936  1.0000
  S   S239      1.0  0.77122  0.97988  0.48764  1.0000
  H   H1446     1.0  0.58366  0.81568  0.38792  1.0000
  H   H1447     1.0  0.63855  0.65975  0.46372  1.0000
  C   C854      1.0  0.70538  0.84986  0.45851  1.0000
  C   C855      1.0  0.63110  0.64197  0.47363  1.0000
  H   H1448     1.0  0.71212  0.83909  0.46932  1.0000
  H   H1449     1.0  0.50236  0.90740  0.34897  1.0000
  C   C856      1.0  0.59743  0.80658  0.39011  1.0000
  H   H1450     1.0  0.84802  0.80746  0.48904  1.0000
  H   H1451     1.0  0.64651  0.60736  0.49170  1.0000
  H   H1452     1.0  0.67979  0.89607  0.50305  1.0000
  H   H1453     1.0  0.72164  0.85927  0.44753  1.0000
  Fe  Fe119     1.0  0.79001  0.74837  0.50376  1.0000
  S   S240      1.0  0.75267  0.70796  0.50001  1.0000
  H   H1454     1.0  0.61524  0.73259  0.41996  1.0000
  H   H1455     1.0  0.89239  0.81073  0.49327  1.0000
  H   H1456     1.0  0.64330  0.89469  0.45045  1.0000
  H   H1457     1.0  0.78439  0.87953  0.48420  1.0000
  H   H1458     1.0  0.58492  0.71684  0.39580  1.0000
  C   C857      1.0  0.57730  0.64954  0.26546  1.0000
  H   H1459     1.0  0.66125  0.91206  0.49217  1.0000
  Fe  Fe120     1.0  0.97398  0.75079  0.49227  1.0000
  C   C858      1.0  0.63665  0.75372  0.38517  1.0000
  C   C859      1.0  0.55253  0.56539  0.31687  1.0000
  H   H1460     1.0  0.64450  0.61709  0.45502  1.0000
  H   H1461     1.0  0.71298  0.65890  0.47590  1.0000
  C   C860      1.0  0.64437  0.62199  0.50206  1.0000
  C   C861      1.0  0.62588  0.61722  0.46004  1.0000
  H   H1462     1.0  0.62528  0.68449  0.48766  1.0000
  H   H1463     1.0  0.61252  0.76535  0.36628  1.0000
  N   N63       1.0  0.55725  0.56990  0.29465  1.0000
  C   C862      1.0  0.52536  0.89487  0.40146  1.0000
  H   H1464     1.0  0.65202  0.76040  0.37331  1.0000
  C   C863      1.0  0.60872  0.74490  0.42927  1.0000
  H   H1465     1.0  0.55769  0.94244  0.45090  1.0000
  H   H1466     1.0  0.52365  0.93320  0.29112  1.0000
  H   H1467     1.0  0.57319  0.74450  0.28279  1.0000
  H   H1468     1.0  0.59269  0.78085  0.26160  1.0000
  H   H1469     1.0  0.50062  0.92352  0.31208  1.0000
  H   H1470     1.0  0.91679  0.68629  0.49494  1.0000
  C   C864      1.0  0.58733  0.58583  0.29201  1.0000
  H   H1471     1.0  0.50581  0.52603  0.29659  1.0000
  H   H1472     1.0  0.51991  0.93984  0.43530  1.0000
  H   H1473     1.0  0.52666  0.85723  0.40720  1.0000
  H   H1474     1.0  0.54450  0.54765  0.26614  1.0000
  H   H1475     1.0  0.55581  0.70807  0.28483  1.0000
  S   S241      1.0  0.71737  0.74214  0.49759  1.0000
  H   H1476     1.0  0.58912  0.72724  0.29487  1.0000
  H   H1477     1.0  0.52085  0.89090  0.38499  1.0000
  C   C865      1.0  0.67879  0.66385  0.48613  1.0000
  H   H1478     1.0  0.51444  0.86880  0.42804  1.0000
  H   H1479     1.0  0.55986  0.97216  0.38497  1.0000
  H   H1480     1.0  0.50294  0.55875  0.27933  1.0000
  H   H1481     1.0  0.64490  0.67167  0.26881  1.0000
  C   C866      1.0  0.52195  0.92139  0.43139  1.0000
  H   H1482     1.0  0.51747  0.93216  0.38069  1.0000
  C   C867      1.0  0.58765  0.72225  0.26226  1.0000
  S   S242      1.0  0.76489  0.82419  0.49509  1.0000
  C   C868      1.0  0.51962  0.52019  0.28870  1.0000
  C   C869      1.0  0.83817  0.85745  0.47203  1.0000
  H   H1483     1.0  0.84367  0.84568  0.46111  1.0000
  H   H1484     1.0  0.50815  0.88141  0.31506  1.0000
  H   H1485     1.0  0.58751  0.70233  0.26348  1.0000
  H   H1486     1.0  0.68168  0.68179  0.47752  1.0000
  H   H1487     1.0  0.54911  0.90811  0.44614  1.0000
  C   C870      1.0  0.75659  0.84978  0.50398  1.0000
  C   C871      1.0  0.62490  0.66413  0.26212  1.0000
  H   H1488     1.0  0.50847  0.50830  0.27500  1.0000
  N   N64       1.0  0.51473  0.91350  0.40939  1.0000
  C   C872      1.0  0.88752  0.82403  0.50320  1.0000
  H   H1489     1.0  0.53517  0.72577  0.39417  1.0000
  H   H1490     1.0  0.52331  0.50588  0.29805  1.0000
  C   C873      1.0  0.51413  0.86710  0.41138  1.0000
  H   H1491     1.0  0.50744  0.90519  0.44101  1.0000
  H   H1492     1.0  0.77370  0.91625  0.49528  1.0000
  H   H1493     1.0  0.59147  0.57309  0.26099  1.0000
  S   S243      1.0  0.98125  0.71531  0.49984  1.0000
  H   H1494     1.0  0.58928  0.60436  0.26231  1.0000
  C   C874      1.0  0.50671  0.84621  0.27230  1.0000
  Fe  Fe121     1.0  0.75674  0.78041  0.50098  1.0000
  H   H1495     1.0  0.53712  0.71803  0.25694  1.0000
  H   H1496     1.0  0.51058  0.85647  0.25769  1.0000
  H   H1497     1.0  0.66140  0.70369  0.49101  1.0000
  C   C875      1.0  0.76355  0.89655  0.50187  1.0000
  H   H1498     1.0  0.69229  0.67307  0.49962  1.0000
  H   H1499     1.0  0.82125  0.85421  0.50098  1.0000
  H   H1500     1.0  0.50138  0.82473  0.26890  1.0000
  C   C876      1.0  0.86045  0.75233  0.50315  1.0000
  H   H1501     1.0  0.55720  0.76113  0.25529  1.0000
  H   H1502     1.0  0.49334  0.85346  0.40568  1.0000
  C   C877      1.0  0.57842  0.92688  0.25450  1.0000
  Fe  Fe122     1.0  0.88571  0.53193  0.64442  1.0000
  S   S244      1.0  0.92853  0.56239  0.65170  1.0000
  H   H1503     1.0  0.83540  0.59320  0.69244  1.0000
  Fe  Fe123     1.0  0.86632  0.57495  0.64821  1.0000
  S   S245      1.0  0.90779  0.60828  0.65615  1.0000
  S   S246      1.0  0.83378  0.58760  0.64323  1.0000
  Fe  Fe124     1.0  0.92182  0.59069  0.63096  1.0000
  S   S247      1.0  0.94859  0.61099  0.60400  1.0000
  Fe  Fe125     1.0  0.91042  0.57725  0.67620  1.0000
  S   S248      1.0  0.92929  0.58706  0.70799  1.0000
  S   S249      1.0  0.88006  0.55890  0.62212  1.0000
  S   S250      1.0  0.86783  0.54520  0.66989  1.0000
  Fe  Fe126     1.0  0.67608  0.57414  0.67529  1.0000
  S   S251      1.0  0.65630  0.52890  0.67465  1.0000
  S   S252      1.0  0.69430  0.59694  0.70501  1.0000
  Fe  Fe127     1.0  0.67615  0.57712  0.62831  1.0000
  S   S253      1.0  0.65683  0.53152  0.62516  1.0000
  S   S254      1.0  0.68937  0.59781  0.59776  1.0000
  Fe  Fe128     1.0  0.62960  0.53102  0.64987  1.0000
  S   S255      1.0  0.58361  0.50704  0.64937  1.0000
  Fe  Fe129     1.0  0.68523  0.53359  0.65013  1.0000
  S   S256      1.0  0.70927  0.51046  0.65240  1.0000
  S   S257      1.0  0.64744  0.57667  0.65208  1.0000
  S   S258      1.0  0.70636  0.57874  0.65177  1.0000
  C   C878      1.0  0.97552  0.69238  0.57227  1.0000
  H   H1504     1.0  0.86881  0.65457  0.56046  1.0000
  H   H1505     1.0  0.81973  0.52852  0.62739  1.0000
  S   S259      1.0  0.73446  0.91684  0.52422  1.0000
  S   S260      1.0  0.77128  0.76445  0.52687  1.0000
  H   H1506     1.0  0.62301  0.61133  0.50678  1.0000
  Fe  Fe130     1.0  0.73345  0.72476  0.52178  1.0000
  S   S261      1.0  0.70494  0.70073  0.54692  1.0000
  C   C879      1.0  0.87582  0.69684  0.53865  1.0000
  C   C880      1.0  0.74417  0.89182  0.51647  1.0000
  H   H1507     1.0  0.59337  0.58646  0.60448  1.0000
  C   C881      1.0  0.80956  0.51838  0.61298  1.0000
  H   H1508     1.0  0.92777  0.69839  0.56718  1.0000
  Fe  Fe131     1.0  0.74527  0.95973  0.51378  1.0000
  H   H1509     1.0  0.78974  0.51822  0.61161  1.0000
  H   H1510     1.0  0.58408  0.57152  0.57435  1.0000
  H   H1511     1.0  0.79323  0.57338  0.71140  1.0000
  C   C882      1.0  0.84456  0.83080  0.52466  1.0000
  H   H1512     1.0  0.75871  0.63045  0.72905  1.0000
  H   H1513     1.0  0.89190  0.62498  0.55468  1.0000
  H   H1514     1.0  0.86184  0.69263  0.55143  1.0000
  H   H1515     1.0  0.62626  0.53404  0.57784  1.0000
  C   C883      1.0  0.60402  0.52254  0.57952  1.0000
  H   H1516     1.0  0.60567  0.54274  0.61859  1.0000
  C   C884      1.0  0.91728  0.69550  0.52704  1.0000
  H   H1517     1.0  0.88495  0.71893  0.53650  1.0000
  C   C885      1.0  0.69498  0.62777  0.58484  1.0000
  C   C886      1.0  0.71049  0.63439  0.56735  1.0000
  C   C887      1.0  0.71465  0.65716  0.55603  1.0000
  C   C888      1.0  0.70265  0.67328  0.56170  1.0000
  C   C889      1.0  0.68690  0.66651  0.57907  1.0000
  C   C890      1.0  0.68336  0.64417  0.59071  1.0000
  H   H1518     1.0  0.71956  0.62190  0.56258  1.0000
  H   H1519     1.0  0.72677  0.66196  0.54274  1.0000
  H   H1520     1.0  0.67749  0.67877  0.58365  1.0000
  H   H1521     1.0  0.67139  0.63949  0.60407  1.0000
  C   C891      1.0  0.95771  0.64228  0.59195  1.0000
  C   C892      1.0  0.96834  0.64587  0.57248  1.0000
  H   H1522     1.0  0.63522  0.59216  0.57640  1.0000
  H   H1523     1.0  0.76544  0.64494  0.70428  1.0000
  H   H1524     1.0  0.91134  0.74319  0.56186  1.0000
  C   C893      1.0  0.95578  0.66390  0.60143  1.0000
  C   C894      1.0  0.63832  0.56368  0.74848  1.0000
  H   H1525     1.0  0.88588  0.77066  0.52952  1.0000
  H   H1526     1.0  0.65798  0.60500  0.52622  1.0000
  H   H1527     1.0  0.94787  0.66158  0.61645  1.0000
  C   C895      1.0  0.79942  0.56458  0.64467  1.0000
  C   C896      1.0  0.78051  0.57066  0.63516  1.0000
  C   C897      1.0  0.75285  0.55376  0.63713  1.0000
  C   C898      1.0  0.74390  0.53075  0.64877  1.0000
  C   C899      1.0  0.76280  0.52431  0.65802  1.0000
  C   C900      1.0  0.79057  0.54131  0.65605  1.0000
  H   H1528     1.0  0.78727  0.58865  0.62633  1.0000
  H   H1529     1.0  0.73845  0.55857  0.62957  1.0000
  H   H1530     1.0  0.56284  0.50964  0.60563  1.0000
  H   H1531     1.0  0.80520  0.53723  0.66402  1.0000
  C   C901      1.0  0.88350  0.56892  0.73130  1.0000
  C   C902      1.0  0.91147  0.57893  0.73092  1.0000
  H   H1532     1.0  0.80400  0.82733  0.52798  1.0000
  H   H1533     1.0  0.87216  0.56562  0.71731  1.0000
  H   H1534     1.0  0.93929  0.74242  0.54881  1.0000
  H   H1535     1.0  0.96373  0.70549  0.59944  1.0000
  C   C903      1.0  0.67844  0.58598  0.72845  1.0000
  C   C904      1.0  0.65058  0.56983  0.72956  1.0000
  H   H1536     1.0  0.93692  0.69806  0.53331  1.0000
  H   H1537     1.0  0.63836  0.56303  0.71584  1.0000
  H   H1538     1.0  0.74784  0.54185  0.70015  1.0000
  N   N65       1.0  0.89716  0.68844  0.54365  1.0000
  H   H1539     1.0  0.88824  0.66113  0.50665  1.0000
  C   C905      1.0  0.62255  0.57861  0.56387  1.0000
  S   S262      1.0  0.83330  0.75699  0.51307  1.0000
  C   C906      1.0  0.96490  0.68884  0.59173  1.0000
  H   H1540     1.0  0.71628  0.86204  0.53615  1.0000
  C   C907      1.0  0.82537  0.60553  0.69702  1.0000
  C   C908      1.0  0.92594  0.73495  0.56186  1.0000
  H   H1541     1.0  0.59947  0.57801  0.62909  1.0000
  H   H1542     1.0  0.75982  0.57855  0.72892  1.0000
  C   C909      1.0  0.85848  0.68415  0.51942  1.0000
  H   H1543     1.0  0.87242  0.89465  0.53426  1.0000
  S   S263      1.0  0.99096  0.77321  0.52154  1.0000
  C   C910      1.0  0.88374  0.65877  0.54836  1.0000
  H   H1544     1.0  0.54608  0.55097  0.58906  1.0000
  C   C911      1.0  0.73743  0.84513  0.51870  1.0000
  N   N66       1.0  0.59282  0.54077  0.58755  1.0000
  H   H1545     1.0  0.72403  0.55269  0.69069  1.0000
  C   C912      1.0  0.91173  0.70377  0.56273  1.0000
  H   H1546     1.0  0.89775  0.69806  0.57560  1.0000
  N   N67       1.0  0.77658  0.59974  0.70147  1.0000
  C   C913      1.0  0.75293  0.58087  0.71358  1.0000
  C   C914      1.0  0.79112  0.62612  0.71330  1.0000
  C   C915      1.0  0.79482  0.58672  0.69865  1.0000
  C   C916      1.0  0.76575  0.60331  0.68145  1.0000
  C   C917      1.0  0.73575  0.55222  0.70418  1.0000
  H   H1547     1.0  0.84311  0.69142  0.51818  1.0000
  H   H1548     1.0  0.71547  0.60763  0.74581  1.0000
  C   C918      1.0  0.78610  0.62437  0.66755  1.0000
  C   C919      1.0  0.56393  0.52303  0.59306  1.0000
  H   H1549     1.0  0.52646  0.52139  0.60261  1.0000
  H   H1550     1.0  0.80918  0.64071  0.70537  1.0000
  H   H1551     1.0  0.88139  0.81379  0.51777  1.0000
  H   H1552     1.0  0.82072  0.82760  0.55099  1.0000
  H   H1553     1.0  0.72072  0.53957  0.71524  1.0000
  H   H1554     1.0  0.75659  0.58397  0.67252  1.0000
  H   H1555     1.0  0.74909  0.60862  0.68368  1.0000
  H   H1556     1.0  0.84735  0.66181  0.51964  1.0000
  H   H1557     1.0  0.72725  0.82544  0.52531  1.0000
  C   C920      1.0  0.60692  0.58125  0.61344  1.0000
  H   H1558     1.0  0.61666  0.55217  0.74914  1.0000
  H   H1559     1.0  0.63152  0.56358  0.60296  1.0000
  H   H1560     1.0  0.75594  0.50664  0.66720  1.0000
  C   C921      1.0  0.64359  0.66489  0.50678  1.0000
  H   H1561     1.0  0.92072  0.65383  0.54579  1.0000
  H   H1562     1.0  0.73859  0.58914  0.71600  1.0000
  H   H1563     1.0  0.83450  0.80838  0.52241  1.0000
  H   H1564     1.0  0.77522  0.62504  0.65360  1.0000
  H   H1565     1.0  0.80161  0.61865  0.66268  1.0000
  C   C922      1.0  0.97693  0.67063  0.56260  1.0000
  H   H1566     1.0  0.79884  0.62272  0.72796  1.0000
  H   H1567     1.0  0.82208  0.53126  0.60080  1.0000
  C   C923      1.0  0.82395  0.83683  0.53594  1.0000
  H   H1568     1.0  0.87067  0.69100  0.50571  1.0000
  H   H1569     1.0  0.60334  0.50305  0.60841  1.0000
  C   C924      1.0  0.66247  0.62528  0.52073  1.0000
  H   H1570     1.0  0.83036  0.62120  0.68564  1.0000
  H   H1571     1.0  0.65878  0.67251  0.51942  1.0000
  H   H1572     1.0  0.92163  0.71541  0.52071  1.0000
  H   H1573     1.0  0.68417  0.63553  0.51720  1.0000
  S   S264      1.0  0.98693  0.72449  0.56097  1.0000
  H   H1574     1.0  0.55258  0.50938  0.58003  1.0000
  H   H1575     1.0  0.83451  0.61535  0.71182  1.0000
  H   H1576     1.0  0.65874  0.63629  0.53337  1.0000
  H   H1577     1.0  0.97008  0.62937  0.56503  1.0000
  H   H1578     1.0  0.78817  0.66128  0.72502  1.0000
  C   C925      1.0  0.59397  0.55895  0.57066  1.0000
  C   C926      1.0  0.60973  0.55632  0.60574  1.0000
  H   H1579     1.0  0.92114  0.66307  0.51037  1.0000
  H   H1580     1.0  0.90965  0.65340  0.57127  1.0000
  H   H1581     1.0  0.59561  0.51438  0.56412  1.0000
  H   H1582     1.0  0.84867  0.55582  0.74996  1.0000
  H   H1583     1.0  0.93896  0.74343  0.57562  1.0000
  H   H1584     1.0  0.79559  0.64504  0.67442  1.0000
  C   C927      1.0  0.69399  0.59492  0.74646  1.0000
  H   H1585     1.0  0.86175  0.83565  0.53539  1.0000
  H   H1586     1.0  0.63301  0.56787  0.55709  1.0000
  H   H1587     1.0  0.58235  0.54663  0.55719  1.0000
  C   C928      1.0  0.90990  0.67496  0.50908  1.0000
  C   C929      1.0  0.73126  0.86598  0.52484  1.0000
  H   H1588     1.0  0.62704  0.59939  0.61410  1.0000
  C   C930      1.0  0.54747  0.53716  0.60022  1.0000
  H   H1589     1.0  0.83057  0.85862  0.53843  1.0000
  H   H1590     1.0  0.78834  0.57310  0.68511  1.0000
  H   H1591     1.0  0.87163  0.64588  0.53543  1.0000
  H   H1592     1.0  0.62100  0.59179  0.55216  1.0000
  C   C931      1.0  0.90286  0.64744  0.55533  1.0000
  C   C932      1.0  0.88448  0.76139  0.51480  1.0000
  C   C933      1.0  0.77457  0.64118  0.71801  1.0000
  H   H1593     1.0  0.55494  0.54761  0.61506  1.0000
  H   H1594     1.0  0.89303  0.87219  0.51838  1.0000
  H   H1595     1.0  0.92509  0.76602  0.51670  1.0000
  C   C934      1.0  0.90679  0.75874  0.50758  1.0000
  N   N68       1.0  0.85443  0.84448  0.50483  1.0000
  H   H1596     1.0  0.63996  0.70179  0.51105  1.0000
  C   C935      1.0  0.87068  0.89424  0.51755  1.0000
  C   C936      1.0  0.59896  0.49778  0.59219  1.0000
  H   H1597     1.0  0.85071  0.89206  0.51304  1.0000
  H   H1598     1.0  0.62383  0.65261  0.51389  1.0000
  H   H1599     1.0  0.90633  0.84330  0.50532  1.0000
  C   C937      1.0  0.87026  0.56343  0.74986  1.0000
  H   H1600     1.0  0.94754  0.59097  0.74917  1.0000
  C   C938      1.0  0.92591  0.58315  0.74930  1.0000
  H   H1601     1.0  0.88520  0.91444  0.51216  1.0000
  C   C939      1.0  0.87734  0.87262  0.50815  1.0000
  H   H1602     1.0  0.98510  0.67295  0.54768  1.0000
  H   H1603     1.0  0.82704  0.49758  0.64512  1.0000
  H   H1604     1.0  0.91531  0.49770  0.66220  1.0000
  Fe  Fe132     1.0  0.68717  0.54243  0.84349  1.0000
  S   S265      1.0  0.69801  0.58394  0.83260  1.0000
  S   S266      1.0  0.70999  0.51925  0.83571  1.0000
  Fe  Fe133     1.0  0.63264  0.53346  0.85870  1.0000
  S   S267      1.0  0.63970  0.57476  0.84927  1.0000
  H   H1605     1.0  0.68805  0.50430  0.87876  1.0000
  Fe  Fe134     1.0  0.65534  0.56557  0.82051  1.0000
  S   S268      1.0  0.63714  0.56679  0.78980  1.0000
  Fe  Fe135     1.0  0.68176  0.58981  0.86246  1.0000
  S   S269      1.0  0.70758  0.63009  0.87979  1.0000
  S   S270      1.0  0.64562  0.52359  0.82948  1.0000
  S   S271      1.0  0.67363  0.54896  0.87391  1.0000
  Fe  Fe136     1.0  0.91153  0.59018  0.86314  1.0000
  S   S272      1.0  0.89110  0.55277  0.88115  1.0000
  S   S273      1.0  0.94201  0.63155  0.87665  1.0000
  Fe  Fe137     1.0  0.88052  0.56012  0.82368  1.0000
  S   S274      1.0  0.85747  0.52074  0.83958  1.0000
  S   S275      1.0  0.86686  0.56090  0.79111  1.0000
  Fe  Fe138     1.0  0.85332  0.54643  0.86444  1.0000
  S   S276      1.0  0.81708  0.53971  0.88269  1.0000
  Fe  Fe139     1.0  0.89729  0.53048  0.85468  1.0000
  Fe  Fe140     1.0  0.98550  0.71415  0.98452  1.0000
  S   S277      1.0  0.87336  0.58501  0.84774  1.0000
  S   S278      1.0  0.92068  0.56863  0.83744  1.0000
  C   C940      1.0  0.81834  0.60711  0.81684  1.0000
  C   C941      1.0  0.75302  0.84520  0.98954  1.0000
  H   H1606     1.0  0.83036  0.99208  0.98312  1.0000
  H   H1607     1.0  0.84586  0.72927  0.93409  1.0000
  Fe  Fe141     1.0  0.72505  0.71518  0.98599  1.0000
  S   S279      1.0  0.69799  0.67778  0.96632  1.0000
  H   H1608     1.0  0.80242  0.61707  0.77369  1.0000
  S   S280      1.0  0.76438  0.75027  0.97801  1.0000
  C   C942      1.0  0.90548  0.76322  0.00138  1.0000
  H   H1609     1.0  0.96160  0.62539  0.99433  1.0000
  H   H1610     1.0  0.83917  0.68802  0.93874  1.0000
  H   H1611     1.0  0.83056  0.56764  0.81601  1.0000
  H   H1612     1.0  0.58337  0.50505  0.82843  1.0000
  H   H1613     1.0  0.86756  0.69083  0.96836  1.0000
  H   H1614     1.0  0.76193  0.55295  0.79506  1.0000
  H   H1615     1.0  0.84239  0.95499  0.97424  1.0000
  C   C943      1.0  0.76141  0.89794  0.00187  1.0000
  H   H1616     1.0  0.80186  0.68839  0.92217  1.0000
  H   H1617     1.0  0.55452  0.54056  0.82479  1.0000
  H   H1618     1.0  0.67268  0.98062  0.81822  1.0000
  H   H1619     1.0  0.97452  0.68384  0.89552  1.0000
  C   C944      1.0  0.77267  0.57137  0.80491  1.0000
  S   S281      1.0  0.71650  0.96184  0.99161  1.0000
  C   C945      1.0  0.81426  0.71827  0.95725  1.0000
  H   H1620     1.0  0.92404  0.58083  0.78184  1.0000
  C   C946      1.0  0.94719  0.64264  0.90249  1.0000
  C   C947      1.0  0.93512  0.62486  0.91815  1.0000
  C   C948      1.0  0.94122  0.63416  0.93845  1.0000
  C   C949      1.0  0.95892  0.66147  0.94343  1.0000
  S   S282      1.0  0.59308  0.50448  0.87279  1.0000
  C   C950      1.0  0.96497  0.66990  0.90747  1.0000
  H   H1621     1.0  0.92131  0.60389  0.91462  1.0000
  H   H1622     1.0  0.93200  0.62013  0.95039  1.0000
  C   C951      1.0  0.65382  0.57291  0.76648  1.0000
  C   C952      1.0  0.94880  0.54507  0.90844  1.0000
  C   C953      1.0  0.88471  0.56759  0.76823  1.0000
  H   H1623     1.0  0.82302  0.66094  0.95493  1.0000
  S   S283      1.0  0.99061  0.75358  0.97251  1.0000
  C   C954      1.0  0.70425  0.64288  0.90387  1.0000
  C   C955      1.0  0.72382  0.66889  0.91045  1.0000
  C   C956      1.0  0.72229  0.67986  0.92946  1.0000
  C   C957      1.0  0.70110  0.66497  0.94219  1.0000
  C   C958      1.0  0.68142  0.63908  0.93556  1.0000
  C   C959      1.0  0.68299  0.62805  0.91659  1.0000
  H   H1624     1.0  0.74030  0.68059  0.90073  1.0000
  H   H1625     1.0  0.73755  0.69976  0.93429  1.0000
  H   H1626     1.0  0.66484  0.62737  0.94521  1.0000
  H   H1627     1.0  0.66773  0.60808  0.91179  1.0000
  C   C960      1.0  0.73969  0.52543  0.84902  1.0000
  C   C961      1.0  0.75025  0.54490  0.86466  1.0000
  C   C962      1.0  0.77405  0.54917  0.87497  1.0000
  C   C963      1.0  0.78761  0.53441  0.86940  1.0000
  C   C964      1.0  0.84813  0.99158  0.99052  1.0000
  H   H1628     1.0  0.62540  0.95755  0.86645  1.0000
  H   H1629     1.0  0.74005  0.55656  0.86886  1.0000
  H   H1630     1.0  0.78214  0.56411  0.88718  1.0000
  C   C965      1.0  0.56288  0.52896  0.83304  1.0000
  N   N69       1.0  0.68693  0.74877  0.93475  1.0000
  C   C966      1.0  0.71596  0.76717  0.94073  1.0000
  C   C967      1.0  0.66984  0.76030  0.94394  1.0000
  C   C968      1.0  0.68261  0.74665  0.91222  1.0000
  C   C969      1.0  0.67954  0.72098  0.94229  1.0000
  C   C970      1.0  0.73729  0.76197  0.92978  1.0000
  C   C971      1.0  0.66773  0.75903  0.96706  1.0000
  C   C972      1.0  0.69080  0.77368  0.90170  1.0000
  C   C973      1.0  0.65008  0.69919  0.93842  1.0000
  H   H1631     1.0  0.72124  0.78883  0.93881  1.0000
  H   H1632     1.0  0.71934  0.76545  0.95706  1.0000
  H   H1633     1.0  0.64905  0.75053  0.93730  1.0000
  H   H1634     1.0  0.67793  0.78206  0.94038  1.0000
  H   H1635     1.0  0.69335  0.73635  0.90501  1.0000
  H   H1636     1.0  0.66096  0.73350  0.90816  1.0000
  H   H1637     1.0  0.69197  0.71269  0.93501  1.0000
  H   H1638     1.0  0.68470  0.72149  0.95860  1.0000
  H   H1639     1.0  0.73488  0.74147  0.93240  1.0000
  H   H1640     1.0  0.73743  0.76538  0.91339  1.0000
  H   H1641     1.0  0.75754  0.77653  0.93598  1.0000
  H   H1642     1.0  0.65772  0.73795  0.97229  1.0000
  H   H1643     1.0  0.68774  0.77051  0.97470  1.0000
  H   H1644     1.0  0.65527  0.76867  0.97203  1.0000
  H   H1645     1.0  0.67769  0.78283  0.90601  1.0000
  H   H1646     1.0  0.68824  0.76979  0.88514  1.0000
  H   H1647     1.0  0.71217  0.78849  0.90478  1.0000
  H   H1648     1.0  0.80035  0.55559  0.82925  1.0000
  H   H1649     1.0  0.63535  0.70713  0.93912  1.0000
  C   C974      1.0  0.74848  0.88633  0.98338  1.0000
  H   H1650     1.0  0.83766  0.62854  0.78011  1.0000
  C   C975      1.0  0.76159  0.67356  0.97438  1.0000
  H   H1651     1.0  0.76453  0.56409  0.82003  1.0000
  H   H1652     1.0  0.79762  0.56827  0.77303  1.0000
  S   S284      1.0  0.96676  0.67172  0.96936  1.0000
  C   C976      1.0  0.89228  0.77763  0.99401  1.0000
  H   H1653     1.0  0.84033  0.61323  0.81650  1.0000
  H   H1654     1.0  0.80557  0.53439  0.78711  1.0000
  H   H1655     1.0  0.57974  0.54376  0.84279  1.0000
  C   C977      1.0  0.98227  0.85941  0.97703  1.0000
  C   C978      1.0  0.57391  0.51448  0.81873  1.0000
  H   H1656     1.0  0.74195  0.89761  0.97364  1.0000
  H   H1657     1.0  0.98417  0.80069  0.94289  1.0000
  H   H1658     1.0  0.78590  0.65299  0.97304  1.0000
  H   H1659     1.0  0.66843  0.96490  0.86247  1.0000
  H   H1660     1.0  0.97065  0.85416  0.96251  1.0000
  H   H1661     1.0  0.81672  0.59304  0.84800  1.0000
  C   C979      1.0  0.75297  0.51034  0.84371  1.0000
  H   H1662     1.0  0.93129  0.54914  0.91063  1.0000
  H   H1663     1.0  0.83142  0.58294  0.78234  1.0000
  H   H1664     1.0  0.97797  0.52083  0.89156  1.0000
  H   H1665     1.0  0.81646  0.62434  0.81042  1.0000
  H   H1666     1.0  0.64437  0.68400  0.95042  1.0000
  C   C980      1.0  0.85176  0.69743  0.97002  1.0000
  C   C981      1.0  0.82953  0.68296  0.95366  1.0000
  H   H1667     1.0  0.65867  0.93935  0.84328  1.0000
  H   H1668     1.0  0.76311  0.69402  0.97546  1.0000
  H   H1669     1.0  0.97795  0.87486  0.98456  1.0000
  H   H1670     1.0  0.69154  0.96678  0.84310  1.0000
  H   H1671     1.0  0.94936  0.56015  0.87333  1.0000
  C   C982      1.0  0.54621  0.50906  0.78869  1.0000
  H   H1672     1.0  0.76278  0.63572  0.94276  1.0000
  C   C983      1.0  0.77691  0.51483  0.85384  1.0000
  H   H1673     1.0  0.84598  0.75686  0.94756  1.0000
  C   C984      1.0  0.67028  0.96152  0.84625  1.0000
  S   S285      1.0  0.74870  0.81296  0.98039  1.0000
  C   C985      1.0  0.79729  0.53253  0.80239  1.0000
  H   H1674     1.0  0.77517  0.61227  0.80260  1.0000
  C   C986      1.0  0.81079  0.60623  0.83920  1.0000
  H   H1675     1.0  0.69393  0.59561  0.77911  1.0000
  H   H1676     1.0  0.77288  0.68427  0.93481  1.0000
  C   C987      1.0  0.68181  0.58811  0.76539  1.0000
  H   H1677     1.0  0.86193  0.71971  0.96853  1.0000
  C   C988      1.0  0.96361  0.57827  0.88244  1.0000
  H   H1678     1.0  0.53534  0.51903  0.79610  1.0000
  C   C989      1.0  0.86487  0.76946  0.99799  1.0000
  H   H1679     1.0  0.59086  0.53072  0.81081  1.0000
  H   H1680     1.0  0.98010  0.54046  0.86976  1.0000
  S   S286      1.0  0.70904  0.74120  0.00123  1.0000
  H   H1681     1.0  0.82209  0.62685  0.84613  1.0000
  H   H1682     1.0  0.94451  0.59008  0.99894  1.0000
  C   C990      1.0  0.76203  0.59095  0.79805  1.0000
  Fe  Fe142     1.0  0.74968  0.77638  0.99532  1.0000
  H   H1683     1.0  0.94156  0.52864  0.89666  1.0000
  C   C991      1.0  0.81910  0.61179  0.77320  1.0000
  H   H1684     1.0  0.77498  0.52199  0.80151  1.0000
  H   H1685     1.0  0.74753  0.66183  0.96182  1.0000
  H   H1686     1.0  0.76455  0.64278  0.91662  1.0000
  H   H1687     1.0  0.95161  0.58884  0.88631  1.0000
  H   H1688     1.0  0.90338  0.79533  0.98517  1.0000
  H   H1689     1.0  0.82261  0.94817  0.99601  1.0000
  C   C992      1.0  0.77670  0.64770  0.93092  1.0000
  H   H1690     1.0  0.79232  0.64102  0.92878  1.0000
  C   C993      1.0  0.74458  0.86031  0.97721  1.0000
  H   H1691     1.0  0.74270  0.58569  0.80557  1.0000
  H   H1692     1.0  0.82416  0.72637  0.97221  1.0000
  H   H1693     1.0  0.72602  0.49926  0.89305  1.0000
  H   H1694     1.0  0.85842  0.95893  0.99845  1.0000
  H   H1695     1.0  0.96128  0.59248  0.92299  1.0000
  H   H1696     1.0  0.78906  0.59991  0.84101  1.0000
  N   N70       1.0  0.80563  0.68847  0.95469  1.0000
  H   H1697     1.0  0.79643  0.72199  0.95747  1.0000
  C   C994      1.0  0.97061  0.67934  0.92776  1.0000
  H   H1698     1.0  0.98831  0.58662  0.93150  1.0000
  H   H1699     1.0  0.73502  0.85189  0.96271  1.0000
  C   C995      1.0  0.83240  0.73659  0.94076  1.0000
  H   H1700     1.0  0.64778  0.68869  0.92358  1.0000
  C   C996      1.0  0.78930  0.67843  0.93532  1.0000
  H   H1701     1.0  0.60953  0.50944  0.79247  1.0000
  C   C997      1.0  0.78937  0.67428  0.97266  1.0000
  H   H1702     1.0  0.63916  0.96114  0.82630  1.0000
  H   H1703     1.0  0.82001  0.73886  0.92845  1.0000
  C   C998      1.0  0.97976  0.59162  0.91795  1.0000
  H   H1704     1.0  0.61615  0.98342  0.84131  1.0000
  H   H1705     1.0  0.54779  0.51482  0.84340  1.0000
  C   C999      1.0  0.65977  0.97608  0.83168  1.0000
  C   C1000     1.0  0.91263  0.57740  0.76785  1.0000
  C   C1001     1.0  0.81246  0.58474  0.78316  1.0000
  C   C1002     1.0  0.80849  0.56005  0.81392  1.0000
  N   N71       1.0  0.80269  0.58128  0.80454  1.0000
  C   C1003     1.0  0.95287  0.53297  0.92812  1.0000
  H   H1706     1.0  0.93428  0.51387  0.93074  1.0000
  H   H1707     1.0  0.96962  0.52773  0.92728  1.0000
  H   H1708     1.0  0.84386  0.69225  0.98539  1.0000
  H   H1709     1.0  0.75814  0.58915  0.78150  1.0000
  H   H1710     1.0  0.80069  0.68402  0.98695  1.0000
  H   H1711     1.0  0.80363  0.51927  0.81074  1.0000
  H   H1712     1.0  0.75211  0.66331  0.98844  1.0000
  Fe  Fe143     1.0  0.96997  0.75723  0.00053  1.0000
  H   H1713     1.0  0.61183  0.97762  0.87770  1.0000
  C   C1004     1.0  0.62985  0.97868  0.87013  1.0000
  H   H1714     1.0  0.95589  0.54654  0.94139  1.0000
  H   H1715     1.0  0.98441  0.70034  0.93126  1.0000
  N   N72       1.0  0.97281  0.57020  0.90149  1.0000
  C   C1005     1.0  0.99041  0.54017  0.88407  1.0000
  H   H1716     1.0  0.82347  0.61025  0.75709  1.0000
  H   H1717     1.0  0.97624  0.60410  0.85645  1.0000
  H   H1718     1.0  0.56434  0.52648  0.78272  1.0000
  H   H1719     1.0  0.63002  0.98560  0.80238  1.0000
  Fe  Fe144     1.0  0.75585  0.96424  0.00292  1.0000
  H   H1720     1.0  0.78708  0.50312  0.84969  1.0000
  H   H1721     1.0  0.64666  0.98813  0.88137  1.0000
  S   S287      1.0  0.94034  0.77495  0.99609  1.0000
  H   H1722     1.0  0.85516  0.78081  0.99215  1.0000
  S   S288      1.0  0.91732  0.50326  0.85915  1.0000
  H   H1723     1.0  0.98971  0.81497  0.97689  1.0000
  H   H1724     1.0  0.58900  0.50710  0.77041  1.0000
  H   H1725     1.0  0.99137  0.62925  0.90174  1.0000
  C   C1006     1.0  0.63443  0.99523  0.85098  1.0000
  C   C1007     1.0  0.98535  0.59571  0.86743  1.0000
  H   H1726     1.0  0.64965  0.50516  0.90547  1.0000
  H   H1727     1.0  0.97390  0.84161  0.98669  1.0000
  C   C1008     1.0  0.84269  0.96179  0.99013  1.0000
  H   H1728     1.0  0.53193  0.50615  0.75767  1.0000
