data_image0
_chemical_formula_structural       H4CH5CH3CH4CS2H2C6H4C6H4CSHC3H4SH2S2C6H3CFeH2CH3CHCH2CHCHCH3FeSH2CH2SHCHCHCH2CH6NC2H4NHC3HCHNC3HC2H4CH3SHNHCH4CHSCFe2SCH3CHSH3CSFeSFeSFeH2SH4CHC2HCSHFeS2H2FeSFeSFeS2FeS2FeSFeS3HCH4CSH2FeS2FeS2FeSFeS3FeS2FeS2FeS2FeSFeS3FeCFeS4NS2H2C4HSH2C2HC6H4C6H5C7H4C6H4C6H4C6H4C6H4CH2C4H3C3H2C6H9CHCHFeH3NC5H12C5H10NC5H14C3HNC6H15SH2CHC3HCH2CHSHSH3C2HCH9C3H4SCHCH4FeSH3C2HCHC2NH2CHCH3CHFeHCHC2H4CH2C2HCHCHNHSH3C2HC3H2NHC2FeH3CNH2CH5CHNHCH6CH3CH3FeCH3CHCHSFeCH3CH9SH5CH2CHNHFeC2H3CH6CHNC2H2C2H2SCHCNH2CHCH3SHCHCH2C4SH3CH2SH4CHC2H2CH3FeC2H2C3H3SCH3SHCH5C2H3FeSCHSHFeCFeS3CH5S3CH2Fe2S2C4H5C3H3C2H2SH2CHC3HSCH2CHCNH4CH4SHCFeHFeHSH3CH3CH2CH3CH3C3H2CH9CH4FeC3HCHCH3CH5C2HCH3CHCSCHCH4CH2SH6CH2CH6CHCFeHCH2C2H2C5HNC8H10CH9CHCH3CHC2HCNSCHCHC3HC2HC2NH3CHCHCH2SH2SH12S2CNHC2H3C2H3C2H3SC2H3NCNH2SH2NC3SC3H2CH2CH2FeS2FeS2FeSFeS3H2FeS2FeCFeSFeS2HSFeS2FeS2FeSFeS3HC3FeS2FeS2FeSFeS4C6H4C6H4C6H6C6H4C6H5C5H6CHC6H4C6H6CH4CHS3HC3H9C2H2CH8CH7CH4C3H3CNH3CH2CH5FeH2CHCH3CH4CH2NHCHC2H4CHCNC5H12CH2C2H4NC8H28SH2NCH2CH3CHCH9CH3NCH2CH2C2H4C3H3NH4NC3H2CNHC3HC2H2CHCH2CHCHNHSCH2CH7C2HCHSHCH2SCHCH2C6HSHC3H2FeCHC4HCH2NC4H4C2H2SCHC3H2CHC2H2CH3CHCSH12CH2CHCH3CH8C5H3C2H2FeH2FeHSCHC2H2CHCHFeHNH2CSHC2H2CH3CHCH2CH2CSCH2CH4C2HCNHCHCH4CHC2H2FeCH5FeHSFeS2HFeHS2H3SHFeSH3NFeS2FeS2FeSFeCS2FeS2FeSFeS2HFeS2FeS2FeSFeHS2H2NHCH2SHCH5CH5CHCHCHCH2CHCH2CH2CH2C6H4C3H2C7HC6H4CHCHC2HCH3CHNC7H3C7HCH3C5H4CHCHCH2CHC2NH8CH3C2H2CSCH4CHSNHCH3CH3C3HSHC2HC2HSCH3NC8H12FeH7CH5CNH4CHCHNC7FeH18SHSH3C2HFeH2SH2SHC2HSFeC2SC2H2CH3C2H5C2H2CH2C2HCNH3CHCH9CHSHCH2CH2C2H2CHCSH3C3HC2H2C2H3CH3C2HCHCH4FeS2FeS2FeSFeS3FeS2FeSCFeSFeS3CSFeS2FeS2FeSFeS4FeS2FeS2FeSFeS3FeS2FeHCHFeHS2HCH3SH4C6H4C7H3C6H4C6H4C6H4CH3C2HC6H4C6H4C6H4C4H4FeCHCHCHCH2C2H5CHCHCH5CSH5NSFeHC4H3CHCH3CH5FeH3CH2NHC2H8C2H4CH3SNH3FeHC2NC8H18C5H12NC2H2CH2CH8CHC2NH3C2HCHFeHC2HCH5C2HCHCHCH3C2H2NC8H11CHCH6NC8H21CHCHCH2SCHC2H7CHCNFeH4C2H3CH7NCH2CH4CH2CHCH8NHCNHCHC3H2CH3CH4SC2H2CHCH4CH11SH4C2H6CSH2C3HC2HNHSH3FeSFeHCHCHSCH2CH6SH2CH2CHCNH3CNC6HCHCH5C2H2FeH2SH2SH2CH2SCHSCFeHCHCH4CH4CH2SHC2HCHCFeS2HFeS2CH2FeSFeH4FeS2FeS2FeSFeS3H2C2H4S2HFeSFeSCHFeHSFeSCHCFeS3C3H2C6H5C5H3C2H3C4HCH4C2H2CHSC2HC6H6C6H3C6H4C7H4CH3CH2C2SH6C2H2CH5C2H2SH5SH5NH2C2H2SH2CH5CH2CFeH4C2H4CHCHNH3NC8H20CSCSCHNFeNC8H20CFeHS2HCS2C3HCH2NCHC2HCSHSH2CFeCHS2HCH5NHCHCS2CH2CH12NH2C2HCHCNCHC2HCH7FeHCSHFeSCHCHFeCH2C2SCH2CH2C3H7SCH3CH2C2HCFeH3CH7CH4NH2CHSCHCHFeCH3CH3NH6CHC2SFeSHFeSHFeSH2SFeHCH2SH5CHC5HC2H4S2CH2C7H4CH3C2H2CH2FeH4CHCSCFeCNCH2C2H2CHCH3SHCH4SCH5CH8FeHC7H3C2H4NC2H3NHCH4SNSCH2FeCHSHSCH2CH2CH4CH4CSCHCFeS2FeS2FeSFeHS2FeS2FeS2FeSFeS3FeH2SNFeSFeSHFeSFeS2FeS2FeS2FeSFeS3CSFeSHFeS2FeS2FeHFeSCSFeS2FeS2FeSFeS3C6H4C6H5CH4FeC6H4C2HC3H2C6H4C7H4C6H4C6H4C6H4C6H4C2H3C3H2C3H5NH2C2NH2NH3SNHC2HC2SH7SCH6C2H3CNC6H15NC2H2C2H3CH8CHSHC4HCH11CH7CHCH9SH3CH2CH2C2HCHCHCH2C2NH7CNC3H5SHCH5C3H6CHSCHC2H9C3H2FeSCH2NCSH3CNHCH2CSH5CH5C3HCFe2C2NH3C2HSH5C2H3CHFeCH5C3HSH5C2HSH2CSH4CHCH3CH3C2HCH2CH2SH4C3H2CHCHCH4CH5C2HCHNH2C2H2C2HFeH2CH2NH2C3H5CH2C4HCHCH7CHSH4CHC3H5SCH5CH2CHC2H8CHCFeCNCH2CH4SH5SH2CHS2CSHSFeSHCFeS2FeS2FeHFeCS2H2SHCHC2H3SCSHC2HCH2FeH2S2HC2FeCH2C2HC3H4C2H2NH3CHCH2CSH2SH2CH4C2H2C4HCH5C2HCHC7H8FeH4SH2CH4CHCHCHCH4CHSH2FeCH2CH2SCHCHCHCFeCHSHCH2C2Fe2H3FeSCH2NC3HSCH6CHSH3NCH2FeH5CH4CSH2CHC5FeH2CH3SCHCHSH3CH2CH3FeHNH2NC3H3CFeHCH2CHSC3H5C2HC2H3CH5CHC3HC2H3SCH3C4NH3CHCHSC2H4C2H3C3H2CHCHCHCH4CH3CH2CH2C2HCHCNCH2CH2CH7CH5CHSC2H3CHSHCHCHSFeS2FeS2FeSFeS3FeSHNSHFeSFeH2SH2S3FeSFeS2FeS2FeSFeS3HSFeS2FeS2FeSFeS3FeSHFeSHFeSFeS3CH4C6H4C6H5C4H5C6H4C6H4C6H6CH4C8H4C6H4C6H4C6H4C4H9NC5H10C2H7SC2H7CNC3HCSH2NC3HC2HCH7CH6C2FeHCHCHCH5CH3C2HC2HC3H2CH2C2HCHFeSCHCNC6H16SH4SH4C2HCFeCHNHSHCHCHC2HFeHCNH3CH6CH2CH4CHSHNC4H13NC8H21CSHCH8CHCH2C4H3C2H9C2H6FeNHCHSH3NCNFeSHCHC2HSH3CH2C2SC3H4SH2CHCH3NCH2CH2CSHC3H10CH2C2HFeHCH2CHCH6C3FeC3H4FeHC2HCH8SNCFeH2CH3C2H3C2H4FeH3CFeCH3C2HNCHCH2CHSCSH2CHSC3HSHCH3CH2SCH2CHCH3C2H2SHCSH3C2HSCH3CH2C2HCSHFeSHFeS2FeSFeS3HCHC2SH5C5HCH6CH5C6SCH2C2H2CHCH2CHC2H6C2FeH2C4H2SCHCHCHSCH7CNC3HSC2H3CH2NHCH2CH3NC6HCH4CH9C2H3FeNC8H6SH9CH4CH2SCFeC4HCSH2CH2NH4CH2SNH3SH3C3H2C2FeSH3CHCSH2FeNCH7FeC2HCH4SH4CH3SHFeS2FeS2FeSFeS3HFeS2FeS2FeS2FeSFeS3HCH2CH3FeH2FeSHSH3FeS2FeS2FeSFeS3HCSC3H4C6H6CH5C6H4C6HC7H3CHC9H4C6H4C6H4C6H4C2H6NC8H20CH8NC8H19CNCH5S2C3HNSH3CSC2H5CH2C2SCSHCHNFeCH2NH5CH4C2HSCH3C3H3CH2CH2C2HCH3NH2SCH3CH2SH2CH2CHSHFeHC2S2H3CH4SHC3HCHFeCH5NHCHCH2CH3C2H2CNH3CSHCH3CH2CH4CH2C2HCH9C2H3CHFeC2HCNHNC2H2FeCHFeH3CHCH9CH2CH2C2HCHSH3NH2CH5CHC2HCH3SNHSCHSH3NHSH2CHC2H2CH3NCH2CHCH4CH10C2H2CH3C2H2C2H2CHCH3CHCHCH4C2HCH2C2HSH2C2H3CH4CHCH5C3HCHNCHCHC2FeCSFeHSCFeHS2FeS2FeS2FeSFeS4H3CH7FeSHFeS2FeSCHS2FeHSCHSHFeS2FeSCHFeS3CFeS2FeSC2H2C6H4C6H4C6H6C3H4CNH3CH8C3NH3C2HC6H4C6H4C5FeH2CHC6H4C2H2C2H3CHCH4CHCH3FeHCFeCH2CHCHCHCH3CH3NH2CHC3H3NHCHC2HS3CHCHCH2CHCH3CSC2H5CH2CH6CH6CH2CH2CSNC8H15CH4NC2HSH3CH2CSCHC2H3SCH3C2HCHSHCH5NH3CHSHNC8H21CH8C2H6C3H3FeHC2H3CH3CH2SH5FeS2FeS2HFeS3FeS2FeS2FeSFeS3FeS2FeS2FeSFeS3HS2CSHFeHFeSCHFeS2FeS2FeSFeS3H2CSH3FeSC8H5C2H2C6H4C3H3CH2CNC6H4C6H5C4H5C6H4C6H4C3H4C6H4CHC4H5CHNC8H19CH8CH3C2S2HCH3SH2FeHC2H2CH3NC8H20CNC8H2CSH3CH2C3SCH2NC8H17CH2CHCH6SHC2H3CHCH7CHC5FeHSCH6C2H2FeHSCHSH2NH3CH2CHFeH4C3H2FeH5C3H4C3N2C2SHCH5C2NHNHC2H3CH6SHSCHCH2CH9FeHCH4CH2CH2C2SHCH6C2H6SCH3CH2C2HCH2C4H4CH3CHFeH4C2H3CH5CHFeS2H3CH3CHCS2HCHCNSH6CHCHCH2FeH4C2HSHFeCHCH3CH2SNH4CHFeH2C2H10CHSHCHS2CFeH2Fe2C2FeSFeSHCSHFeS2FeSFe2SFeS3FeS2FeS2FeSFeHS2FeHSH2CS2HFeSCFeSFeSH2S3FeSHFeSFeSHCFeSH2S2FeH4C6H4C6H2CHC6NH3SH5CH2C6H4C6H7C6H6CSHNC7H4C2HC3H3CHSH3CH2C2HCNHCH2C2H9CHCFeCHCHCH5CNC7H16CHC2H2C2HC2H3SH2C2HFeCH6C2H2FeCSH3C2H2CH2SH13C2H3CH3CH3NH5SHC2HC2HSH3SH2C2HCH2CH3CH3CH2CH2CH3CHCH2C2SCHCHCHSHCHNSHCH2SHNSHFeC2H4FeS2HC2H6NH4CHC2H8CH6NC2H2C2H2FeHCH3CH5CFeS2HCSHCH3CH3SHC6H5FeNHCH2C7H2CH4SHCHCH3S2H2C3HC2H6C2FeNC6HCH2SH8FeCFeHNH6NHSNH5SH2SH4NFeH2CH3C3HCHSH2C2HCSH4CH3CHCH2CHCHCHFeH5C2SCFeS2FeS2FeSFeS3H4SC2HFeSCSFeCSHSHSFeS2FeS2FeSFeS3FeS2FeS2FeSFeS3HSCSFeSFeHFeC6H5C5H3C6H5C6H4NH2C6H12FeC6H4C6H4C6H5NC2HC6H3CHC4H3NC8H21NC8H20C2S3H3FeH4C2HNH2SHS2HSCHC2NC8H17SNC7H9C2H5NC8H20CH2CHCSCH3CH4NC2H3FeHSCH2CNC8H20FeNCH2C2H2FeH2CFeC2HNH2CH2CHC2HCHSH6FeHC2H6CHCH5CHSH5C4H4CHCFeHCH3SCHCH2SHC2HSHC2HSH4C2H3CFeCHCH2SHCSHCH2CHCH3C2H2CH8FeHC4H2CH5CH10CHCSHCH3SH2SCFeS2H3FeSFeHSCFeS2FeS2FeSFeS3H2CHC2H2SHC3SFeSHFeSFeS2H2CH3SH2SH3CH3C3SC2H3CHCSHN2H2C2H2CH3C3H5C2H5C2H2CHCH6C4HC3H4CHCH3C6H4CH5CHCH6C4H2CHNH2CH2C2HFeHC2H2CH2C3HCH2SH2CH2FeH2SH3CHSH4SHNCHCHCH2NH3CHCH2SCHCH3CHC2HFeC4H2CH5CNCH4CH2CH2CHNC8H5NH2CFeCHFeHCH2CH5CHCHCH6FeHSH2C3HNH8FeSH4C2
_chemical_formula_sum              "H4608 C2688 S768 Fe384 N192"
_cell_length_a       133.778
_cell_length_b       66.5032
_cell_length_c       67.497
_cell_angle_alpha    74.0173
_cell_angle_beta     73.9634
_cell_angle_gamma    74.0375

_space_group_name_H-M_alt    "P 1"
_space_group_IT_number       1

loop_
  _space_group_symop_operation_xyz
  'x, y, z'

loop_
  _atom_site_type_symbol
  _atom_site_label
  _atom_site_symmetry_multiplicity
  _atom_site_fract_x
  _atom_site_fract_y
  _atom_site_fract_z
  _atom_site_occupancy
  H   H1        1.0  0.20160  0.00254  0.21135  1.0000
  H   H2        1.0  0.21030  0.08111  0.31089  1.0000
  H   H3        1.0  0.18413  0.06194  0.16701  1.0000
  H   H4        1.0  0.02732  0.41166  0.21904  1.0000
  C   C1        1.0  0.17822  0.05750  0.22948  1.0000
  H   H5        1.0  0.99863  0.48500  0.25400  1.0000
  H   H6        1.0  0.09849  0.28371  0.32116  1.0000
  H   H7        1.0  0.15988  0.14673  0.27681  1.0000
  H   H8        1.0  0.19967  0.10114  0.19185  1.0000
  H   H9        1.0  0.05967  0.37727  0.20111  1.0000
  C   C2        1.0  0.23189  0.06848  0.25800  1.0000
  H   H10       1.0  0.05745  0.43778  0.16694  1.0000
  H   H11       1.0  0.01882  0.46444  0.27385  1.0000
  H   H12       1.0  0.18046  0.04493  0.26239  1.0000
  C   C3        1.0  0.16371  0.14286  0.30718  1.0000
  H   H13       1.0  0.22114  0.02474  0.27633  1.0000
  H   H14       1.0  0.16758  0.04448  0.25896  1.0000
  H   H15       1.0  0.19272  0.03198  0.18950  1.0000
  H   H16       1.0  0.01156  0.44076  0.21571  1.0000
  C   C4        1.0  0.05992  0.39265  0.18935  1.0000
  S   S1        1.0  0.06124  0.38944  0.26039  1.0000
  S   S2        1.0  0.00327  0.37357  0.21925  1.0000
  H   H17       1.0  0.19576  0.03711  0.23734  1.0000
  H   H18       1.0  0.17366  0.13765  0.27627  1.0000
  C   C5        1.0  0.00864  0.37508  0.28310  1.0000
  C   C6        1.0  0.99831  0.37757  0.28039  1.0000
  C   C7        1.0  0.99660  0.37733  0.26084  1.0000
  C   C8        1.0  0.00524  0.37408  0.24393  1.0000
  C   C9        1.0  0.01560  0.37111  0.24675  1.0000
  C   C10       1.0  0.01730  0.37185  0.26621  1.0000
  H   H19       1.0  0.99492  0.41942  0.29268  1.0000
  H   H20       1.0  0.18581  0.13038  0.29946  1.0000
  H   H21       1.0  0.02231  0.36790  0.23395  1.0000
  H   H22       1.0  0.02529  0.36921  0.26843  1.0000
  C   C11       1.0  0.06237  0.41428  0.24310  1.0000
  C   C12       1.0  0.05476  0.43304  0.24620  1.0000
  C   C13       1.0  0.05558  0.45248  0.23152  1.0000
  C   C14       1.0  0.06415  0.45324  0.21403  1.0000
  C   C15       1.0  0.07183  0.43457  0.21118  1.0000
  C   C16       1.0  0.07089  0.41511  0.22556  1.0000
  H   H23       1.0  0.04826  0.43263  0.25988  1.0000
  H   H24       1.0  0.04974  0.46696  0.23403  1.0000
  H   H25       1.0  0.07847  0.43510  0.19771  1.0000
  H   H26       1.0  0.07679  0.40067  0.22313  1.0000
  C   C17       1.0  0.01103  0.47967  0.17119  1.0000
  S   S3        1.0  0.06545  0.47726  0.19547  1.0000
  H   H27       1.0  0.15533  0.15202  0.31059  1.0000
  C   C18       1.0  0.03202  0.42386  0.17939  1.0000
  C   C19       1.0  0.99819  0.45917  0.17249  1.0000
  C   C20       1.0  0.00852  0.46310  0.16564  1.0000
  H   H28       1.0  0.08342  0.49453  0.16474  1.0000
  H   H29       1.0  0.17642  0.07490  0.18782  1.0000
  H   H30       1.0  0.16853  0.03396  0.21928  1.0000
  H   H31       1.0  0.01457  0.45344  0.15571  1.0000
  S   S4        1.0  0.17368  0.05019  0.30969  1.0000
  H   H32       1.0  0.03974  0.41603  0.23672  1.0000
  H   H33       1.0  0.02146  0.40065  0.19409  1.0000
  S   S5        1.0  0.03132  0.41084  0.28603  1.0000
  S   S6        1.0  0.03388  0.49138  0.20681  1.0000
  C   C21       1.0  0.20975  0.07261  0.20603  1.0000
  C   C22       1.0  0.21228  0.05969  0.22490  1.0000
  C   C23       1.0  0.20637  0.06472  0.24424  1.0000
  C   C24       1.0  0.19810  0.08290  0.24471  1.0000
  C   C25       1.0  0.19588  0.09636  0.22579  1.0000
  C   C26       1.0  0.20160  0.09104  0.20646  1.0000
  H   H34       1.0  0.21861  0.04557  0.22463  1.0000
  H   H35       1.0  0.20826  0.05460  0.25877  1.0000
  H   H36       1.0  0.18952  0.11051  0.22608  1.0000
  C   C27       1.0  0.99260  0.48917  0.18963  1.0000
  Fe  Fe1       1.0  0.18950  0.05829  0.29385  1.0000
  H   H37       1.0  0.03672  0.44619  0.20099  1.0000
  H   H38       1.0  0.06688  0.38993  0.17613  1.0000
  C   C28       1.0  0.04967  0.44751  0.17347  1.0000
  H   H39       1.0  0.22314  0.08706  0.30308  1.0000
  H   H40       1.0  0.19013  0.01427  0.24620  1.0000
  H   H41       1.0  0.02036  0.41505  0.16814  1.0000
  C   C29       1.0  0.02617  0.40715  0.17841  1.0000
  H   H42       1.0  0.99723  0.44748  0.22066  1.0000
  C   C30       1.0  0.04966  0.40093  0.18066  1.0000
  H   H43       1.0  0.03546  0.38722  0.21278  1.0000
  H   H44       1.0  0.05140  0.46144  0.17694  1.0000
  C   C31       1.0  0.03574  0.40354  0.21361  1.0000
  H   H45       1.0  0.04715  0.38635  0.18056  1.0000
  C   C32       1.0  0.04113  0.40068  0.23189  1.0000
  H   H46       1.0  0.03758  0.38952  0.24588  1.0000
  C   C33       1.0  0.01986  0.46848  0.25646  1.0000
  H   H47       1.0  0.02578  0.43692  0.18567  1.0000
  H   H48       1.0  0.04917  0.43056  0.20526  1.0000
  H   H49       1.0  0.23018  0.03075  0.25102  1.0000
  Fe  Fe2       1.0  0.18182  0.01635  0.30670  1.0000
  S   S7        1.0  0.19729  0.02532  0.28876  1.0000
  H   H50       1.0  0.17114  0.06627  0.22269  1.0000
  H   H51       1.0  0.04973  0.39370  0.22826  1.0000
  C   C34       1.0  0.04382  0.43484  0.19412  1.0000
  H   H52       1.0  0.19250  0.10289  0.30512  1.0000
  H   H53       1.0  0.08842  0.31627  0.31711  1.0000
  S   S8        1.0  0.02415  0.48380  0.16202  1.0000
  H   H54       1.0  0.18182  0.00957  0.19640  1.0000
  C   C35       1.0  0.22959  0.02295  0.26794  1.0000
  H   H55       1.0  0.19412  0.05549  0.19493  1.0000
  C   C36       1.0  0.18824  0.04555  0.19719  1.0000
  H   H56       1.0  0.00419  0.42032  0.22200  1.0000
  C   C37       1.0  0.23618  0.03101  0.27843  1.0000
  H   H57       1.0  0.03165  0.39383  0.17144  1.0000
  H   H58       1.0  0.22515  0.06641  0.25272  1.0000
  C   C38       1.0  0.99015  0.47242  0.18419  1.0000
  H   H59       1.0  0.05190  0.40839  0.16357  1.0000
  H   H60       1.0  0.21506  0.09233  0.28380  1.0000
  H   H61       1.0  0.17071  0.06908  0.25841  1.0000
  H   H62       1.0  0.99636  0.44638  0.16802  1.0000
  H   H63       1.0  0.00091  0.47729  0.23014  1.0000
  H   H64       1.0  0.22999  0.08569  0.25865  1.0000
  N   N1        1.0  0.04056  0.41559  0.19214  1.0000
  C   C39       1.0  0.22200  0.05806  0.29423  1.0000
  C   C40       1.0  0.20311  0.01395  0.21879  1.0000
  H   H65       1.0  0.21589  0.05440  0.28825  1.0000
  H   H66       1.0  0.99568  0.42786  0.25720  1.0000
  H   H67       1.0  0.16475  0.11938  0.28768  1.0000
  H   H68       1.0  0.06162  0.40415  0.19640  1.0000
  N   N2        1.0  0.18390  0.03790  0.22047  1.0000
  H   H69       1.0  0.22203  0.04695  0.30990  1.0000
  C   C41       1.0  0.21754  0.08104  0.29798  1.0000
  C   C42       1.0  0.17999  0.05893  0.18392  1.0000
  C   C43       1.0  0.00307  0.49255  0.18349  1.0000
  H   H70       1.0  0.02852  0.46751  0.25009  1.0000
  C   C44       1.0  0.18638  0.11562  0.31204  1.0000
  H   H71       1.0  0.04482  0.45405  0.16133  1.0000
  N   N3        1.0  0.00474  0.45105  0.25637  1.0000
  C   C45       1.0  0.01625  0.45282  0.24806  1.0000
  C   C46       1.0  0.00345  0.43235  0.24941  1.0000
  C   C47       1.0  0.00248  0.44704  0.28018  1.0000
  H   H72       1.0  0.99153  0.43799  0.30942  1.0000
  C   C48       1.0  0.16567  0.13577  0.28614  1.0000
  C   C49       1.0  0.00423  0.43565  0.22555  1.0000
  H   H73       1.0  0.17367  0.05046  0.18536  1.0000
  H   H74       1.0  0.18355  0.06898  0.22529  1.0000
  H   H75       1.0  0.02166  0.43692  0.25172  1.0000
  H   H76       1.0  0.20744  0.02535  0.20641  1.0000
  C   C50       1.0  0.99794  0.47195  0.24746  1.0000
  H   H77       1.0  0.00944  0.41771  0.25430  1.0000
  H   H78       1.0  0.00948  0.43621  0.28629  1.0000
  H   H79       1.0  0.00118  0.46226  0.28538  1.0000
  S   S9        1.0  0.23142  0.00838  0.20857  1.0000
  H   H80       1.0  0.16879  0.15472  0.30373  1.0000
  N   N4        1.0  0.23276  0.05437  0.27944  1.0000
  H   H81       1.0  0.01575  0.48530  0.25133  1.0000
  C   C51       1.0  0.19290  0.02595  0.23166  1.0000
  H   H82       1.0  0.20857  0.00482  0.22944  1.0000
  H   H83       1.0  0.17492  0.10022  0.30900  1.0000
  H   H84       1.0  0.17339  0.01767  0.24160  1.0000
  H   H85       1.0  0.04853  0.45729  0.31710  1.0000
  C   C52       1.0  0.17595  0.02419  0.22439  1.0000
  H   H86       1.0  0.00643  0.48739  0.30417  1.0000
  S   S10       1.0  0.21622  0.06537  0.18187  1.0000
  C   C53       1.0  0.17972  0.00482  0.21386  1.0000
  Fe  Fe3       1.0  0.23069  0.03867  0.18351  1.0000
  Fe  Fe4       1.0  0.04770  0.39177  0.28856  1.0000
  S   S11       1.0  0.19018  0.08842  0.26881  1.0000
  C   C54       1.0  0.17407  0.05343  0.25367  1.0000
  H   H87       1.0  0.09696  0.48349  0.16412  1.0000
  H   H88       1.0  0.01813  0.45804  0.23056  1.0000
  H   H89       1.0  0.03529  0.43124  0.16274  1.0000
  C   C55       1.0  0.17573  0.10823  0.32065  1.0000
  H   H90       1.0  0.23594  0.02059  0.29446  1.0000
  S   S12       1.0  0.02520  0.45683  0.31445  1.0000
  H   H91       1.0  0.07016  0.34368  0.31733  1.0000
  H   H92       1.0  0.14973  0.11417  0.31162  1.0000
  H   H93       1.0  0.23282  0.00554  0.26872  1.0000
  C   C56       1.0  0.99300  0.43674  0.29277  1.0000
  S   S13       1.0  0.04882  0.40577  0.31424  1.0000
  Fe  Fe5       1.0  0.03182  0.42216  0.31390  1.0000
  S   S14       1.0  0.17558  0.00092  0.28775  1.0000
  Fe  Fe6       1.0  0.20109  0.01915  0.32044  1.0000
  S   S15       1.0  0.01041  0.37575  0.30786  1.0000
  Fe  Fe7       1.0  0.02563  0.38322  0.30975  1.0000
  H   H94       1.0  0.99160  0.37949  0.29348  1.0000
  H   H95       1.0  0.15968  0.09024  0.31930  1.0000
  S   S16       1.0  0.04212  0.36272  0.31022  1.0000
  H   H96       1.0  0.21749  0.45238  0.31767  1.0000
  H   H97       1.0  0.17312  0.99627  0.21789  1.0000
  H   H98       1.0  0.98861  0.37897  0.25907  1.0000
  H   H99       1.0  0.08182  0.35250  0.31692  1.0000
  C   C57       1.0  0.00413  0.47699  0.31931  1.0000
  H   H100      1.0  0.23700  0.06226  0.32043  1.0000
  C   C58       1.0  0.18833  0.10919  0.46352  1.0000
  C   C59       1.0  0.17708  0.43903  0.64894  1.0000
  H   H101      1.0  0.21287  0.23121  0.56416  1.0000
  C   C60       1.0  0.23170  0.40152  0.49142  1.0000
  S   S17       1.0  0.20914  0.34354  0.62100  1.0000
  H   H102      1.0  0.15376  0.30870  0.39436  1.0000
  Fe  Fe8       1.0  0.18057  0.37804  0.61879  1.0000
  S   S18       1.0  0.18816  0.35257  0.60043  1.0000
  S   S19       1.0  0.16433  0.39666  0.61380  1.0000
  H   H103      1.0  0.98742  0.49204  0.32304  1.0000
  H   H104      1.0  0.15473  0.16347  0.34059  1.0000
  Fe  Fe9       1.0  0.20281  0.36555  0.59319  1.0000
  S   S20       1.0  0.21121  0.37206  0.55909  1.0000
  Fe  Fe10      1.0  0.17943  0.04275  0.33979  1.0000
  S   S21       1.0  0.19479  0.39288  0.60930  1.0000
  Fe  Fe11      1.0  0.19977  0.33686  0.43931  1.0000
  S   S22       1.0  0.20551  0.30602  0.46097  1.0000
  S   S23       1.0  0.21208  0.35106  0.41280  1.0000
  Fe  Fe12      1.0  0.17674  0.33896  0.46098  1.0000
  S   S24       1.0  0.18059  0.30877  0.48461  1.0000
  S   S25       1.0  0.15922  0.35382  0.46655  1.0000
  Fe  Fe13      1.0  0.19407  0.32126  0.48649  1.0000
  S   S26       1.0  0.19742  0.31172  0.51894  1.0000
  Fe  Fe14      1.0  0.19162  0.29568  0.45751  1.0000
  S   S27       1.0  0.19146  0.26101  0.46192  1.0000
  S   S28       1.0  0.18926  0.35311  0.46536  1.0000
  S   S29       1.0  0.18681  0.32501  0.43328  1.0000
  H   H105      1.0  0.21959  0.39333  0.62508  1.0000
  C   C61       1.0  0.13475  0.27245  0.65489  1.0000
  H   H106      1.0  0.06743  0.41233  0.56718  1.0000
  H   H107      1.0  0.23691  0.38196  0.51911  1.0000
  H   H108      1.0  0.18928  0.11806  0.32493  1.0000
  H   H109      1.0  0.18510  0.40509  0.64970  1.0000
  C   C62       1.0  0.99823  0.45058  0.35874  1.0000
  S   S30       1.0  0.16857  0.05766  0.36692  1.0000
  H   H110      1.0  0.03151  0.39698  0.39469  1.0000
  H   H111      1.0  0.05080  0.44960  0.40591  1.0000
  Fe  Fe15      1.0  0.15160  0.18572  0.41025  1.0000
  S   S31       1.0  0.16761  0.18337  0.38811  1.0000
  S   S32       1.0  0.13765  0.19517  0.39484  1.0000
  Fe  Fe16      1.0  0.16108  0.17138  0.44913  1.0000
  S   S33       1.0  0.17786  0.16836  0.42998  1.0000
  S   S34       1.0  0.15664  0.16315  0.48477  1.0000
  Fe  Fe17      1.0  0.17136  0.19941  0.40950  1.0000
  S   S35       1.0  0.17863  0.22830  0.39499  1.0000
  Fe  Fe18      1.0  0.17244  0.15249  0.41052  1.0000
  S   S36       1.0  0.18364  0.12319  0.39967  1.0000
  S   S37       1.0  0.15499  0.20380  0.43025  1.0000
  S   S38       1.0  0.15605  0.15344  0.43099  1.0000
  Fe  Fe19      1.0  0.17710  0.18928  0.56990  1.0000
  S   S39       1.0  0.18350  0.18653  0.53592  1.0000
  S   S40       1.0  0.16390  0.21647  0.57888  1.0000
  Fe  Fe20      1.0  0.11838  0.33906  0.41584  1.0000
  S   S41       1.0  0.11597  0.30734  0.43675  1.0000
  S   S42       1.0  0.13509  0.34428  0.40220  1.0000
  Fe  Fe21      1.0  0.09478  0.35534  0.41384  1.0000
  S   S43       1.0  0.09050  0.32513  0.43514  1.0000
  S   S44       1.0  0.08356  0.38221  0.39643  1.0000
  Fe  Fe22      1.0  0.10153  0.32733  0.45411  1.0000
  S   S45       1.0  0.09708  0.31975  0.48985  1.0000
  Fe  Fe23      1.0  0.10532  0.30809  0.41596  1.0000
  S   S46       1.0  0.10470  0.28359  0.39923  1.0000
  S   S47       1.0  0.10462  0.35922  0.43440  1.0000
  S   S48       1.0  0.10893  0.33820  0.39354  1.0000
  Fe  Fe24      1.0  0.12214  0.33286  0.62012  1.0000
  C   C63       1.0  0.15584  0.36250  0.54195  1.0000
  Fe  Fe25      1.0  0.11687  0.33278  0.57932  1.0000
  S   S49       1.0  0.10071  0.32585  0.59547  1.0000
  S   S50       1.0  0.12392  0.33812  0.54435  1.0000
  S   S51       1.0  0.11502  0.35905  0.59591  1.0000
  S   S52       1.0  0.12547  0.30729  0.60207  1.0000
  N   N5        1.0  0.04444  0.44032  0.37229  1.0000
  S   S53       1.0  0.18609  0.00773  0.33860  1.0000
  S   S54       1.0  0.04779  0.35959  0.36603  1.0000
  H   H112      1.0  0.20049  0.26230  0.49499  1.0000
  H   H113      1.0  0.99598  0.44046  0.37407  1.0000
  C   C64       1.0  0.18320  0.25520  0.62252  1.0000
  C   C65       1.0  0.23619  0.37623  0.41361  1.0000
  C   C66       1.0  0.17828  0.48022  0.61806  1.0000
  C   C67       1.0  0.16901  0.30240  0.54555  1.0000
  H   H114      1.0  0.02500  0.45924  0.36030  1.0000
  S   S55       1.0  0.02501  0.39592  0.33777  1.0000
  H   H115      1.0  0.22481  0.45155  0.38868  1.0000
  H   H116      1.0  0.21387  0.45945  0.37583  1.0000
  C   C68       1.0  0.00886  0.44732  0.34766  1.0000
  C   C69       1.0  0.12371  0.20941  0.64415  1.0000
  H   H117      1.0  0.01478  0.43477  0.35450  1.0000
  C   C70       1.0  0.10547  0.32314  0.50421  1.0000
  C   C71       1.0  0.11303  0.33582  0.49478  1.0000
  C   C72       1.0  0.11893  0.33971  0.50713  1.0000
  C   C73       1.0  0.11726  0.33109  0.52893  1.0000
  C   C74       1.0  0.10996  0.31787  0.53821  1.0000
  C   C75       1.0  0.10405  0.31398  0.52589  1.0000
  H   H118      1.0  0.11412  0.34307  0.47811  1.0000
  H   H119      1.0  0.12451  0.35008  0.49998  1.0000
  H   H120      1.0  0.10876  0.31080  0.55492  1.0000
  H   H121      1.0  0.09826  0.30404  0.53325  1.0000
  C   C76       1.0  0.07376  0.37547  0.38796  1.0000
  C   C77       1.0  0.07152  0.38596  0.36807  1.0000
  C   C78       1.0  0.06355  0.38135  0.36118  1.0000
  C   C79       1.0  0.05758  0.36652  0.37435  1.0000
  C   C80       1.0  0.05971  0.35631  0.39439  1.0000
  C   C81       1.0  0.06786  0.36052  0.40106  1.0000
  H   H122      1.0  0.07614  0.39739  0.35778  1.0000
  H   H123      1.0  0.06217  0.38896  0.34556  1.0000
  H   H124      1.0  0.05512  0.34485  0.40471  1.0000
  H   H125      1.0  0.06946  0.35248  0.41650  1.0000
  H   H126      1.0  0.15536  0.32563  0.53619  1.0000
  C   C82       1.0  0.99339  0.47963  0.32998  1.0000
  C   C83       1.0  0.12864  0.21969  0.39717  1.0000
  C   C84       1.0  0.12784  0.23049  0.41290  1.0000
  C   C85       1.0  0.12066  0.25044  0.41368  1.0000
  C   C86       1.0  0.11412  0.25920  0.39901  1.0000
  C   C87       1.0  0.11483  0.24809  0.38368  1.0000
  C   C88       1.0  0.12206  0.22853  0.38270  1.0000
  H   H127      1.0  0.13260  0.22327  0.42466  1.0000
  H   H128      1.0  0.11998  0.25870  0.42589  1.0000
  H   H129      1.0  0.10974  0.25455  0.37251  1.0000
  H   H130      1.0  0.12253  0.22015  0.37071  1.0000
  C   C89       1.0  0.16377  0.17100  0.49871  1.0000
  C   C90       1.0  0.16044  0.16842  0.52071  1.0000
  C   C91       1.0  0.16627  0.17365  0.53230  1.0000
  C   C92       1.0  0.17557  0.18112  0.52193  1.0000
  C   C93       1.0  0.17886  0.18387  0.49992  1.0000
  C   C94       1.0  0.17291  0.17906  0.48830  1.0000
  H   H131      1.0  0.15335  0.16226  0.52883  1.0000
  H   H132      1.0  0.16368  0.17150  0.54928  1.0000
  H   H133      1.0  0.18606  0.18962  0.49184  1.0000
  H   H134      1.0  0.17552  0.18122  0.47136  1.0000
  C   C95       1.0  0.17925  0.10452  0.39167  1.0000
  C   C96       1.0  0.16852  0.10333  0.39671  1.0000
  C   C97       1.0  0.16538  0.08834  0.38973  1.0000
  C   C98       1.0  0.17290  0.07473  0.37736  1.0000
  C   C99       1.0  0.18364  0.07566  0.37279  1.0000
  C   C100      1.0  0.18679  0.09038  0.38000  1.0000
  H   H135      1.0  0.16264  0.11401  0.40586  1.0000
  H   H136      1.0  0.15707  0.08762  0.39352  1.0000
  H   H137      1.0  0.18955  0.06492  0.36382  1.0000
  H   H138      1.0  0.19512  0.09098  0.37632  1.0000
  C   C101      1.0  0.15257  0.35176  0.44828  1.0000
  C   C102      1.0  0.14156  0.35306  0.45410  1.0000
  C   C103      1.0  0.13613  0.35057  0.44014  1.0000
  C   C104      1.0  0.14168  0.34733  0.42005  1.0000
  C   C105      1.0  0.15266  0.34648  0.41403  1.0000
  C   C106      1.0  0.15811  0.34854  0.42817  1.0000
  H   H139      1.0  0.13725  0.35585  0.46951  1.0000
  H   H140      1.0  0.12764  0.35145  0.44480  1.0000
  H   H141      1.0  0.15697  0.34426  0.39841  1.0000
  H   H142      1.0  0.16655  0.34801  0.42334  1.0000
  C   C107      1.0  0.18739  0.25297  0.44327  1.0000
  C   C108      1.0  0.18763  0.26524  0.42274  1.0000
  C   C109      1.0  0.18488  0.25765  0.40792  1.0000
  C   C110      1.0  0.18167  0.23806  0.41378  1.0000
  C   C111      1.0  0.18104  0.22627  0.43453  1.0000
  C   C112      1.0  0.18403  0.23359  0.44917  1.0000
  H   H143      1.0  0.19024  0.28021  0.41811  1.0000
  H   H144      1.0  0.18538  0.26679  0.39185  1.0000
  H   H145      1.0  0.17853  0.21121  0.43916  1.0000
  H   H146      1.0  0.18381  0.22412  0.46507  1.0000
  C   C113      1.0  0.15627  0.37825  0.61870  1.0000
  H   H147      1.0  0.14744  0.31596  0.57098  1.0000
  H   H148      1.0  0.19030  0.48007  0.63343  1.0000
  C   C114      1.0  0.14279  0.34946  0.62905  1.0000
  C   C115      1.0  0.14087  0.36861  0.61413  1.0000
  C   C116      1.0  0.14754  0.38319  0.60918  1.0000
  C   C117      1.0  0.07155  0.39981  0.64807  1.0000
  H   H149      1.0  0.15441  0.37412  0.55209  1.0000
  H   H150      1.0  0.13408  0.37247  0.60699  1.0000
  H   H151      1.0  0.14593  0.39832  0.59814  1.0000
  C   C118      1.0  0.23025  0.36422  0.40923  1.0000
  C   C119      1.0  0.18462  0.28624  0.59387  1.0000
  C   C120      1.0  0.18808  0.29575  0.60612  1.0000
  H   H152      1.0  0.18400  0.29450  0.57792  1.0000
  H   H153      1.0  0.19022  0.31102  0.59940  1.0000
  C   C121      1.0  0.20747  0.35565  0.54734  1.0000
  C   C122      1.0  0.20533  0.36308  0.52705  1.0000
  C   C123      1.0  0.20237  0.34964  0.51785  1.0000
  C   C124      1.0  0.20154  0.32887  0.52906  1.0000
  C   C125      1.0  0.20368  0.32153  0.54928  1.0000
  C   C126      1.0  0.20664  0.33487  0.55839  1.0000
  H   H154      1.0  0.20576  0.37932  0.51864  1.0000
  H   H155      1.0  0.20061  0.35541  0.50229  1.0000
  H   H156      1.0  0.20297  0.30550  0.55803  1.0000
  H   H157      1.0  0.20832  0.32902  0.57403  1.0000
  H   H158      1.0  0.21741  0.39816  0.45176  1.0000
  H   H159      1.0  0.18366  0.36261  0.55396  1.0000
  H   H160      1.0  0.09340  0.38909  0.51765  1.0000
  H   H161      1.0  0.08218  0.30835  0.38473  1.0000
  H   H162      1.0  0.11735  0.39878  0.61281  1.0000
  C   C127      1.0  0.21402  0.21695  0.49322  1.0000
  H   H163      1.0  0.03853  0.42215  0.40348  1.0000
  C   C128      1.0  0.23397  0.33962  0.47549  1.0000
  H   H164      1.0  0.18296  0.47283  0.60454  1.0000
  Fe  Fe26      1.0  0.19983  0.36995  0.63802  1.0000
  H   H165      1.0  0.06163  0.42912  0.36715  1.0000
  H   H166      1.0  0.21307  0.44171  0.40180  1.0000
  H   H167      1.0  0.19878  0.23606  0.56790  1.0000
  N   N6        1.0  0.14862  0.27470  0.38542  1.0000
  C   C129      1.0  0.13883  0.29256  0.38734  1.0000
  C   C130      1.0  0.14913  0.25953  0.40657  1.0000
  C   C131      1.0  0.15875  0.28289  0.37628  1.0000
  C   C132      1.0  0.14552  0.26916  0.42633  1.0000
  C   C133      1.0  0.16096  0.29757  0.38797  1.0000
  H   H168      1.0  0.20700  0.37651  0.44435  1.0000
  H   H169      1.0  0.13149  0.28592  0.39314  1.0000
  H   H170      1.0  0.14406  0.24784  0.40969  1.0000
  H   H171      1.0  0.15733  0.24976  0.40662  1.0000
  H   H172      1.0  0.16580  0.26929  0.37589  1.0000
  H   H173      1.0  0.15939  0.29106  0.35935  1.0000
  H   H174      1.0  0.05184  0.42561  0.34550  1.0000
  H   H175      1.0  0.14748  0.25625  0.44002  1.0000
  H   H176      1.0  0.13675  0.27507  0.42996  1.0000
  H   H177      1.0  0.14951  0.28209  0.42507  1.0000
  H   H178      1.0  0.16507  0.28800  0.40088  1.0000
  H   H179      1.0  0.19098  0.43632  0.61512  1.0000
  C   C134      1.0  0.16349  0.32573  0.53738  1.0000
  C   C135      1.0  0.07983  0.36199  0.52573  1.0000
  C   C136      1.0  0.08330  0.35313  0.56104  1.0000
  C   C137      1.0  0.08059  0.37599  0.50317  1.0000
  C   C138      1.0  0.07337  0.34328  0.57050  1.0000
  H   H180      1.0  0.08496  0.34590  0.52426  1.0000
  H   H181      1.0  0.07153  0.35948  0.53120  1.0000
  H   H182      1.0  0.07158  0.34817  0.34060  1.0000
  H   H183      1.0  0.09020  0.33972  0.55776  1.0000
  H   H184      1.0  0.09916  0.36171  0.52580  1.0000
  H   H185      1.0  0.08902  0.37514  0.49454  1.0000
  H   H186      1.0  0.07684  0.36958  0.49411  1.0000
  H   H187      1.0  0.07324  0.33185  0.56132  1.0000
  H   H188      1.0  0.07001  0.28869  0.37859  1.0000
  H   H189      1.0  0.06586  0.35563  0.57120  1.0000
  N   N7        1.0  0.15143  0.27513  0.48805  1.0000
  C   C139      1.0  0.15997  0.27418  0.46808  1.0000
  C   C140      1.0  0.14061  0.27665  0.48425  1.0000
  C   C141      1.0  0.15581  0.23355  0.49636  1.0000
  C   C142      1.0  0.16120  0.29556  0.45240  1.0000
  C   C143      1.0  0.13503  0.29827  0.47229  1.0000
  H   H190      1.0  0.16794  0.26697  0.47205  1.0000
  H   H191      1.0  0.15883  0.26349  0.45917  1.0000
  H   H192      1.0  0.14108  0.26466  0.47518  1.0000
  H   H193      1.0  0.14873  0.23233  0.49164  1.0000
  H   H194      1.0  0.16294  0.23149  0.48334  1.0000
  H   H195      1.0  0.15729  0.21970  0.50966  1.0000
  H   H196      1.0  0.16484  0.30508  0.45851  1.0000
  H   H197      1.0  0.15364  0.30532  0.44835  1.0000
  H   H198      1.0  0.16674  0.29224  0.43748  1.0000
  H   H199      1.0  0.13727  0.29954  0.45498  1.0000
  H   H200      1.0  0.13628  0.31241  0.47602  1.0000
  H   H201      1.0  0.17915  0.32970  0.55479  1.0000
  H   H202      1.0  0.03667  0.40461  0.36720  1.0000
  H   H203      1.0  0.10750  0.28395  0.33687  1.0000
  C   C144      1.0  0.23239  0.38034  0.50824  1.0000
  C   C145      1.0  0.18957  0.23885  0.53390  1.0000
  C   C146      1.0  0.15869  0.33401  0.57310  1.0000
  H   H204      1.0  0.15809  0.10408  0.35221  1.0000
  N   N8        1.0  0.17927  0.09747  0.47209  1.0000
  C   C147      1.0  0.18339  0.07565  0.46678  1.0000
  C   C148      1.0  0.17613  0.09547  0.49575  1.0000
  C   C149      1.0  0.17018  0.11058  0.46179  1.0000
  C   C150      1.0  0.18651  0.07555  0.44301  1.0000
  C   C151      1.0  0.16984  0.07818  0.50896  1.0000
  C   C152      1.0  0.16043  0.10071  0.46589  1.0000
  H   H205      1.0  0.17755  0.06525  0.47391  1.0000
  H   H206      1.0  0.19046  0.06691  0.47367  1.0000
  H   H207      1.0  0.18337  0.09168  0.50237  1.0000
  H   H208      1.0  0.17133  0.11104  0.49968  1.0000
  H   H209      1.0  0.16704  0.12612  0.46677  1.0000
  H   H210      1.0  0.17295  0.11547  0.44438  1.0000
  H   H211      1.0  0.18955  0.05877  0.44099  1.0000
  H   H212      1.0  0.17953  0.08223  0.43555  1.0000
  H   H213      1.0  0.19293  0.08430  0.43432  1.0000
  H   H214      1.0  0.16745  0.07994  0.52564  1.0000
  H   H215      1.0  0.17482  0.06180  0.50904  1.0000
  H   H216      1.0  0.16241  0.07975  0.50400  1.0000
  H   H217      1.0  0.15418  0.10612  0.47923  1.0000
  H   H218      1.0  0.16224  0.08308  0.46877  1.0000
  H   H219      1.0  0.15700  0.10614  0.45159  1.0000
  S   S56       1.0  0.13383  0.33235  0.63852  1.0000
  H   H220      1.0  0.17669  0.09505  0.33474  1.0000
  H   H221      1.0  0.21154  0.43851  0.61022  1.0000
  C   C153      1.0  0.20630  0.41495  0.38557  1.0000
  H   H222      1.0  0.15441  0.24793  0.61562  1.0000
  C   C154      1.0  0.22861  0.41052  0.63413  1.0000
  C   C155      1.0  0.21517  0.37620  0.43592  1.0000
  C   C156      1.0  0.07451  0.39063  0.54556  1.0000
  H   H223      1.0  0.15386  0.38899  0.51499  1.0000
  C   C157      1.0  0.20389  0.45031  0.61322  1.0000
  H   H224      1.0  0.17163  0.36090  0.57327  1.0000
  H   H225      1.0  0.23166  0.37312  0.47128  1.0000
  C   C158      1.0  0.18659  0.26487  0.63489  1.0000
  H   H226      1.0  0.14131  0.34272  0.57539  1.0000
  S   S57       1.0  0.21816  0.00429  0.32212  1.0000
  H   H227      1.0  0.14440  0.31781  0.36075  1.0000
  S   S58       1.0  0.14309  0.18777  0.62649  1.0000
  H   H228      1.0  0.13638  0.30310  0.35460  1.0000
  H   H229      1.0  0.19595  0.09847  0.46701  1.0000
  H   H230      1.0  0.21559  0.23171  0.48142  1.0000
  C   C159      1.0  0.22314  0.42625  0.37591  1.0000
  C   C160      1.0  0.23021  0.41753  0.65061  1.0000
  H   H231      1.0  0.14974  0.29241  0.62580  1.0000
  C   C161      1.0  0.21490  0.26034  0.50477  1.0000
  H   H232      1.0  0.23022  0.42998  0.36367  1.0000
  H   H233      1.0  0.22646  0.41291  0.38804  1.0000
  H   H234      1.0  0.22225  0.38528  0.37439  1.0000
  H   H235      1.0  0.22418  0.38002  0.51774  1.0000
  H   H236      1.0  0.23338  0.41445  0.61836  1.0000
  H   H237      1.0  0.18979  0.11435  0.44597  1.0000
  H   H238      1.0  0.14937  0.12770  0.34181  1.0000
  H   H239      1.0  0.16783  0.33041  0.52077  1.0000
  H   H240      1.0  0.16474  0.29527  0.56139  1.0000
  C   C162      1.0  0.08205  0.31843  0.33143  1.0000
  C   C163      1.0  0.06836  0.30642  0.37516  1.0000
  C   C164      1.0  0.07621  0.34207  0.32645  1.0000
  H   H241      1.0  0.07581  0.33236  0.37033  1.0000
  H   H242      1.0  0.07659  0.30838  0.33157  1.0000
  H   H243      1.0  0.06400  0.31330  0.36218  1.0000
  H   H244      1.0  0.15051  0.30893  0.48614  1.0000
  S   S59       1.0  0.18861  0.19596  0.58470  1.0000
  C   C165      1.0  0.15408  0.25447  0.50386  1.0000
  H   H245      1.0  0.07370  0.33400  0.58684  1.0000
  C   C166      1.0  0.18206  0.26612  0.60207  1.0000
  H   H246      1.0  0.16144  0.25367  0.50892  1.0000
  H   H247      1.0  0.13489  0.27192  0.49929  1.0000
  H   H248      1.0  0.12627  0.29958  0.47730  1.0000
  H   H249      1.0  0.05726  0.45705  0.36591  1.0000
  Fe  Fe27      1.0  0.17509  0.22182  0.59536  1.0000
  S   S60       1.0  0.17689  0.25594  0.58658  1.0000
  H   H250      1.0  0.17134  0.12277  0.35457  1.0000
  H   H251      1.0  0.06653  0.38974  0.54425  1.0000
  H   H252      1.0  0.02576  0.42253  0.38060  1.0000
  C   C167      1.0  0.14755  0.26239  0.37060  1.0000
  C   C168      1.0  0.15587  0.24128  0.36877  1.0000
  H   H253      1.0  0.19313  0.13848  0.46215  1.0000
  C   C169      1.0  0.15171  0.29316  0.49729  1.0000
  H   H254      1.0  0.15977  0.29104  0.50025  1.0000
  C   C170      1.0  0.17141  0.11373  0.63806  1.0000
  C   C171      1.0  0.16240  0.13101  0.64742  1.0000
  N   N9        1.0  0.08273  0.37064  0.54142  1.0000
  H   H255      1.0  0.13241  0.26279  0.64660  1.0000
  H   H256      1.0  0.16911  0.29246  0.53468  1.0000
  C   C172      1.0  0.22096  0.39850  0.36046  1.0000
  H   H257      1.0  0.13846  0.30133  0.39934  1.0000
  C   C173      1.0  0.23616  0.34141  0.51877  1.0000
  H   H258      1.0  0.20917  0.40429  0.39970  1.0000
  H   H259      1.0  0.13957  0.25821  0.37541  1.0000
  H   H260      1.0  0.20122  0.20530  0.51688  1.0000
  C   C174      1.0  0.18693  0.12944  0.47189  1.0000
  H   H261      1.0  0.15410  0.23371  0.35773  1.0000
  Fe  Fe28      1.0  0.19369  0.33256  0.62958  1.0000
  H   H262      1.0  0.23588  0.35306  0.54646  1.0000
  C   C175      1.0  0.23094  0.35957  0.48501  1.0000
  H   H263      1.0  0.06286  0.31135  0.38950  1.0000
  C   C176      1.0  0.15887  0.15116  0.35221  1.0000
  C   C177      1.0  0.10850  0.38478  0.64394  1.0000
  H   H264      1.0  0.17910  0.14036  0.47107  1.0000
  H   H265      1.0  0.14769  0.25354  0.51851  1.0000
  H   H266      1.0  0.21634  0.22171  0.53153  1.0000
  H   H267      1.0  0.19521  0.41377  0.36704  1.0000
  C   C178      1.0  0.04554  0.43963  0.34962  1.0000
  H   H268      1.0  0.15820  0.14089  0.63465  1.0000
  H   H269      1.0  0.08477  0.35870  0.57383  1.0000
  C   C179      1.0  0.09362  0.37564  0.53173  1.0000
  C   C180      1.0  0.14767  0.32837  0.57884  1.0000
  H   H270      1.0  0.16409  0.24391  0.36235  1.0000
  C   C181      1.0  0.05664  0.43785  0.39725  1.0000
  H   H271      1.0  0.21576  0.39379  0.35297  1.0000
  C   C182      1.0  0.12683  0.40698  0.64748  1.0000
  H   H272      1.0  0.04875  0.40675  0.38725  1.0000
  N   N10       1.0  0.14663  0.26727  0.65339  1.0000
  H   H273      1.0  0.20466  0.44839  0.35657  1.0000
  S   S61       1.0  0.17155  0.16510  0.59849  1.0000
  H   H274      1.0  0.15986  0.36396  0.50761  1.0000
  H   H275      1.0  0.07640  0.39288  0.50311  1.0000
  H   H276      1.0  0.20786  0.42905  0.34094  1.0000
  C   C183      1.0  0.21830  0.44592  0.38604  1.0000
  C   C184      1.0  0.05524  0.44132  0.37449  1.0000
  H   H277      1.0  0.17788  0.47860  0.65062  1.0000
  C   C185      1.0  0.01184  0.46063  0.32803  1.0000
  C   C186      1.0  0.11554  0.22759  0.64640  1.0000
  C   C187      1.0  0.15964  0.37367  0.51878  1.0000
  H   H278      1.0  0.14809  0.27227  0.35426  1.0000
  H   H279      1.0  0.18795  0.12538  0.48841  1.0000
  N   N11       1.0  0.16304  0.34170  0.54989  1.0000
  H   H280      1.0  0.12559  0.41119  0.63122  1.0000
  C   C188      1.0  0.20325  0.25762  0.51004  1.0000
  C   C189      1.0  0.07904  0.38084  0.64494  1.0000
  Fe  Fe29      1.0  0.10925  0.30226  0.61958  1.0000
  H   H281      1.0  0.14040  0.23124  0.60055  1.0000
  H   H282      1.0  0.12572  0.26334  0.60418  1.0000
  H   H283      1.0  0.17565  0.10234  0.65004  1.0000
  C   C190      1.0  0.20773  0.22533  0.53863  1.0000
  N   N12       1.0  0.20110  0.23597  0.52224  1.0000
  H   H284      1.0  0.14782  0.35994  0.54295  1.0000
  H   H285      1.0  0.19845  0.27001  0.51908  1.0000
  C   C191      1.0  0.14353  0.29581  0.51806  1.0000
  H   H286      1.0  0.18778  0.25002  0.54463  1.0000
  H   H287      1.0  0.23097  0.40799  0.32897  1.0000
  H   H288      1.0  0.14364  0.31092  0.52194  1.0000
  H   H289      1.0  0.20222  0.45845  0.59737  1.0000
  H   H290      1.0  0.99093  0.39108  0.36205  1.0000
  C   C192      1.0  0.20620  0.23788  0.55580  1.0000
  H   H291      1.0  0.10217  0.26098  0.34104  1.0000
  N   N13       1.0  0.16606  0.12548  0.32615  1.0000
  H   H292      1.0  0.01996  0.45574  0.38852  1.0000
  C   C193      1.0  0.07853  0.31506  0.37061  1.0000
  H   H293      1.0  0.09522  0.39800  0.54884  1.0000
  H   H294      1.0  0.08770  0.35488  0.34498  1.0000
  H   H295      1.0  0.22232  0.36178  0.49261  1.0000
  H   H296      1.0  0.22921  0.41516  0.49947  1.0000
  H   H297      1.0  0.21598  0.26899  0.51570  1.0000
  H   H298      1.0  0.13529  0.29711  0.51673  1.0000
  C   C194      1.0  0.09906  0.38178  0.54588  1.0000
  H   H299      1.0  0.10739  0.38248  0.53730  1.0000
  H   H300      1.0  0.15310  0.14258  0.36445  1.0000
  H   H301      1.0  0.13560  0.40247  0.64624  1.0000
  C   C195      1.0  0.09362  0.34297  0.35319  1.0000
  H   H302      1.0  0.22043  0.20993  0.50215  1.0000
  H   H303      1.0  0.16614  0.30811  0.37665  1.0000
  H   H304      1.0  0.16434  0.31982  0.58009  1.0000
  Fe  Fe30      1.0  0.18184  0.17425  0.61429  1.0000
  C   C196      1.0  0.12524  0.24846  0.61557  1.0000
  H   H305      1.0  0.02172  0.48136  0.37183  1.0000
  H   H306      1.0  0.16752  0.37765  0.51575  1.0000
  H   H307      1.0  0.10740  0.41867  0.62517  1.0000
  C   C197      1.0  0.23158  0.38867  0.42880  1.0000
  H   H308      1.0  0.14552  0.28263  0.53151  1.0000
  C   C198      1.0  0.19828  0.40465  0.38135  1.0000
  H   H309      1.0  0.06928  0.41172  0.63459  1.0000
  S   S62       1.0  0.16934  0.20087  0.62654  1.0000
  Fe  Fe31      1.0  0.15936  0.19309  0.60899  1.0000
  C   C199      1.0  0.13351  0.23022  0.61340  1.0000
  H   H310      1.0  0.20598  0.25518  0.54933  1.0000
  H   H311      1.0  0.09091  0.34205  0.37047  1.0000
  H   H312      1.0  0.10341  0.40157  0.61461  1.0000
  C   C200      1.0  0.22105  0.38858  0.43998  1.0000
  H   H313      1.0  0.18128  0.23957  0.62888  1.0000
  H   H314      1.0  0.13206  0.28928  0.64666  1.0000
  H   H315      1.0  0.14570  0.32185  0.59609  1.0000
  H   H316      1.0  0.17828  0.34732  0.53013  1.0000
  H   H317      1.0  0.21428  0.20516  0.48409  1.0000
  H   H318      1.0  0.18732  0.25665  0.65082  1.0000
  H   H319      1.0  0.17404  0.44147  0.63447  1.0000
  H   H320      1.0  0.04189  0.47420  0.33528  1.0000
  H   H321      1.0  0.21654  0.27086  0.48887  1.0000
  S   S63       1.0  0.10653  0.32586  0.63965  1.0000
  H   H322      1.0  0.17147  0.37884  0.54771  1.0000
  H   H323      1.0  0.15782  0.34639  0.58202  1.0000
  H   H324      1.0  0.19134  0.40434  0.39497  1.0000
  H   H325      1.0  0.07646  0.40489  0.53325  1.0000
  H   H326      1.0  0.09968  0.36981  0.56082  1.0000
  C   C201      1.0  0.22083  0.39855  0.63789  1.0000
  H   H327      1.0  0.20175  0.38769  0.38021  1.0000
  H   H328      1.0  0.20154  0.42997  0.39066  1.0000
  C   C202      1.0  0.13761  0.30968  0.36693  1.0000
  H   H329      1.0  0.14677  0.09518  0.33560  1.0000
  N   N14       1.0  0.08668  0.31079  0.35091  1.0000
  H   H330      1.0  0.06864  0.38487  0.58025  1.0000
  Fe  Fe32      1.0  0.09946  0.35013  0.61409  1.0000
  C   C203      1.0  0.11631  0.24721  0.63228  1.0000
  C   C204      1.0  0.07271  0.39619  0.56726  1.0000
  H   H331      1.0  0.08012  0.39664  0.57121  1.0000
  H   H332      1.0  0.20595  0.20930  0.54692  1.0000
  H   H333      1.0  0.18786  0.22343  0.54413  1.0000
  C   C205      1.0  0.10025  0.27878  0.33713  1.0000
  H   H334      1.0  0.23491  0.38105  0.34215  1.0000
  H   H335      1.0  0.08426  0.27883  0.35458  1.0000
  H   H336      1.0  0.22109  0.24549  0.50425  1.0000
  H   H337      1.0  0.03545  0.45918  0.39547  1.0000
  H   H338      1.0  0.15393  0.27349  0.59822  1.0000
  H   H339      1.0  0.19735  0.22737  0.49673  1.0000
  C   C206      1.0  0.13276  0.21071  0.62782  1.0000
  H   H340      1.0  0.03961  0.47473  0.37056  1.0000
  N   N15       1.0  0.18697  0.44799  0.64380  1.0000
  C   C207      1.0  0.09605  0.32063  0.34814  1.0000
  C   C208      1.0  0.15162  0.34443  0.63813  1.0000
  H   H341      1.0  0.18053  0.23561  0.51256  1.0000
  H   H342      1.0  0.17326  0.25222  0.53076  1.0000
  C   C209      1.0  0.17418  0.34458  0.54710  1.0000
  C   C210      1.0  0.17510  0.36282  0.55611  1.0000
  H   H343      1.0  0.14182  0.26726  0.61430  1.0000
  H   H344      1.0  0.05628  0.42130  0.40637  1.0000
  S   S64       1.0  0.08495  0.37701  0.61898  1.0000
  C   C211      1.0  0.09065  0.28680  0.35408  1.0000
  H   H345      1.0  0.12388  0.42126  0.65464  1.0000
  C   C212      1.0  0.20289  0.22113  0.50766  1.0000
  N   N16       1.0  0.21559  0.41932  0.36745  1.0000
  H   H346      1.0  0.10106  0.34914  0.34819  1.0000
  H   H347      1.0  0.17741  0.30097  0.54585  1.0000
  C   C213      1.0  0.18115  0.24784  0.52026  1.0000
  H   H348      1.0  0.18266  0.26245  0.50827  1.0000
  C   C214      1.0  0.21971  0.36425  0.42028  1.0000
  H   H349      1.0  0.10093  0.32176  0.33173  1.0000
  H   H350      1.0  0.15551  0.22950  0.38403  1.0000
  H   H351      1.0  0.13042  0.32232  0.37059  1.0000
  S   S65       1.0  0.19261  0.14806  0.63288  1.0000
  H   H352      1.0  0.09297  0.28003  0.36964  1.0000
  C   C215      1.0  0.21135  0.43622  0.34984  1.0000
  H   H353      1.0  0.10150  0.31021  0.35858  1.0000
  C   C216      1.0  0.18887  0.28536  0.62681  1.0000
  H   H354      1.0  0.21805  0.46509  0.33703  1.0000
  H   H355      1.0  0.17006  0.47747  0.62231  1.0000
  C   C217      1.0  0.15213  0.27465  0.63078  1.0000
  C   C218      1.0  0.03654  0.45986  0.37838  1.0000
  C   C219      1.0  0.15843  0.35861  0.63272  1.0000
  C   C220      1.0  0.15660  0.11542  0.33723  1.0000
  S   S66       1.0  0.19247  0.29785  0.64288  1.0000
  H   H356      1.0  0.16190  0.15967  0.36060  1.0000
  H   H357      1.0  0.11428  0.37006  0.64005  1.0000
  H   H358      1.0  0.20543  0.46196  0.62029  1.0000
  C   C221      1.0  0.10932  0.40203  0.62320  1.0000
  H   H359      1.0  0.06471  0.43994  0.39653  1.0000
  H   H360      1.0  0.19907  0.42158  0.63337  1.0000
  S   S67       1.0  0.10602  0.26975  0.63633  1.0000
  H   H361      1.0  0.22773  0.44113  0.33197  1.0000
  H   H362      1.0  0.23382  0.35485  0.39725  1.0000
  H   H363      1.0  0.16408  0.28934  0.64920  1.0000
  H   H364      1.0  0.22812  0.34118  0.46595  1.0000
  C   C222      1.0  0.18358  0.47201  0.63724  1.0000
  H   H365      1.0  0.17748  0.12166  0.62598  1.0000
  C   C223      1.0  0.16831  0.13542  0.34167  1.0000
  C   C224      1.0  0.15032  0.26504  0.61413  1.0000
  H   H366      1.0  0.16091  0.27095  0.62901  1.0000
  H   H367      1.0  0.22760  0.34112  0.52547  1.0000
  C   C225      1.0  0.03335  0.41089  0.38183  1.0000
  H   H368      1.0  0.15968  0.23933  0.65482  1.0000
  H   H369      1.0  0.17475  0.14445  0.33402  1.0000
  H   H370      1.0  0.03825  0.43708  0.34682  1.0000
  Fe  Fe33      1.0  0.04209  0.37824  0.33605  1.0000
  C   C226      1.0  0.04818  0.45967  0.33298  1.0000
  C   C227      1.0  0.21925  0.44909  0.33356  1.0000
  H   H371      1.0  0.22555  0.40361  0.48243  1.0000
  H   H372      1.0  0.23360  0.32459  0.48761  1.0000
  C   C228      1.0  0.15317  0.10316  0.32486  1.0000
  C   C229      1.0  0.04155  0.42002  0.38691  1.0000
  C   C230      1.0  0.02522  0.46388  0.37463  1.0000
  H   H373      1.0  0.10066  0.38041  0.64725  1.0000
  H   H374      1.0  0.99498  0.41564  0.35057  1.0000
  H   H375      1.0  0.05607  0.46233  0.33252  1.0000
  S   S68       1.0  0.18482  0.35721  0.64888  1.0000
  C   C231      1.0  0.19507  0.43812  0.62664  1.0000
  H   H376      1.0  0.16516  0.35460  0.64002  1.0000
  H   H377      1.0  0.99349  0.40124  0.33366  1.0000
  H   H378      1.0  0.16654  0.14177  0.65064  1.0000
  S   S69       1.0  0.19475  0.05320  0.32378  1.0000
  H   H379      1.0  0.14359  0.23171  0.64276  1.0000
  C   C232      1.0  0.23177  0.39767  0.34466  1.0000
  H   H380      1.0  0.20788  0.44490  0.65220  1.0000
  H   H381      1.0  0.15315  0.32967  0.64967  1.0000
  H   H382      1.0  0.10668  0.42469  0.65470  1.0000
  H   H383      1.0  0.14569  0.11735  0.64726  1.0000
  H   H384      1.0  0.16845  0.10499  0.62983  1.0000
  C   C233      1.0  0.98999  0.40551  0.34918  1.0000
  C   C234      1.0  0.99046  0.46649  0.34978  1.0000
  H   H385      1.0  0.01058  0.44332  0.66746  1.0000
  H   H386      1.0  0.23324  0.11183  0.69782  1.0000
  H   H387      1.0  0.23024  0.39270  0.71564  1.0000
  Fe  Fe34      1.0  0.20335  0.03931  0.74258  1.0000
  S   S70       1.0  0.18595  0.04963  0.75677  1.0000
  C   C235      1.0  0.01927  0.47290  0.90587  1.0000
  H   H388      1.0  0.15455  0.16892  0.66216  1.0000
  S   S71       1.0  0.19327  0.08261  0.77581  1.0000
  H   H389      1.0  0.00767  0.45560  0.72528  1.0000
  Fe  Fe35      1.0  0.19171  0.04830  0.78547  1.0000
  C   C236      1.0  0.22481  0.14157  0.72357  1.0000
  Fe  Fe36      1.0  0.18913  0.08292  0.74563  1.0000
  S   S72       1.0  0.17812  0.11241  0.73107  1.0000
  S   S73       1.0  0.20887  0.03520  0.77222  1.0000
  S   S74       1.0  0.20610  0.07256  0.72934  1.0000
  C   C237      1.0  0.22498  0.06255  0.80184  1.0000
  H   H390      1.0  0.13400  0.11109  0.68456  1.0000
  H   H391      1.0  0.13080  0.25433  0.68783  1.0000
  H   H392      1.0  0.14546  0.27468  0.68350  1.0000
  H   H393      1.0  0.22405  0.44225  0.75528  1.0000
  H   H394      1.0  0.20987  0.15520  0.65683  1.0000
  S   S75       1.0  0.03677  0.42868  0.70983  1.0000
  S   S76       1.0  0.05412  0.45685  0.70638  1.0000
  S   S77       1.0  0.00376  0.39790  0.85992  1.0000
  C   C238      1.0  0.01164  0.44683  0.68182  1.0000
  H   H395      1.0  0.04692  0.44768  0.78854  1.0000
  H   H396      1.0  0.19384  0.42459  0.66866  1.0000
  Fe  Fe37      1.0  0.22869  0.01535  0.90717  1.0000
  Fe  Fe38      1.0  0.04601  0.46001  0.73962  1.0000
  S   S78       1.0  0.06554  0.39322  0.71180  1.0000
  S   S79       1.0  0.04598  0.42504  0.75189  1.0000
  C   C239      1.0  0.01220  0.41676  0.78801  1.0000
  C   C240      1.0  0.00694  0.40537  0.83228  1.0000
  C   C241      1.0  0.01759  0.40477  0.82159  1.0000
  C   C242      1.0  0.02020  0.41083  0.79946  1.0000
  H   H397      1.0  0.02380  0.39972  0.83044  1.0000
  H   H398      1.0  0.02841  0.41049  0.79132  1.0000
  H   H399      1.0  0.16134  0.28688  0.67695  1.0000
  H   H400      1.0  0.03697  0.40769  0.93134  1.0000
  H   H401      1.0  0.16554  0.26304  0.66672  1.0000
  C   C243      1.0  0.07021  0.38851  0.68600  1.0000
  C   C244      1.0  0.07749  0.36936  0.68291  1.0000
  C   C245      1.0  0.16066  0.27959  0.66455  1.0000
  H   H402      1.0  0.15559  0.15305  0.68830  1.0000
  H   H403      1.0  0.06153  0.41850  0.67077  1.0000
  H   H404      1.0  0.07983  0.35750  0.69636  1.0000
  C   C246      1.0  0.04347  0.46075  0.81633  1.0000
  C   C247      1.0  0.04570  0.46193  0.79444  1.0000
  H   H405      1.0  0.20760  0.06826  0.84591  1.0000
  H   H406      1.0  0.12717  0.28321  0.68457  1.0000
  S   S80       1.0  0.20931  0.01356  0.72386  1.0000
  H   H407      1.0  0.22506  0.46436  0.81717  1.0000
  H   H408      1.0  0.18413  0.08772  0.82350  1.0000
  C   C248      1.0  0.14881  0.28016  0.66641  1.0000
  H   H409      1.0  0.00739  0.47968  0.66719  1.0000
  C   C249      1.0  0.18187  0.12202  0.70367  1.0000
  C   C250      1.0  0.17694  0.14266  0.69434  1.0000
  C   C251      1.0  0.17993  0.15069  0.67247  1.0000
  H   H410      1.0  0.02291  0.46687  0.80373  1.0000
  S   S81       1.0  0.20442  0.37949  0.66358  1.0000
  C   C252      1.0  0.18977  0.10944  0.69105  1.0000
  H   H411      1.0  0.17086  0.15249  0.70409  1.0000
  H   H412      1.0  0.99109  0.47652  0.66389  1.0000
  C   C253      1.0  0.18578  0.02825  0.88893  1.0000
  H   H413      1.0  0.19346  0.09337  0.69797  1.0000
  C   C254      1.0  0.18540  0.07500  0.88505  1.0000
  N   N17       1.0  0.19344  0.06223  0.87006  1.0000
  H   H414      1.0  0.08981  0.41221  0.65567  1.0000
  H   H415      1.0  0.18159  0.01003  0.79399  1.0000
  H   H416      1.0  0.99040  0.47296  0.88740  1.0000
  H   H417      1.0  0.23687  0.36773  0.72879  1.0000
  C   C255      1.0  0.02030  0.47056  0.78876  1.0000
  H   H418      1.0  0.02121  0.45502  0.78462  1.0000
  H   H419      1.0  0.01663  0.49189  0.82108  1.0000
  H   H420      1.0  0.04297  0.44558  0.82729  1.0000
  H   H421      1.0  0.23382  0.41915  0.80693  1.0000
  S   S82       1.0  0.01524  0.42206  0.76032  1.0000
  H   H422      1.0  0.01100  0.44476  0.88023  1.0000
  C   C256      1.0  0.03578  0.42512  0.92418  1.0000
  Fe  Fe39      1.0  0.05269  0.42250  0.71786  1.0000
  H   H423      1.0  0.23136  0.02090  0.75506  1.0000
  Fe  Fe40      1.0  0.03017  0.43369  0.74288  1.0000
  H   H424      1.0  0.22624  0.12394  0.72841  1.0000
  S   S83       1.0  0.18516  0.03491  0.81967  1.0000
  H   H425      1.0  0.14179  0.15007  0.65959  1.0000
  H   H426      1.0  0.21939  0.05358  0.80169  1.0000
  H   H427      1.0  0.00196  0.44904  0.84977  1.0000
  C   C257      1.0  0.00158  0.41734  0.79872  1.0000
  H   H428      1.0  0.00909  0.43471  0.69590  1.0000
  H   H429      1.0  0.03644  0.44326  0.89169  1.0000
  H   H430      1.0  0.02145  0.40714  0.87539  1.0000
  C   C258      1.0  0.22886  0.02437  0.71220  1.0000
  H   H431      1.0  0.19436  0.09446  0.83099  1.0000
  H   H432      1.0  0.00405  0.47272  0.78754  1.0000
  C   C259      1.0  0.98906  0.48233  0.89905  1.0000
  H   H433      1.0  0.99377  0.44335  0.71631  1.0000
  H   H434      1.0  0.03347  0.41778  0.86537  1.0000
  H   H435      1.0  0.19955  0.03502  0.89322  1.0000
  C   C260      1.0  0.99235  0.46056  0.71628  1.0000
  H   H436      1.0  0.22941  0.09350  0.68796  1.0000
  H   H437      1.0  0.18069  0.09936  0.84592  1.0000
  H   H438      1.0  0.16711  0.11834  0.68299  1.0000
  C   C261      1.0  0.01960  0.43961  0.88068  1.0000
  C   C262      1.0  0.15408  0.10920  0.70733  1.0000
  C   C263      1.0  0.22964  0.05783  0.81948  1.0000
  H   H439      1.0  0.23074  0.36924  0.70732  1.0000
  H   H440      1.0  0.99537  0.42180  0.78992  1.0000
  C   C264      1.0  0.11280  0.34983  0.68282  1.0000
  H   H441      1.0  0.17749  0.07086  0.88843  1.0000
  H   H442      1.0  0.13844  0.22521  0.67108  1.0000
  H   H443      1.0  0.22516  0.15480  0.69031  1.0000
  H   H444      1.0  0.09808  0.37286  0.68358  1.0000
  H   H445      1.0  0.19514  0.07934  0.90442  1.0000
  H   H446      1.0  0.02031  0.44475  0.68065  1.0000
  H   H447      1.0  0.13991  0.13785  0.68647  1.0000
  H   H448      1.0  0.99387  0.43597  0.68265  1.0000
  H   H449      1.0  0.19427  0.05457  0.84044  1.0000
  C   C265      1.0  0.00640  0.45894  0.83593  1.0000
  H   H450      1.0  0.19912  0.16854  0.69902  1.0000
  H   H451      1.0  0.18951  0.05568  0.91537  1.0000
  H   H452      1.0  0.18414  0.09242  0.87782  1.0000
  H   H453      1.0  0.01082  0.47576  0.69127  1.0000
  Fe  Fe41      1.0  0.03751  0.46338  0.70144  1.0000
  C   C266      1.0  0.20350  0.15535  0.69064  1.0000
  C   C267      1.0  0.18291  0.00888  0.82538  1.0000
  C   C268      1.0  0.22637  0.10537  0.69820  1.0000
  H   H454      1.0  0.03721  0.41587  0.89561  1.0000
  C   C269      1.0  0.21759  0.12315  0.68933  1.0000
  H   H455      1.0  0.05079  0.35012  0.78161  1.0000
  C   C270      1.0  0.18700  0.08811  0.83733  1.0000
  H   H456      1.0  0.11956  0.26968  0.67670  1.0000
  H   H457      1.0  0.22125  0.44010  0.83248  1.0000
  H   H458      1.0  0.01212  0.46379  0.84182  1.0000
  C   C271      1.0  0.21900  0.15180  0.70510  1.0000
  H   H459      1.0  0.14545  0.11045  0.70974  1.0000
  H   H460      1.0  0.00653  0.45722  0.91094  1.0000
  H   H461      1.0  0.02719  0.47026  0.90942  1.0000
  H   H462      1.0  0.23277  0.14570  0.71888  1.0000
  H   H463      1.0  0.10861  0.22648  0.65920  1.0000
  C   C272      1.0  0.23513  0.43491  0.80708  1.0000
  C   C273      1.0  0.04664  0.48149  0.78026  1.0000
  H   H464      1.0  0.15012  0.24060  0.67911  1.0000
  C   C274      1.0  0.21259  0.05947  0.87474  1.0000
  H   H465      1.0  0.12119  0.34773  0.68373  1.0000
  H   H466      1.0  0.17918  0.41114  0.67550  1.0000
  H   H467      1.0  0.22499  0.41820  0.68357  1.0000
  C   C275      1.0  0.23516  0.08992  0.78429  1.0000
  H   H468      1.0  0.22171  0.13073  0.67346  1.0000
  C   C276      1.0  0.22787  0.07849  0.78413  1.0000
  S   S84       1.0  0.03951  0.47781  0.85126  1.0000
  C   C277      1.0  0.21630  0.40033  0.67472  1.0000
  H   H469      1.0  0.20210  0.08785  0.86145  1.0000
  C   C278      1.0  0.18160  0.00033  0.80974  1.0000
  H   H470      1.0  0.00328  0.39940  0.92553  1.0000
  H   H471      1.0  0.14344  0.17143  0.68371  1.0000
  H   H472      1.0  0.02598  0.47897  0.77614  1.0000
  H   H473      1.0  0.21078  0.11690  0.73276  1.0000
  C   C279      1.0  0.23540  0.37700  0.71311  1.0000
  H   H474      1.0  0.22765  0.04526  0.83296  1.0000
  H   H475      1.0  0.02306  0.45367  0.87140  1.0000
  S   S85       1.0  0.02955  0.46884  0.73381  1.0000
  H   H476      1.0  0.18108  0.06048  0.85566  1.0000
  H   H477      1.0  0.10524  0.41384  0.68186  1.0000
  H   H478      1.0  0.10669  0.37727  0.69705  1.0000
  H   H479      1.0  0.02220  0.39969  0.90979  1.0000
  H   H480      1.0  0.20138  0.17966  0.66212  1.0000
  H   H481      1.0  0.99311  0.47069  0.82183  1.0000
  C   C280      1.0  0.09182  0.41532  0.66927  1.0000
  H   H482      1.0  0.10906  0.33929  0.69719  1.0000
  H   H483      1.0  0.15550  0.12111  0.71443  1.0000
  C   C281      1.0  0.03276  0.42997  0.90257  1.0000
  H   H484      1.0  0.21446  0.16791  0.70790  1.0000
  H   H485      1.0  0.21472  0.01619  0.84093  1.0000
  H   H486      1.0  0.02281  0.42756  0.85213  1.0000
  H   H487      1.0  0.22346  0.09640  0.71427  1.0000
  H   H488      1.0  0.20247  0.44655  0.67890  1.0000
  H   H489      1.0  0.04326  0.43047  0.92194  1.0000
  C   C282      1.0  0.02467  0.42179  0.86803  1.0000
  H   H490      1.0  0.08746  0.35070  0.66037  1.0000
  C   C283      1.0  0.15032  0.15971  0.67693  1.0000
  Fe  Fe42      1.0  0.20998  0.06953  0.76044  1.0000
  H   H491      1.0  0.20122  0.02943  0.86832  1.0000
  C   C284      1.0  0.99904  0.46161  0.73114  1.0000
  H   H492      1.0  0.14478  0.29726  0.66232  1.0000
  H   H493      1.0  0.02985  0.43389  0.93563  1.0000
  C   C285      1.0  0.10395  0.41135  0.66714  1.0000
  C   C286      1.0  0.06715  0.40366  0.66855  1.0000
  H   H494      1.0  0.18853  0.01086  0.89521  1.0000
  H   H495      1.0  0.22828  0.00100  0.81411  1.0000
  C   C287      1.0  0.04201  0.47919  0.82399  1.0000
  C   C288      1.0  0.14558  0.22764  0.65834  1.0000
  C   C289      1.0  0.99893  0.41202  0.82083  1.0000
  C   C290      1.0  0.14618  0.14224  0.67253  1.0000
  C   C291      1.0  0.00542  0.41456  0.91546  1.0000
  H   H496      1.0  0.13737  0.08941  0.67167  1.0000
  N   N18       1.0  0.03677  0.35962  0.75340  1.0000
  C   C292      1.0  0.03686  0.37154  0.76944  1.0000
  C   C293      1.0  0.02599  0.36784  0.74773  1.0000
  C   C294      1.0  0.04530  0.36529  0.73418  1.0000
  C   C295      1.0  0.03903  0.33590  0.76291  1.0000
  C   C296      1.0  0.04753  0.36739  0.77608  1.0000
  C   C297      1.0  0.01634  0.36449  0.76619  1.0000
  C   C298      1.0  0.04628  0.35641  0.71479  1.0000
  C   C299      1.0  0.03548  0.32127  0.75304  1.0000
  H   H497      1.0  0.03447  0.38913  0.76347  1.0000
  H   H498      1.0  0.03092  0.36764  0.78434  1.0000
  H   H499      1.0  0.02528  0.36066  0.73538  1.0000
  H   H500      1.0  0.02480  0.38533  0.74054  1.0000
  H   H501      1.0  0.04417  0.38301  0.72883  1.0000
  H   H502      1.0  0.05333  0.35950  0.73796  1.0000
  H   H503      1.0  0.04770  0.32976  0.76247  1.0000
  H   H504      1.0  0.03503  0.33292  0.77997  1.0000
  H   H505      1.0  0.05354  0.37468  0.76321  1.0000
  H   H506      1.0  0.04619  0.37525  0.78943  1.0000
  C   C300      1.0  0.16047  0.11078  0.68421  1.0000
  H   H507      1.0  0.01487  0.37538  0.77702  1.0000
  H   H508      1.0  0.00905  0.36857  0.75978  1.0000
  H   H509      1.0  0.01719  0.34774  0.77533  1.0000
  H   H510      1.0  0.03888  0.36147  0.70872  1.0000
  H   H511      1.0  0.04911  0.33877  0.71787  1.0000
  H   H512      1.0  0.05249  0.36298  0.70176  1.0000
  H   H513      1.0  0.04179  0.30646  0.75198  1.0000
  H   H514      1.0  0.03399  0.32819  0.73701  1.0000
  H   H515      1.0  0.02828  0.31583  0.76357  1.0000
  C   C301      1.0  0.19290  0.11759  0.66932  1.0000
  H   H516      1.0  0.19210  0.00774  0.95031  1.0000
  C   C302      1.0  0.01477  0.45241  0.91346  1.0000
  H   H517      1.0  0.17104  0.40970  0.65919  1.0000
  H   H518      1.0  0.21919  0.06823  0.86838  1.0000
  H   H519      1.0  0.08800  0.40569  0.68421  1.0000
  C   C303      1.0  0.18816  0.07253  0.90641  1.0000
  H   H520      1.0  0.18345  0.00293  0.85814  1.0000
  C   C304      1.0  0.01703  0.41414  0.91546  1.0000
  C   C305      1.0  0.00609  0.47004  0.68364  1.0000
  H   H521      1.0  0.19054  0.15198  0.73123  1.0000
  C   C306      1.0  0.19791  0.14388  0.73723  1.0000
  N   N19       1.0  0.02105  0.43402  0.90307  1.0000
  S   S86       1.0  0.22344  0.08352  0.76060  1.0000
  C   C307      1.0  0.12778  0.26962  0.67744  1.0000
  H   H522      1.0  0.21829  0.45065  0.80685  1.0000
  C   C308      1.0  0.18890  0.06517  0.85105  1.0000
  H   H523      1.0  0.18136  0.08168  0.91638  1.0000
  C   C309      1.0  0.22932  0.43468  0.76670  1.0000
  C   C310      1.0  0.22321  0.00850  0.71528  1.0000
  C   C311      1.0  0.10651  0.37318  0.68221  1.0000
  H   H524      1.0  0.18031  0.03488  0.90238  1.0000
  C   C312      1.0  0.14076  0.09881  0.67847  1.0000
  C   C313      1.0  0.20549  0.12885  0.72304  1.0000
  H   H525      1.0  0.01749  0.41102  0.93231  1.0000
  C   C314      1.0  0.20371  0.07031  0.86234  1.0000
  C   C315      1.0  0.19558  0.03857  0.87992  1.0000
  N   N20       1.0  0.15453  0.12296  0.66694  1.0000
  H   H526      1.0  0.08818  0.43238  0.66982  1.0000
  H   H527      1.0  0.99070  0.41252  0.82900  1.0000
  H   H528      1.0  0.22439  0.42711  0.78148  1.0000
  C   C316      1.0  0.21212  0.01015  0.82983  1.0000
  H   H529      1.0  0.21600  0.04286  0.87258  1.0000
  C   C317      1.0  0.12194  0.38795  0.66146  1.0000
  H   H530      1.0  0.20054  0.11943  0.72013  1.0000
  C   C318      1.0  0.22400  0.41246  0.67090  1.0000
  H   H531      1.0  0.20482  0.00395  0.83794  1.0000
  H   H532      1.0  0.15727  0.09340  0.71691  1.0000
  S   S87       1.0  0.22563  0.48930  0.72365  1.0000
  H   H533      1.0  0.99355  0.48634  0.83911  1.0000
  H   H534      1.0  0.14420  0.08737  0.69153  1.0000
  S   S88       1.0  0.23600  0.43607  0.70537  1.0000
  H   H535      1.0  0.19536  0.13417  0.75326  1.0000
  H   H536      1.0  0.20997  0.05917  0.89182  1.0000
  H   H537      1.0  0.21192  0.11520  0.68653  1.0000
  H   H538      1.0  0.01969  0.47971  0.88878  1.0000
  H   H539      1.0  0.99964  0.42781  0.92217  1.0000
  H   H540      1.0  0.01058  0.44828  0.82480  1.0000
  H   H541      1.0  0.22713  0.46550  0.77372  1.0000
  H   H542      1.0  0.18136  0.02950  0.87686  1.0000
  H   H543      1.0  0.20173  0.15597  0.73888  1.0000
  H   H544      1.0  0.99660  0.45117  0.74678  1.0000
  H   H545      1.0  0.23563  0.42227  0.75969  1.0000
  H   H546      1.0  0.00435  0.41548  0.89949  1.0000
  S   S89       1.0  0.03278  0.48662  0.67254  1.0000
  S   S90       1.0  0.21158  0.01634  0.92415  1.0000
  C   C319      1.0  0.22432  0.44850  0.81613  1.0000
  N   N21       1.0  0.21161  0.13968  0.70234  1.0000
  H   H547      1.0  0.19912  0.10784  0.65968  1.0000
  C   C320      1.0  0.23394  0.45215  0.76981  1.0000
  C   C321      1.0  0.20059  0.45157  0.66298  1.0000
  H   H548      1.0  0.21146  0.39658  0.69045  1.0000
  H   H549      1.0  0.01368  0.44771  0.93093  1.0000
  H   H550      1.0  0.12355  0.38568  0.67738  1.0000
  C   C322      1.0  0.14936  0.10857  0.66107  1.0000
  C   C323      1.0  0.99848  0.47809  0.82619  1.0000
  H   H551      1.0  0.19736  0.14732  0.69014  1.0000
  H   H552      1.0  0.11257  0.34397  0.66915  1.0000
  H   H553      1.0  0.15108  0.21168  0.65969  1.0000
  C   C324      1.0  0.20779  0.16634  0.66766  1.0000
  C   C325      1.0  0.00874  0.48355  0.78901  1.0000
  H   H554      1.0  0.18462  0.44721  0.67703  1.0000
  H   H555      1.0  0.20990  0.02416  0.81725  1.0000
  H   H556      1.0  0.16433  0.09417  0.68206  1.0000
  S   S91       1.0  0.23475  0.01030  0.87416  1.0000
  C   C326      1.0  0.15099  0.24381  0.66169  1.0000
  C   C327      1.0  0.08188  0.36553  0.66249  1.0000
  H   H557      1.0  0.17620  0.16669  0.66539  1.0000
  H   H558      1.0  0.99770  0.47778  0.73415  1.0000
  H   H559      1.0  0.21468  0.17328  0.66613  1.0000
  N   N22       1.0  0.99444  0.47416  0.69424  1.0000
  C   C328      1.0  0.98779  0.47091  0.68102  1.0000
  N   N23       1.0  0.00315  0.49392  0.80757  1.0000
  H   H560      1.0  0.22463  0.04029  0.71420  1.0000
  H   H561      1.0  0.23676  0.47829  0.78873  1.0000
  S   S92       1.0  0.04990  0.48374  0.75280  1.0000
  H   H562      1.0  0.01387  0.48529  0.91438  1.0000
  H   H563      1.0  0.22054  0.14862  0.73755  1.0000
  N   N24       1.0  0.11025  0.38971  0.66312  1.0000
  C   C329      1.0  0.18800  0.13819  0.65996  1.0000
  C   C330      1.0  0.19112  0.44225  0.66374  1.0000
  C   C331      1.0  0.21463  0.39349  0.65822  1.0000
  S   S93       1.0  0.23566  0.04419  0.90135  1.0000
  C   C332      1.0  0.19501  0.99643  0.94006  1.0000
  C   C333      1.0  0.20470  0.99671  0.92546  1.0000
  C   C334      1.0  0.18261  0.99638  0.84588  1.0000
  H   H564      1.0  0.17050  0.44758  0.65991  1.0000
  H   H565      1.0  0.19887  0.46929  0.65908  1.0000
  C   C335      1.0  0.17831  0.41487  0.65891  1.0000
  H   H566      1.0  0.15538  0.09461  0.65605  1.0000
  H   H567      1.0  0.12682  0.37352  0.65544  1.0000
  C   C336      1.0  0.23706  0.06930  0.81936  1.0000
  H   H568      1.0  0.12305  0.19436  0.65525  1.0000
  H   H569      1.0  0.07620  0.56350  0.14286  1.0000
  Fe  Fe43      1.0  0.19971  0.60632  0.08163  1.0000
  S   S94       1.0  0.18730  0.59417  0.10910  1.0000
  S   S95       1.0  0.20562  0.59547  0.05087  1.0000
  Fe  Fe44      1.0  0.20086  0.64122  0.10128  1.0000
  S   S96       1.0  0.18846  0.63252  0.13011  1.0000
  S   S97       1.0  0.20878  0.66817  0.09697  1.0000
  Fe  Fe45      1.0  0.19719  0.59882  0.12897  1.0000
  S   S98       1.0  0.20046  0.57608  0.15915  1.0000
  Fe  Fe46      1.0  0.17978  0.62899  0.10759  1.0000
  S   S99       1.0  0.16273  0.64623  0.10837  1.0000
  S   S100      1.0  0.21034  0.60770  0.10158  1.0000
  S   S101      1.0  0.19146  0.64082  0.07882  1.0000
  H   H570      1.0  0.03225  0.60114  0.17029  1.0000
  H   H571      1.0  0.18965  0.75767  0.06985  1.0000
  Fe  Fe47      1.0  0.19007  0.91492  0.20918  1.0000
  S   S102      1.0  0.17503  0.90844  0.23233  1.0000
  S   S103      1.0  0.19101  0.94767  0.18858  1.0000
  Fe  Fe48      1.0  0.20303  0.87141  0.22507  1.0000
  C   C337      1.0  0.19486  0.76593  0.18858  1.0000
  Fe  Fe49      1.0  0.17997  0.87588  0.22371  1.0000
  S   S104      1.0  0.16785  0.85845  0.22120  1.0000
  Fe  Fe50      1.0  0.18552  0.89456  0.25581  1.0000
  S   S105      1.0  0.19424  0.88376  0.19863  1.0000
  S   S106      1.0  0.20016  0.90302  0.23322  1.0000
  H   H572      1.0  0.12141  0.57309  0.01924  1.0000
  S   S107      1.0  0.14582  0.73175  0.02912  1.0000
  Fe  Fe51      1.0  0.16717  0.75370  0.14272  1.0000
  S   S108      1.0  0.15238  0.76456  0.16584  1.0000
  S   S109      1.0  0.18161  0.73318  0.15435  1.0000
  Fe  Fe52      1.0  0.15813  0.78040  0.10479  1.0000
  S   S110      1.0  0.14265  0.79371  0.12515  1.0000
  S   S111      1.0  0.16190  0.78912  0.06911  1.0000
  Fe  Fe53      1.0  0.15291  0.79746  0.14525  1.0000
  S   S112      1.0  0.15198  0.82875  0.15483  1.0000
  Fe  Fe54      1.0  0.14379  0.75939  0.14356  1.0000
  S   S113      1.0  0.13109  0.73905  0.15633  1.0000
  S   S114      1.0  0.16819  0.78651  0.12321  1.0000
  S   S115      1.0  0.15881  0.74622  0.12208  1.0000
  H   H573      1.0  0.00491  0.50545  0.18775  1.0000
  C   C338      1.0  0.18101  0.78571  0.16789  1.0000
  C   C339      1.0  0.08658  0.74923  0.01972  1.0000
  C   C340      1.0  0.00548  0.52960  0.24797  1.0000
  Fe  Fe55      1.0  0.09638  0.64964  0.08247  1.0000
  S   S116      1.0  0.08760  0.66773  0.10800  1.0000
  S   S117      1.0  0.09283  0.66157  0.04982  1.0000
  Fe  Fe56      1.0  0.11269  0.62198  0.10844  1.0000
  S   S118      1.0  0.10501  0.63776  0.13589  1.0000
  S   S119      1.0  0.12827  0.59798  0.10748  1.0000
  Fe  Fe57      1.0  0.08971  0.63490  0.12965  1.0000
  S   S120      1.0  0.07721  0.62130  0.15675  1.0000
  Fe  Fe58      1.0  0.10377  0.66884  0.11156  1.0000
  S   S121      1.0  0.11006  0.69936  0.10537  1.0000
  S   S122      1.0  0.09765  0.61689  0.10373  1.0000
  S   S123      1.0  0.11228  0.65269  0.08451  1.0000
  S   S124      1.0  0.04558  0.57229  0.14339  1.0000
  C   C341      1.0  0.06829  0.60821  0.15266  1.0000
  C   C342      1.0  0.06215  0.59668  0.17023  1.0000
  C   C343      1.0  0.05529  0.58536  0.16760  1.0000
  C   C344      1.0  0.05427  0.58599  0.14734  1.0000
  C   C345      1.0  0.06017  0.59803  0.12980  1.0000
  C   C346      1.0  0.06727  0.60884  0.13240  1.0000
  H   H574      1.0  0.06283  0.59626  0.18595  1.0000
  H   H575      1.0  0.05070  0.57638  0.18125  1.0000
  H   H576      1.0  0.05937  0.59875  0.11408  1.0000
  H   H577      1.0  0.07188  0.61782  0.11875  1.0000
  C   C347      1.0  0.08211  0.62327  0.01566  1.0000
  C   C348      1.0  0.08493  0.64283  0.00518  1.0000
  C   C349      1.0  0.08781  0.65472  0.01614  1.0000
  C   C350      1.0  0.08795  0.64712  0.03762  1.0000
  C   C351      1.0  0.08485  0.62781  0.04833  1.0000
  C   C352      1.0  0.08194  0.61589  0.03733  1.0000
  H   H578      1.0  0.09712  0.57655  0.16087  1.0000
  H   H579      1.0  0.09009  0.66974  0.00784  1.0000
  H   H580      1.0  0.08482  0.62197  0.06497  1.0000
  H   H581      1.0  0.07971  0.60080  0.04554  1.0000
  C   C353      1.0  0.12561  0.72766  0.14178  1.0000
  C   C354      1.0  0.12756  0.73285  0.11971  1.0000
  C   C355      1.0  0.12290  0.72371  0.10889  1.0000
  C   C356      1.0  0.11646  0.70882  0.11988  1.0000
  C   C357      1.0  0.11474  0.70315  0.14193  1.0000
  C   C358      1.0  0.11916  0.71275  0.15279  1.0000
  H   H582      1.0  0.13245  0.74429  0.11101  1.0000
  H   H583      1.0  0.12421  0.72835  0.09186  1.0000
  H   H584      1.0  0.10971  0.69196  0.15065  1.0000
  H   H585      1.0  0.11756  0.70863  0.16985  1.0000
  H   H586      1.0  0.06930  0.51473  0.21360  1.0000
  H   H587      1.0  0.19551  0.74147  0.03951  1.0000
  C   C359      1.0  0.14956  0.74935  0.03948  1.0000
  C   C360      1.0  0.15612  0.76325  0.02669  1.0000
  C   C361      1.0  0.15989  0.77551  0.03586  1.0000
  C   C362      1.0  0.15687  0.77429  0.05772  1.0000
  C   C363      1.0  0.15009  0.76083  0.07035  1.0000
  C   C364      1.0  0.14655  0.74820  0.06128  1.0000
  H   H588      1.0  0.15860  0.76397  0.00989  1.0000
  H   H589      1.0  0.16525  0.78572  0.02608  1.0000
  H   H590      1.0  0.14766  0.75994  0.08716  1.0000
  H   H591      1.0  0.14157  0.73732  0.07125  1.0000
  C   C365      1.0  0.16460  0.84824  0.20246  1.0000
  C   C366      1.0  0.17028  0.84964  0.18143  1.0000
  C   C367      1.0  0.16677  0.84252  0.16707  1.0000
  C   C368      1.0  0.15775  0.83331  0.17367  1.0000
  C   C369      1.0  0.15226  0.83157  0.19477  1.0000
  C   C370      1.0  0.15565  0.83895  0.20897  1.0000
  H   H592      1.0  0.17724  0.85658  0.17611  1.0000
  H   H593      1.0  0.17087  0.84465  0.15065  1.0000
  H   H594      1.0  0.14510  0.82525  0.19998  1.0000
  H   H595      1.0  0.15113  0.83784  0.22509  1.0000
  H   H596      1.0  0.12725  0.81731  0.03467  1.0000
  C   C371      1.0  0.20274  0.85229  0.29166  1.0000
  C   C372      1.0  0.21598  0.97512  0.18024  1.0000
  C   C373      1.0  0.20578  0.97231  0.18112  1.0000
  C   C374      1.0  0.20391  0.95162  0.18529  1.0000
  C   C375      1.0  0.21232  0.93388  0.18781  1.0000
  H   H597      1.0  0.20841  0.93261  0.30838  1.0000
  H   H598      1.0  0.23069  0.86811  0.27664  1.0000
  H   H599      1.0  0.08277  0.50382  0.20260  1.0000
  H   H600      1.0  0.21105  0.91792  0.19035  1.0000
  H   H601      1.0  0.14191  0.57364  0.00978  1.0000
  H   H602      1.0  0.14558  0.63221  0.18276  1.0000
  C   C376      1.0  0.10766  0.74063  0.03190  1.0000
  H   H603      1.0  0.02114  0.57860  0.23674  1.0000
  C   C377      1.0  0.13788  0.61019  0.10994  1.0000
  C   C378      1.0  0.14862  0.59953  0.10781  1.0000
  C   C379      1.0  0.15636  0.61018  0.10794  1.0000
  C   C380      1.0  0.15334  0.63151  0.11006  1.0000
  C   C381      1.0  0.14261  0.64195  0.11246  1.0000
  C   C382      1.0  0.13492  0.63131  0.11252  1.0000
  H   H604      1.0  0.15098  0.58324  0.10562  1.0000
  H   H605      1.0  0.16465  0.60206  0.10582  1.0000
  H   H606      1.0  0.14020  0.65857  0.11359  1.0000
  H   H607      1.0  0.12671  0.63979  0.11401  1.0000
  C   C383      1.0  0.20115  0.68574  0.11341  1.0000
  C   C384      1.0  0.20609  0.69870  0.11904  1.0000
  C   C385      1.0  0.20006  0.71302  0.13194  1.0000
  C   C386      1.0  0.18904  0.71491  0.13864  1.0000
  C   C387      1.0  0.18406  0.70218  0.13283  1.0000
  C   C388      1.0  0.19013  0.68740  0.12042  1.0000
  H   H608      1.0  0.21460  0.69741  0.11367  1.0000
  H   H609      1.0  0.20393  0.72281  0.13649  1.0000
  H   H610      1.0  0.17556  0.70357  0.13814  1.0000
  H   H611      1.0  0.18624  0.67771  0.11583  1.0000
  H   H612      1.0  0.19019  0.78208  0.22539  1.0000
  H   H613      1.0  0.17274  0.79526  0.16863  1.0000
  C   C389      1.0  0.18275  0.93557  0.30504  1.0000
  H   H614      1.0  0.12200  0.72445  0.04473  1.0000
  H   H615      1.0  0.09978  0.69329  0.05820  1.0000
  H   H616      1.0  0.12049  0.75263  0.03565  1.0000
  H   H617      1.0  0.21031  0.61280  0.14651  1.0000
  C   C390      1.0  0.11604  0.73979  0.04408  1.0000
  H   H618      1.0  0.11200  0.73700  0.01625  1.0000
  S   S125      1.0  0.21938  0.85018  0.22132  1.0000
  S   S126      1.0  0.16582  0.60344  0.01420  1.0000
  S   S127      1.0  0.04494  0.53235  0.19907  1.0000
  H   H619      1.0  0.14599  0.94937  0.17563  1.0000
  C   C391      1.0  0.19462  0.59793  0.04038  1.0000
  C   C392      1.0  0.18515  0.59338  0.05386  1.0000
  C   C393      1.0  0.17642  0.59476  0.04559  1.0000
  H   H620      1.0  0.22307  0.62193  0.16141  1.0000
  H   H621      1.0  0.09175  0.57529  0.14008  1.0000
  H   H622      1.0  0.18458  0.58837  0.07068  1.0000
  H   H623      1.0  0.16915  0.59097  0.05618  1.0000
  H   H624      1.0  0.14827  0.56997  0.03090  1.0000
  H   H625      1.0  0.22085  0.97020  0.23553  1.0000
  H   H626      1.0  0.18345  0.54891  0.03366  1.0000
  H   H627      1.0  0.16069  0.90050  0.12890  1.0000
  H   H628      1.0  0.18461  0.92044  0.16536  1.0000
  C   C394      1.0  0.00852  0.60683  0.20806  1.0000
  C   C395      1.0  0.01499  0.64952  0.19977  1.0000
  H   H629      1.0  0.19435  0.85119  0.29858  1.0000
  H   H630      1.0  0.16842  0.88943  0.14864  1.0000
  C   C396      1.0  0.00655  0.58378  0.21415  1.0000
  H   H631      1.0  0.18700  0.61070  0.99337  1.0000
  H   H632      1.0  0.00350  0.52704  0.28129  1.0000
  H   H633      1.0  0.16900  0.95587  0.16613  1.0000
  H   H634      1.0  0.22448  0.91446  0.27118  1.0000
  H   H635      1.0  0.07092  0.51901  0.17655  1.0000
  H   H636      1.0  0.13003  0.79103  0.01458  1.0000
  H   H637      1.0  0.00623  0.61279  0.22294  1.0000
  H   H638      1.0  0.00331  0.57937  0.23144  1.0000
  C   C397      1.0  0.02851  0.58134  0.22486  1.0000
  H   H639      1.0  0.18465  0.74938  0.09743  1.0000
  H   H640      1.0  0.20151  0.96135  0.28441  1.0000
  H   H641      1.0  0.21735  0.90723  0.30986  1.0000
  H   H642      1.0  0.20616  0.97941  0.26185  1.0000
  H   H643      1.0  0.04102  0.59305  0.03670  1.0000
  H   H644      1.0  0.17515  0.65817  0.02658  1.0000
  H   H645      1.0  0.16136  0.96142  0.14588  1.0000
  C   C398      1.0  0.09322  0.51796  0.16175  1.0000
  H   H646      1.0  0.00953  0.59799  0.17042  1.0000
  H   H647      1.0  0.12981  0.84487  0.05816  1.0000
  H   H648      1.0  0.20407  0.70028  0.03198  1.0000
  H   H649      1.0  0.14604  0.59564  0.01392  1.0000
  C   C399      1.0  0.22246  0.93667  0.18679  1.0000
  C   C400      1.0  0.22404  0.95425  0.24486  1.0000
  C   C401      1.0  0.00057  0.52984  0.23207  1.0000
  H   H650      1.0  0.17240  0.80409  0.20068  1.0000
  H   H651      1.0  0.11546  0.61498  0.05472  1.0000
  H   H652      1.0  0.13521  0.81618  0.06362  1.0000
  C   C402      1.0  0.14253  0.58146  0.02175  1.0000
  N   N25       1.0  0.21555  0.94699  0.26355  1.0000
  H   H653      1.0  0.14262  0.91234  0.18524  1.0000
  H   H654      1.0  0.20269  0.86782  0.28004  1.0000
  H   H655      1.0  0.14005  0.80056  0.03460  1.0000
  C   C403      1.0  0.17709  0.60087  0.02380  1.0000
  H   H656      1.0  0.22141  0.87699  0.24702  1.0000
  H   H657      1.0  0.18245  0.96190  0.31844  1.0000
  C   C404      1.0  0.13276  0.65047  0.16775  1.0000
  H   H658      1.0  0.23043  0.81089  0.24282  1.0000
  H   H659      1.0  0.10434  0.58634  0.01535  1.0000
  H   H660      1.0  0.11121  0.64647  0.01751  1.0000
  H   H661      1.0  0.18796  0.81451  0.15817  1.0000
  H   H662      1.0  0.21592  0.56305  0.02407  1.0000
  Fe  Fe59      1.0  0.04058  0.54343  0.16751  1.0000
  H   H663      1.0  0.20169  0.93381  0.26824  1.0000
  H   H664      1.0  0.02110  0.64904  0.20826  1.0000
  C   C405      1.0  0.18851  0.54691  0.01792  1.0000
  H   H665      1.0  0.17066  0.89309  0.18168  1.0000
  C   C406      1.0  0.07296  0.53636  0.13713  1.0000
  H   H666      1.0  0.10488  0.61409  0.00988  1.0000
  H   H667      1.0  0.06493  0.53859  0.14765  1.0000
  H   H668      1.0  0.08758  0.54722  0.12985  1.0000
  C   C407      1.0  0.22269  0.59511  0.18802  1.0000
  H   H669      1.0  0.12182  0.65466  0.99720  1.0000
  H   H670      1.0  0.10829  0.57596  0.05067  1.0000
  H   H671      1.0  0.01352  0.66593  0.18975  1.0000
  H   H672      1.0  0.12510  0.85425  0.02728  1.0000
  C   C408      1.0  0.02445  0.59714  0.17929  1.0000
  H   H673      1.0  0.13304  0.61908  0.00101  1.0000
  H   H674      1.0  0.09687  0.51279  0.17581  1.0000
  N   N26       1.0  0.01958  0.60984  0.19633  1.0000
  H   H675      1.0  0.16208  0.93082  0.13910  1.0000
  C   C409      1.0  0.15444  0.94297  0.17716  1.0000
  H   H676      1.0  0.14724  0.84980  0.03246  1.0000
  C   C410      1.0  0.17798  0.97327  0.28833  1.0000
  C   C411      1.0  0.22043  0.92821  0.27896  1.0000
  H   H677      1.0  0.11455  0.57787  0.07057  1.0000
  H   H678      1.0  0.13000  0.63573  0.16917  1.0000
  H   H679      1.0  0.22680  0.93169  0.28423  1.0000
  H   H680      1.0  0.19242  0.68887  0.03768  1.0000
  C   C412      1.0  0.23040  0.82340  0.25026  1.0000
  H   H681      1.0  0.21739  0.99105  0.17728  1.0000
  C   C413      1.0  0.13720  0.83223  0.05769  1.0000
  N   N27       1.0  0.14997  0.66253  0.16576  1.0000
  C   C414      1.0  0.16181  0.65353  0.16297  1.0000
  C   C415      1.0  0.14529  0.67157  0.18534  1.0000
  C   C416      1.0  0.16545  0.63642  0.18173  1.0000
  C   C417      1.0  0.15515  0.69450  0.13560  1.0000
  C   C418      1.0  0.15026  0.68892  0.18771  1.0000
  H   H682      1.0  0.16639  0.66611  0.15961  1.0000
  H   H683      1.0  0.13670  0.67917  0.18617  1.0000
  H   H684      1.0  0.14521  0.65871  0.19996  1.0000
  H   H685      1.0  0.17430  0.63193  0.17812  1.0000
  H   H686      1.0  0.16297  0.64250  0.19647  1.0000
  H   H687      1.0  0.16266  0.62149  0.18427  1.0000
  H   H688      1.0  0.15161  0.70704  0.12323  1.0000
  H   H689      1.0  0.16292  0.68596  0.12753  1.0000
  H   H690      1.0  0.15637  0.70272  0.14660  1.0000
  H   H691      1.0  0.14635  0.70513  0.18006  1.0000
  H   H692      1.0  0.15896  0.68651  0.18156  1.0000
  H   H693      1.0  0.14913  0.68845  0.20475  1.0000
  C   C419      1.0  0.19920  0.74807  0.17592  1.0000
  H   H694      1.0  0.19850  0.75386  0.15922  1.0000
  H   H695      1.0  0.20782  0.74177  0.17578  1.0000
  C   C420      1.0  0.09303  0.73409  0.06255  1.0000
  C   C421      1.0  0.08266  0.72577  0.07230  1.0000
  H   H696      1.0  0.09082  0.75188  0.05961  1.0000
  H   H697      1.0  0.09756  0.72938  0.07531  1.0000
  H   H698      1.0  0.07669  0.73321  0.06234  1.0000
  H   H699      1.0  0.07908  0.73011  0.08791  1.0000
  N   N28       1.0  0.15209  0.66123  0.03939  1.0000
  C   C422      1.0  0.15951  0.66978  0.04670  1.0000
  C   C423      1.0  0.14144  0.67663  0.04183  1.0000
  C   C424      1.0  0.15662  0.66072  0.01636  1.0000
  C   C425      1.0  0.15159  0.63911  0.05274  1.0000
  C   C426      1.0  0.17128  0.65760  0.04346  1.0000
  C   C427      1.0  0.13608  0.67966  0.06450  1.0000
  C   C428      1.0  0.14915  0.65844  0.00369  1.0000
  C   C429      1.0  0.14286  0.62857  0.05183  1.0000
  H   H700      1.0  0.15939  0.68690  0.03872  1.0000
  H   H701      1.0  0.15687  0.66939  0.06393  1.0000
  H   H702      1.0  0.13565  0.67199  0.03602  1.0000
  H   H703      1.0  0.14218  0.69261  0.03161  1.0000
  H   H704      1.0  0.15948  0.67571  0.00774  1.0000
  H   H705      1.0  0.16374  0.64741  0.01454  1.0000
  H   H706      1.0  0.15922  0.62779  0.04859  1.0000
  H   H707      1.0  0.15097  0.63856  0.06960  1.0000
  H   H708      1.0  0.22707  0.56499  0.15371  1.0000
  H   H709      1.0  0.02657  0.57974  0.18570  1.0000
  H   H710      1.0  0.21261  0.92490  0.24849  1.0000
  H   H711      1.0  0.12794  0.68961  0.06478  1.0000
  H   H712      1.0  0.13524  0.66424  0.07562  1.0000
  H   H713      1.0  0.14034  0.68833  0.07023  1.0000
  H   H714      1.0  0.15204  0.82164  0.03708  1.0000
  H   H715      1.0  0.03152  0.60468  0.00863  1.0000
  H   H716      1.0  0.20648  0.83946  0.28260  1.0000
  H   H717      1.0  0.14572  0.61897  0.03956  1.0000
  H   H718      1.0  0.13520  0.63969  0.05006  1.0000
  H   H719      1.0  0.14088  0.61730  0.06709  1.0000
  H   H720      1.0  0.11010  0.70232  0.06188  1.0000
  H   H721      1.0  0.22190  0.56211  0.12305  1.0000
  H   H722      1.0  0.16483  0.64627  0.14886  1.0000
  H   H723      1.0  0.17680  0.92990  0.14608  1.0000
  H   H724      1.0  0.19525  0.73434  0.18328  1.0000
  H   H725      1.0  0.09076  0.54600  0.18459  1.0000
  H   H726      1.0  0.20001  0.77786  0.18199  1.0000
  H   H727      1.0  0.17578  0.66534  0.04966  1.0000
  S   S128      1.0  0.18915  0.86138  0.24967  1.0000
  H   H728      1.0  0.19634  0.75825  0.20467  1.0000
  H   H729      1.0  0.08407  0.70813  0.07498  1.0000
  N   N29       1.0  0.09986  0.72638  0.04303  1.0000
  C   C430      1.0  0.10558  0.70360  0.04990  1.0000
  H   H730      1.0  0.06782  0.54433  0.18258  1.0000
  H   H731      1.0  0.17666  0.70823  0.04341  1.0000
  C   C431      1.0  0.20937  0.85063  0.30780  1.0000
  H   H732      1.0  0.00497  0.53148  0.21588  1.0000
  H   H733      1.0  0.17902  0.80331  0.23063  1.0000
  H   H734      1.0  0.21626  0.83681  0.30632  1.0000
  C   C432      1.0  0.18657  0.73815  0.01883  1.0000
  H   H735      1.0  0.17537  0.68517  0.08107  1.0000
  C   C433      1.0  0.23442  0.95598  0.24940  1.0000
  H   H736      1.0  0.19129  0.69217  0.07731  1.0000
  H   H737      1.0  0.16828  0.73001  0.05382  1.0000
  H   H738      1.0  0.03469  0.57904  0.23389  1.0000
  H   H739      1.0  0.13107  0.66134  0.15276  1.0000
  H   H740      1.0  0.08006  0.56564  0.17561  1.0000
  H   H741      1.0  0.18580  0.80656  0.19261  1.0000
  H   H742      1.0  0.18137  0.77273  0.16018  1.0000
  H   H743      1.0  0.11715  0.67647  0.03952  1.0000
  H   H744      1.0  0.10905  0.69066  0.02128  1.0000
  C   C434      1.0  0.17469  0.71574  0.05714  1.0000
  H   H745      1.0  0.07910  0.52970  0.20996  1.0000
  H   H746      1.0  0.15691  0.97546  0.16671  1.0000
  H   H747      1.0  0.08417  0.76002  0.03088  1.0000
  N   N30       1.0  0.18328  0.77672  0.18970  1.0000
  C   C435      1.0  0.18178  0.78861  0.22406  1.0000
  H   H748      1.0  0.17926  0.75117  0.21617  1.0000
  H   H749      1.0  0.17679  0.77723  0.23415  1.0000
  C   C436      1.0  0.11329  0.69283  0.03225  1.0000
  H   H750      1.0  0.10339  0.75767  0.02824  1.0000
  H   H751      1.0  0.20691  0.91263  0.29628  1.0000
  C   C437      1.0  0.16960  0.70017  0.07638  1.0000
  C   C438      1.0  0.19833  0.69191  0.04452  1.0000
  H   H752      1.0  0.18205  0.75598  0.04277  1.0000
  H   H753      1.0  0.20273  0.67570  0.05105  1.0000
  H   H754      1.0  0.01362  0.57114  0.21042  1.0000
  H   H755      1.0  0.01740  0.61645  0.15219  1.0000
  C   C439      1.0  0.09324  0.72700  0.02799  1.0000
  C   C440      1.0  0.18065  0.79486  0.20089  1.0000
  C   C441      1.0  0.18725  0.74006  0.04070  1.0000
  H   H756      1.0  0.16571  0.70786  0.09000  1.0000
  H   H757      1.0  0.16314  0.69569  0.07230  1.0000
  H   H758      1.0  0.10658  0.61771  0.03896  1.0000
  N   N31       1.0  0.12276  0.60168  0.02686  1.0000
  H   H759      1.0  0.08800  0.71519  0.03467  1.0000
  H   H760      1.0  0.20845  0.97875  0.30001  1.0000
  H   H761      1.0  0.11242  0.74239  0.06030  1.0000
  H   H762      1.0  0.19118  0.72282  0.01461  1.0000
  N   N32       1.0  0.18406  0.72269  0.05946  1.0000
  C   C442      1.0  0.21076  0.57243  0.19025  1.0000
  C   C443      1.0  0.22521  0.84444  0.24313  1.0000
  C   C444      1.0  0.17634  0.96717  0.27134  1.0000
  H   H763      1.0  0.11967  0.70160  0.02333  1.0000
  H   H764      1.0  0.17765  0.74842  0.19191  1.0000
  C   C445      1.0  0.17658  0.76043  0.20141  1.0000
  N   N33       1.0  0.15821  0.92046  0.17349  1.0000
  H   H765      1.0  0.09838  0.72162  0.01359  1.0000
  C   C446      1.0  0.14750  0.67925  0.14645  1.0000
  C   C447      1.0  0.19331  0.70406  0.06251  1.0000
  C   C448      1.0  0.07443  0.53006  0.18082  1.0000
  H   H766      1.0  0.00254  0.61688  0.19866  1.0000
  C   C449      1.0  0.22531  0.86064  0.25265  1.0000
  C   C450      1.0  0.18831  0.80025  0.15236  1.0000
  H   H767      1.0  0.19668  0.79147  0.14849  1.0000
  H   H768      1.0  0.03134  0.56885  0.21548  1.0000
  C   C451      1.0  0.13451  0.80397  0.00707  1.0000
  H   H769      1.0  0.13942  0.68937  0.15019  1.0000
  C   C452      1.0  0.14478  0.64430  0.16786  1.0000
  H   H770      1.0  0.14138  0.83389  0.06909  1.0000
  H   H771      1.0  0.17281  0.74388  0.07865  1.0000
  C   C453      1.0  0.08711  0.55317  0.17059  1.0000
  H   H772      1.0  0.12942  0.62847  0.02485  1.0000
  C   C454      1.0  0.18052  0.73206  0.07892  1.0000
  H   H773      1.0  0.17902  0.71949  0.09343  1.0000
  N   N34       1.0  0.08378  0.53646  0.16397  1.0000
  H   H774      1.0  0.17683  0.94102  0.25771  1.0000
  S   S129      1.0  0.02364  0.53884  0.17969  1.0000
  C   C455      1.0  0.10934  0.59827  0.00689  1.0000
  H   H775      1.0  0.18552  0.80626  0.13730  1.0000
  H   H776      1.0  0.14730  0.67167  0.13388  1.0000
  C   C456      1.0  0.08047  0.54656  0.14313  1.0000
  H   H777      1.0  0.21760  0.98795  0.27624  1.0000
  H   H778      1.0  0.18513  0.92337  0.31823  1.0000
  H   H779      1.0  0.00041  0.58285  0.20639  1.0000
  H   H780      1.0  0.14884  0.63560  0.15483  1.0000
  H   H781      1.0  0.20000  0.70936  0.06490  1.0000
  H   H782      1.0  0.18540  0.56101  0.00632  1.0000
  H   H783      1.0  0.15345  0.89005  0.18791  1.0000
  C   C457      1.0  0.16445  0.76950  0.20764  1.0000
  C   C458      1.0  0.13172  0.58707  0.03691  1.0000
  H   H784      1.0  0.23307  0.96701  0.25992  1.0000
  C   C459      1.0  0.20808  0.58487  0.17125  1.0000
  H   H785      1.0  0.16141  0.78449  0.19694  1.0000
  S   S130      1.0  0.18324  0.90217  0.28774  1.0000
  H   H786      1.0  0.12789  0.65772  0.18124  1.0000
  C   C460      1.0  0.11803  0.64077  0.00528  1.0000
  H   H787      1.0  0.14896  0.92768  0.14970  1.0000
  H   H788      1.0  0.23582  0.57448  0.13044  1.0000
  S   S131      1.0  0.01875  0.53236  0.24199  1.0000
  C   C461      1.0  0.18827  0.74345  0.08260  1.0000
  H   H789      1.0  0.17819  0.74049  0.01772  1.0000
  C   C462      1.0  0.12049  0.59060  0.01231  1.0000
  H   H790      1.0  0.16013  0.75750  0.20743  1.0000
  H   H791      1.0  0.16211  0.77167  0.22415  1.0000
  C   C463      1.0  0.18654  0.60557  0.01021  1.0000
  C   C464      1.0  0.22431  0.95721  0.18325  1.0000
  C   C465      1.0  0.13190  0.85357  0.01341  1.0000
  C   C466      1.0  0.07672  0.51903  0.20289  1.0000
  C   C467      1.0  0.02699  0.60425  0.21124  1.0000
  C   C468      1.0  0.17807  0.94545  0.27097  1.0000
  H   H792      1.0  0.15905  0.85222  0.00191  1.0000
  S   S132      1.0  0.07928  0.60756  0.00155  1.0000
  H   H793      1.0  0.19597  0.73248  0.08485  1.0000
  C   C469      1.0  0.18116  0.92956  0.28792  1.0000
  C   C470      1.0  0.21235  0.60303  0.16114  1.0000
  C   C471      1.0  0.15730  0.92051  0.15168  1.0000
  H   H794      1.0  0.22010  0.56778  0.21318  1.0000
  H   H795      1.0  0.18314  0.90196  0.15240  1.0000
  Fe  Fe60      1.0  0.02855  0.52529  0.21083  1.0000
  C   C472      1.0  0.09516  0.56527  0.15377  1.0000
  H   H796      1.0  0.10275  0.55441  0.14828  1.0000
  C   C473      1.0  0.19533  0.60408  0.01852  1.0000
  C   C474      1.0  0.04526  0.60066  0.02097  1.0000
  C   C475      1.0  0.21443  0.97379  0.28618  1.0000
  C   C476      1.0  0.10927  0.58686  0.05946  1.0000
  H   H797      1.0  0.17368  0.97928  0.25841  1.0000
  C   C477      1.0  0.14906  0.90720  0.21254  1.0000
  H   H798      1.0  0.13311  0.59401  0.04895  1.0000
  H   H799      1.0  0.22257  0.53393  0.17419  1.0000
  N   N35       1.0  0.14024  0.83338  0.01769  1.0000
  C   C478      1.0  0.12635  0.62212  0.01464  1.0000
  C   C479      1.0  0.04026  0.59862  0.00374  1.0000
  C   C480      1.0  0.11343  0.60648  0.04470  1.0000
  C   C481      1.0  0.20901  0.96531  0.27379  1.0000
  H   H800      1.0  0.22086  0.96186  0.29282  1.0000
  H   H801      1.0  0.14598  0.64380  0.01036  1.0000
  H   H802      1.0  0.01348  0.63821  0.17430  1.0000
  H   H803      1.0  0.09110  0.75727  0.00452  1.0000
  C   C482      1.0  0.21805  0.57752  0.19860  1.0000
  C   C483      1.0  0.20018  0.54575  0.01805  1.0000
  H   H804      1.0  0.20739  0.55851  0.19824  1.0000
  H   H805      1.0  0.05376  0.59220  0.01917  1.0000
  S   S133      1.0  0.04666  0.51101  0.15948  1.0000
  C   C484      1.0  0.21961  0.60816  0.16957  1.0000
  H   H806      1.0  0.14254  0.67267  0.00187  1.0000
  C   C485      1.0  0.01770  0.60046  0.16298  1.0000
  C   C486      1.0  0.17878  0.91629  0.15904  1.0000
  C   C487      1.0  0.16091  0.95954  0.16290  1.0000
  H   H807      1.0  0.17018  0.91552  0.19131  1.0000
  H   H808      1.0  0.23019  0.53451  0.19236  1.0000
  C   C488      1.0  0.14942  0.83134  0.99890  1.0000
  H   H809      1.0  0.15458  0.94322  0.19350  1.0000
  C   C489      1.0  0.23066  0.85566  0.26925  1.0000
  C   C490      1.0  0.16931  0.91087  0.17737  1.0000
  H   H810      1.0  0.02412  0.61467  0.22290  1.0000
  H   H811      1.0  0.15669  0.90424  0.21736  1.0000
  C   C491      1.0  0.15068  0.90716  0.18900  1.0000
  H   H812      1.0  0.14382  0.92234  0.21645  1.0000
  H   H813      1.0  0.14503  0.89405  0.22233  1.0000
  H   H814      1.0  0.23465  0.54655  0.11340  1.0000
  C   C492      1.0  0.16044  0.89835  0.14594  1.0000
  H   H815      1.0  0.12966  0.57140  0.04563  1.0000
  C   C493      1.0  0.98985  0.52834  0.23710  1.0000
  S   S134      1.0  0.23285  0.60031  0.19668  1.0000
  H   H816      1.0  0.04457  0.61759  0.02122  1.0000
  H   H817      1.0  0.09976  0.52308  0.14864  1.0000
  H   H818      1.0  0.15448  0.88844  0.15471  1.0000
  H   H819      1.0  0.20851  0.96130  0.22412  1.0000
  H   H820      1.0  0.13488  0.86815  0.01180  1.0000
  H   H821      1.0  0.14247  0.79633  0.99882  1.0000
  H   H822      1.0  0.10132  0.59241  0.06924  1.0000
  H   H823      1.0  0.22586  0.53557  0.13735  1.0000
  H   H824      1.0  0.07181  0.54475  0.12097  1.0000
  H   H825      1.0  0.00739  0.64751  0.21112  1.0000
  H   H826      1.0  0.20262  0.60790  0.00808  1.0000
  H   H827      1.0  0.22655  0.94326  0.23368  1.0000
  C   C494      1.0  0.18125  0.95738  0.30517  1.0000
  H   H828      1.0  0.02153  0.58854  0.15289  1.0000
  H   H829      1.0  0.02689  0.63574  0.17552  1.0000
  C   C495      1.0  0.21268  0.91995  0.29936  1.0000
  H   H830      1.0  0.18986  0.75111  0.00659  1.0000
  C   C496      1.0  0.01895  0.63315  0.18540  1.0000
  H   H831      1.0  0.19998  0.56024  0.02337  1.0000
  H   H832      1.0  0.18741  0.53206  0.01515  1.0000
  H   H833      1.0  0.03504  0.60704  0.20234  1.0000
  C   C497      1.0  0.22887  0.55005  0.12799  1.0000
  H   H834      1.0  0.19933  0.98609  0.17894  1.0000
  H   H835      1.0  0.15553  0.81652  0.00274  1.0000
  H   H836      1.0  0.22889  0.92282  0.18875  1.0000
  H   H837      1.0  0.20245  0.53196  0.03093  1.0000
  H   H838      1.0  0.19771  0.94802  0.23332  1.0000
  H   H839      1.0  0.17219  0.64074  0.05243  1.0000
  H   H840      1.0  0.12653  0.59174  0.99714  1.0000
  H   H841      1.0  0.21298  0.86494  0.30221  1.0000
  C   C498      1.0  0.09142  0.49786  0.15725  1.0000
  C   C499      1.0  0.20822  0.93917  0.25532  1.0000
  C   C500      1.0  0.20271  0.95565  0.23840  1.0000
  C   C501      1.0  0.99972  0.52733  0.26893  1.0000
  C   C502      1.0  0.13538  0.81387  0.02452  1.0000
  H   H842      1.0  0.07908  0.74726  0.01714  1.0000
  H   H843      1.0  0.04111  0.58126  0.00482  1.0000
  H   H844      1.0  0.19724  0.96941  0.24466  1.0000
  C   C503      1.0  0.14471  0.83442  0.03558  1.0000
  C   C504      1.0  0.22980  0.52606  0.18067  1.0000
  H   H845      1.0  0.11525  0.63686  0.99308  1.0000
  H   H846      1.0  0.09296  0.49894  0.13999  1.0000
  Fe  Fe61      1.0  0.14443  0.74159  0.99519  1.0000
  H   H847      1.0  0.18643  0.99310  0.21986  1.0000
  H   H848      1.0  0.22878  0.50973  0.18951  1.0000
  Fe  Fe62      1.0  0.03022  0.50512  0.17481  1.0000
  H   H849      1.0  0.20654  0.80970  0.31554  1.0000
  S   S135      1.0  0.23271  0.53001  0.29101  1.0000
  C   C505      1.0  0.23548  0.83436  0.27689  1.0000
  H   H850      1.0  0.07609  0.51921  0.13700  1.0000
  C   C506      1.0  0.98908  0.52527  0.27404  1.0000
  C   C507      1.0  0.22049  0.56160  0.00791  1.0000
  H   H851      1.0  0.22069  0.52787  0.01454  1.0000
  H   H852      1.0  0.23515  0.90193  0.23449  1.0000
  C   C508      1.0  0.23359  0.55950  0.14090  1.0000
  H   H853      1.0  0.22901  0.55938  0.00813  1.0000
  C   C509      1.0  0.23529  0.81831  0.26737  1.0000
  H   H854      1.0  0.20814  0.51040  0.00528  1.0000
  Fe  Fe63      1.0  0.04978  0.49964  0.19203  1.0000
  H   H855      1.0  0.11997  0.84916  0.99904  1.0000
  N   N36       1.0  0.20820  0.54422  0.99744  1.0000
  H   H856      1.0  0.13022  0.81553  0.99535  1.0000
  H   H857      1.0  0.05783  0.57085  0.99033  1.0000
  C   C510      1.0  0.21898  0.54214  0.00168  1.0000
  S   S136      1.0  0.23708  0.95963  0.18316  1.0000
  H   H858      1.0  0.21837  0.57683  0.99657  1.0000
  C   C511      1.0  0.12688  0.85695  0.99441  1.0000
  C   C512      1.0  0.20787  0.52420  0.99145  1.0000
  H   H859      1.0  0.23658  0.88768  0.20783  1.0000
  H   H860      1.0  0.04336  0.63983  0.98999  1.0000
  C   C513      1.0  0.15511  0.85028  0.99032  1.0000
  H   H861      1.0  0.08497  0.64877  0.98856  1.0000
  H   H862      1.0  0.11015  0.59931  0.98984  1.0000
  H   H863      1.0  0.12406  0.87439  0.98849  1.0000
  C   C514      1.0  0.23710  0.50293  0.30205  1.0000
  H   H864      1.0  0.23715  0.86537  0.18401  1.0000
  C   C515      1.0  0.19525  0.86964  0.33204  1.0000
  H   H865      1.0  0.18334  0.88759  0.35360  1.0000
  H   H866      1.0  0.20821  0.93546  0.35683  1.0000
  C   C516      1.0  0.22072  0.97629  0.32998  1.0000
  H   H867      1.0  0.19051  0.83435  0.33182  1.0000
  H   H868      1.0  0.23002  0.50673  0.33394  1.0000
  C   C517      1.0  0.18940  0.87228  0.35461  1.0000
  S   S137      1.0  0.22700  0.90343  0.34821  1.0000
  C   C518      1.0  0.21252  0.96587  0.34182  1.0000
  H   H869      1.0  0.19992  0.79646  0.34043  1.0000
  H   H870      1.0  0.02777  0.52838  0.64598  1.0000
  C   C519      1.0  0.21136  0.84542  0.34391  1.0000
  H   H871      1.0  0.20753  0.84204  0.36101  1.0000
  H   H872      1.0  0.19498  0.82752  0.35550  1.0000
  H   H873      1.0  0.19484  0.87329  0.36389  1.0000
  H   H874      1.0  0.18509  0.85928  0.36319  1.0000
  C   C520      1.0  0.21455  0.94346  0.34741  1.0000
  C   C521      1.0  0.22474  0.93140  0.34092  1.0000
  H   H875      1.0  0.20464  0.97505  0.34698  1.0000
  C   C522      1.0  0.19786  0.83060  0.33803  1.0000
  N   N37       1.0  0.20344  0.84909  0.33043  1.0000
  H   H876      1.0  0.21205  0.80386  0.33867  1.0000
  C   C523      1.0  0.20460  0.80907  0.33275  1.0000
  H   H877      1.0  0.17761  0.49781  0.61265  1.0000
  C   C524      1.0  0.23294  0.94177  0.32880  1.0000
  H   H878      1.0  0.21166  0.87919  0.34181  1.0000
  H   H879      1.0  0.21775  0.83096  0.34154  1.0000
  H   H880      1.0  0.01415  0.56125  0.65251  1.0000
  H   H881      1.0  0.22220  0.85961  0.35161  1.0000
  C   C525      1.0  0.21717  0.86369  0.33985  1.0000
  H   H882      1.0  0.19880  0.88387  0.32397  1.0000
  C   C526      1.0  0.23096  0.96425  0.32358  1.0000
  C   C527      1.0  0.23491  0.49579  0.32402  1.0000
  H   H883      1.0  0.22263  0.86557  0.32409  1.0000
  H   H884      1.0  0.18896  0.87120  0.32353  1.0000
  Fe  Fe64      1.0  0.15324  0.73629  0.94995  1.0000
  C   C528      1.0  0.23112  0.95440  0.86821  1.0000
  H   H885      1.0  0.04146  0.51305  0.81545  1.0000
  H   H886      1.0  0.09898  0.56610  0.88876  1.0000
  H   H887      1.0  0.21506  0.50261  0.97002  1.0000
  H   H888      1.0  0.05946  0.61359  0.98574  1.0000
  H   H889      1.0  0.19290  0.91550  0.77094  1.0000
  Fe  Fe65      1.0  0.18122  0.56590  0.95303  1.0000
  H   H890      1.0  0.18036  0.52601  0.86100  1.0000
  S   S138      1.0  0.19587  0.54074  0.94529  1.0000
  Fe  Fe66      1.0  0.16860  0.60918  0.93667  1.0000
  S   S139      1.0  0.15535  0.60830  0.96544  1.0000
  S   S140      1.0  0.16882  0.63540  0.90767  1.0000
  H   H891      1.0  0.18280  0.58666  0.88874  1.0000
  Fe  Fe67      1.0  0.15708  0.57438  0.96364  1.0000
  H   H892      1.0  0.12024  0.56580  0.97745  1.0000
  S   S141      1.0  0.18171  0.59893  0.95446  1.0000
  S   S142      1.0  0.16909  0.57643  0.93305  1.0000
  H   H893      1.0  0.01635  0.49567  0.70922  1.0000
  H   H894      1.0  0.02544  0.62359  0.96443  1.0000
  H   H895      1.0  0.04949  0.54706  0.70713  1.0000
  S   S143      1.0  0.13869  0.75739  0.93902  1.0000
  H   H896      1.0  0.03194  0.57814  0.66792  1.0000
  Fe  Fe68      1.0  0.14007  0.77867  0.95870  1.0000
  S   S144      1.0  0.13900  0.81466  0.94733  1.0000
  H   H897      1.0  0.02518  0.52149  0.72365  1.0000
  H   H898      1.0  0.05508  0.51043  0.70096  1.0000
  H   H899      1.0  0.22373  0.90792  0.91234  1.0000
  N   N38       1.0  0.23287  0.91078  0.93303  1.0000
  Fe  Fe69      1.0  0.18566  0.88191  0.90703  1.0000
  S   S145      1.0  0.19528  0.88600  0.87351  1.0000
  S   S146      1.0  0.18137  0.84990  0.92519  1.0000
  Fe  Fe70      1.0  0.18842  0.92455  0.91161  1.0000
  S   S147      1.0  0.19808  0.93172  0.87899  1.0000
  S   S148      1.0  0.18481  0.94784  0.93269  1.0000
  Fe  Fe71      1.0  0.18614  0.92027  0.86975  1.0000
  S   S149      1.0  0.18087  0.93870  0.83947  1.0000
  Fe  Fe72      1.0  0.20639  0.89737  0.88540  1.0000
  C   C529      1.0  0.16328  0.68404  0.93728  1.0000
  S   S150      1.0  0.17558  0.91545  0.90232  1.0000
  S   S151      1.0  0.19764  0.89077  0.91913  1.0000
  Fe  Fe73      1.0  0.09814  0.61384  0.92476  1.0000
  S   S152      1.0  0.08899  0.64279  0.90634  1.0000
  S   S153      1.0  0.11321  0.59634  0.90690  1.0000
  Fe  Fe74      1.0  0.07447  0.63067  0.92668  1.0000
  S   S154      1.0  0.06052  0.63060  0.91306  1.0000
  Fe  Fe75      1.0  0.08855  0.65860  0.93225  1.0000
  S   S155      1.0  0.09392  0.69027  0.92283  1.0000
  S   S156      1.0  0.08383  0.60056  0.94349  1.0000
  H   H900      1.0  0.19504  0.97096  0.74871  1.0000
  Fe  Fe76      1.0  0.03597  0.54874  0.87413  1.0000
  S   S157      1.0  0.03025  0.51795  0.89013  1.0000
  S   S158      1.0  0.04815  0.55471  0.88937  1.0000
  Fe  Fe77      1.0  0.02400  0.55654  0.83857  1.0000
  S   S159      1.0  0.01765  0.52672  0.85210  1.0000
  S   S160      1.0  0.02003  0.57512  0.80708  1.0000
  Fe  Fe78      1.0  0.01440  0.53594  0.88290  1.0000
  S   S161      1.0  0.99891  0.53264  0.90621  1.0000
  Fe  Fe79      1.0  0.03391  0.51109  0.85786  1.0000
  H   H901      1.0  0.18120  0.51201  0.90627  1.0000
  S   S162      1.0  0.01956  0.56743  0.86934  1.0000
  S   S163      1.0  0.04081  0.54024  0.84199  1.0000
  H   H902      1.0  0.21856  0.91521  0.80422  1.0000
  H   H903      1.0  0.22469  0.51154  0.97707  1.0000
  N   N39       1.0  0.03260  0.54794  0.71941  1.0000
  H   H904      1.0  0.22782  0.95374  0.95788  1.0000
  C   C530      1.0  0.22441  0.91037  0.81380  1.0000
  H   H905      1.0  0.02945  0.52146  0.74596  1.0000
  H   H906      1.0  0.02488  0.59837  0.98345  1.0000
  S   S164      1.0  0.23018  0.52308  0.81740  1.0000
  H   H907      1.0  0.10411  0.59330  0.84867  1.0000
  C   C531      1.0  0.20836  0.98209  0.91212  1.0000
  H   H908      1.0  0.09265  0.62907  0.84777  1.0000
  H   H909      1.0  0.23264  0.95468  0.93034  1.0000
  H   H910      1.0  0.04590  0.51494  0.77713  1.0000
  H   H911      1.0  0.21888  0.50712  0.76070  1.0000
  H   H912      1.0  0.08507  0.56446  0.89409  1.0000
  C   C532      1.0  0.18783  0.51938  0.89571  1.0000
  H   H913      1.0  0.23323  0.98480  0.84748  1.0000
  H   H914      1.0  0.16711  0.57506  0.88347  1.0000
  H   H915      1.0  0.05089  0.64772  0.95138  1.0000
  H   H916      1.0  0.98881  0.49797  0.78059  1.0000
  H   H917      1.0  0.17909  0.97269  0.80252  1.0000
  C   C533      1.0  0.21325  0.56076  0.87709  1.0000
  H   H918      1.0  0.03130  0.63720  0.98603  1.0000
  C   C534      1.0  0.01423  0.54267  0.74250  1.0000
  H   H919      1.0  0.19667  0.52669  0.84300  1.0000
  C   C535      1.0  0.20133  0.95740  0.74354  1.0000
  H   H920      1.0  0.16526  0.53352  0.89423  1.0000
  C   C536      1.0  0.00759  0.54689  0.68457  1.0000
  H   H921      1.0  0.23409  0.94098  0.83210  1.0000
  H   H922      1.0  0.98868  0.53047  0.67890  1.0000
  C   C537      1.0  0.99270  0.51122  0.91007  1.0000
  H   H923      1.0  0.22442  0.97595  0.71396  1.0000
  C   C538      1.0  0.00833  0.52832  0.70047  1.0000
  H   H924      1.0  0.20588  0.92059  0.93213  1.0000
  H   H925      1.0  0.02818  0.54523  0.69186  1.0000
  C   C539      1.0  0.18425  0.54411  0.89055  1.0000
  H   H926      1.0  0.00291  0.52799  0.71555  1.0000
  H   H927      1.0  0.02764  0.59941  0.95578  1.0000
  C   C540      1.0  0.00761  0.57371  0.80373  1.0000
  H   H928      1.0  0.19058  0.55072  0.89252  1.0000
  H   H929      1.0  0.05943  0.61386  0.95981  1.0000
  C   C541      1.0  0.05681  0.60916  0.90762  1.0000
  C   C542      1.0  0.06155  0.58765  0.91444  1.0000
  C   C543      1.0  0.05866  0.57130  0.90896  1.0000
  C   C544      1.0  0.05092  0.57610  0.89681  1.0000
  C   C545      1.0  0.04600  0.59759  0.89044  1.0000
  C   C546      1.0  0.04892  0.61396  0.89584  1.0000
  H   H930      1.0  0.06758  0.58361  0.92359  1.0000
  H   H931      1.0  0.06251  0.55476  0.91402  1.0000
  H   H932      1.0  0.04003  0.60161  0.88113  1.0000
  H   H933      1.0  0.04513  0.63050  0.89058  1.0000
  C   C547      1.0  0.18059  0.96624  0.83473  1.0000
  C   C548      1.0  0.02905  0.60623  0.96781  1.0000
  C   C549      1.0  0.18149  0.97511  0.85053  1.0000
  H   H934      1.0  0.21250  0.89709  0.94741  1.0000
  H   H935      1.0  0.18130  0.96560  0.86638  1.0000
  C   C550      1.0  0.11048  0.71263  0.96192  1.0000
  C   C551      1.0  0.11045  0.72286  0.94085  1.0000
  C   C552      1.0  0.10521  0.71603  0.92921  1.0000
  C   C553      1.0  0.10027  0.69847  0.93826  1.0000
  C   C554      1.0  0.10054  0.68791  0.95918  1.0000
  C   C555      1.0  0.10546  0.69519  0.97103  1.0000
  C   C556      1.0  0.99994  0.56627  0.82101  1.0000
  H   H936      1.0  0.10498  0.72439  0.91308  1.0000
  C   C557      1.0  0.15048  0.82529  0.94229  1.0000
  C   C558      1.0  0.15935  0.81343  0.95061  1.0000
  C   C559      1.0  0.16859  0.82154  0.94553  1.0000
  C   C560      1.0  0.16911  0.84172  0.93218  1.0000
  C   C561      1.0  0.16013  0.85407  0.92446  1.0000
  C   C562      1.0  0.15083  0.84586  0.92954  1.0000
  H   H937      1.0  0.15912  0.79803  0.96106  1.0000
  H   H938      1.0  0.17545  0.81202  0.95184  1.0000
  H   H939      1.0  0.16041  0.86971  0.91424  1.0000
  H   H940      1.0  0.14398  0.85530  0.92318  1.0000
  C   C563      1.0  0.09059  0.57420  0.89412  1.0000
  H   H941      1.0  0.00910  0.49594  0.77404  1.0000
  C   C564      1.0  0.04229  0.64814  0.95762  1.0000
  H   H942      1.0  0.21922  0.91674  0.76844  1.0000
  C   C565      1.0  0.23480  0.88701  0.94212  1.0000
  C   C566      1.0  0.03482  0.55820  0.75206  1.0000
  H   H943      1.0  0.10642  0.57976  0.81766  1.0000
  C   C567      1.0  0.17561  0.54219  0.86264  1.0000
  H   H944      1.0  0.20205  0.93641  0.79544  1.0000
  H   H945      1.0  0.20242  0.90278  0.78770  1.0000
  H   H946      1.0  0.99429  0.58153  0.76467  1.0000
  C   C568      1.0  0.22859  0.89771  0.84843  1.0000
  H   H947      1.0  0.03899  0.64415  0.94616  1.0000
  N   N40       1.0  0.20693  0.94473  0.76113  1.0000
  C   C569      1.0  0.17432  0.57644  0.87055  1.0000
  C   C570      1.0  0.13469  0.56913  0.95405  1.0000
  C   C571      1.0  0.13919  0.57487  0.93251  1.0000
  C   C572      1.0  0.13263  0.58216  0.91780  1.0000
  C   C573      1.0  0.12157  0.58466  0.92477  1.0000
  C   C574      1.0  0.11712  0.57886  0.94629  1.0000
  C   C575      1.0  0.12370  0.57062  0.96084  1.0000
  H   H948      1.0  0.14769  0.57349  0.92721  1.0000
  H   H949      1.0  0.13607  0.58647  0.90113  1.0000
  H   H950      1.0  0.10858  0.58053  0.95172  1.0000
  C   C576      1.0  0.18908  0.98142  0.94184  1.0000
  C   C577      1.0  0.16803  0.66018  0.91301  1.0000
  C   C578      1.0  0.16390  0.66395  0.93344  1.0000
  C   C579      1.0  0.21268  0.95914  0.76546  1.0000
  C   C580      1.0  0.16707  0.70005  0.92080  1.0000
  C   C581      1.0  0.17122  0.69618  0.90046  1.0000
  C   C582      1.0  0.17153  0.67640  0.89651  1.0000
  H   H951      1.0  0.16120  0.65144  0.94625  1.0000
  C   C583      1.0  0.03180  0.56551  0.73025  1.0000
  H   H952      1.0  0.17418  0.70850  0.88772  1.0000
  H   H953      1.0  0.17475  0.67349  0.88073  1.0000
  H   H954      1.0  0.17279  0.60716  0.87788  1.0000
  C   C584      1.0  0.21569  0.53952  0.88811  1.0000
  C   C585      1.0  0.21070  0.53359  0.90942  1.0000
  C   C586      1.0  0.20311  0.54881  0.91962  1.0000
  C   C587      1.0  0.20086  0.57014  0.90875  1.0000
  C   C588      1.0  0.20592  0.57609  0.88752  1.0000
  H   H955      1.0  0.22118  0.52752  0.88009  1.0000
  H   H956      1.0  0.21242  0.51704  0.91775  1.0000
  H   H957      1.0  0.19502  0.58201  0.91649  1.0000
  H   H958      1.0  0.06483  0.61027  0.84385  1.0000
  C   C589      1.0  0.20226  0.96718  0.91363  1.0000
  H   H959      1.0  0.07739  0.60468  0.82534  1.0000
  C   C590      1.0  0.01578  0.52019  0.79699  1.0000
  H   H960      1.0  0.03086  0.57082  0.76129  1.0000
  C   C591      1.0  0.16477  0.53915  0.87740  1.0000
  H   H961      1.0  0.20400  0.59254  0.87906  1.0000
  H   H962      1.0  0.00981  0.52983  0.75089  1.0000
  C   C592      1.0  0.08549  0.62313  0.84856  1.0000
  H   H963      1.0  0.01394  0.55175  0.75420  1.0000
  C   C593      1.0  0.00546  0.57950  0.78343  1.0000
  C   C594      1.0  0.19264  0.96668  0.92877  1.0000
  N   N41       1.0  0.22384  0.97200  0.83443  1.0000
  H   H964      1.0  0.04195  0.50581  0.71060  1.0000
  H   H965      1.0  0.20501  0.95597  0.90334  1.0000
  H   H966      1.0  0.15687  0.79586  0.87559  1.0000
  H   H967      1.0  0.03564  0.58671  0.68714  1.0000
  H   H968      1.0  0.14694  0.82932  0.98537  1.0000
  H   H969      1.0  0.17136  0.58392  0.85571  1.0000
  H   H970      1.0  0.19411  0.51482  0.90499  1.0000
  H   H971      1.0  0.18913  0.91504  0.79858  1.0000
  C   C595      1.0  0.01611  0.50994  0.69693  1.0000
  H   H972      1.0  0.18748  0.94494  0.74499  1.0000
  H   H973      1.0  0.15064  0.81314  0.89424  1.0000
  H   H974      1.0  0.20837  0.96921  0.85516  1.0000
  C   C596      1.0  0.22114  0.90425  0.83573  1.0000
  C   C597      1.0  0.20556  0.97856  0.77446  1.0000
  H   H975      1.0  0.09673  0.67448  0.96637  1.0000
  H   H976      1.0  0.07117  0.59404  0.87331  1.0000
  C   C598      1.0  0.21437  0.96163  0.84272  1.0000
  S   S165      1.0  0.15513  0.75830  0.96782  1.0000
  C   C599      1.0  0.02238  0.52835  0.66125  1.0000
  H   H977      1.0  0.06835  0.63172  0.86367  1.0000
  H   H978      1.0  0.16020  0.68689  0.95306  1.0000
  H   H979      1.0  0.20267  0.95109  0.83349  1.0000
  H   H980      1.0  0.21394  0.95470  0.81284  1.0000
  C   C600      1.0  0.20852  0.96147  0.82613  1.0000
  H   H981      1.0  0.20241  0.57841  0.98784  1.0000
  S   S166      1.0  0.99807  0.57021  0.68921  1.0000
  N   N42       1.0  0.18152  0.55465  0.86929  1.0000
  H   H982      1.0  0.13041  0.63395  0.96211  1.0000
  C   C601      1.0  0.03557  0.57232  0.68199  1.0000
  H   H983      1.0  0.21583  0.98234  0.90078  1.0000
  H   H984      1.0  0.21808  0.96589  0.75091  1.0000
  H   H985      1.0  0.20023  0.97362  0.78973  1.0000
  C   C602      1.0  0.21518  0.92547  0.75519  1.0000
  H   H986      1.0  0.99554  0.50089  0.70560  1.0000
  H   H987      1.0  0.09273  0.57964  0.82207  1.0000
  H   H988      1.0  0.07715  0.64051  0.87396  1.0000
  C   C603      1.0  0.02576  0.53243  0.73291  1.0000
  C   C604      1.0  0.99026  0.56447  0.81802  1.0000
  C   C605      1.0  0.01020  0.50387  0.81434  1.0000
  H   H989      1.0  0.00136  0.56234  0.83678  1.0000
  S   S167      1.0  0.09859  0.63005  0.94942  1.0000
  H   H990      1.0  0.00989  0.55327  0.73034  1.0000
  C   C606      1.0  0.01468  0.54692  0.66493  1.0000
  C   C607      1.0  0.04652  0.51846  0.70249  1.0000
  H   H991      1.0  0.20620  0.54310  0.83424  1.0000
  C   C608      1.0  0.19899  0.93799  0.78117  1.0000
  C   C609      1.0  0.22704  0.97507  0.85290  1.0000
  H   H992      1.0  0.10534  0.68731  0.98738  1.0000
  S   S168      1.0  0.16706  0.72481  0.92525  1.0000
  C   C610      1.0  0.17920  0.59299  0.87472  1.0000
  H   H993      1.0  0.04412  0.58418  0.96814  1.0000
  H   H994      1.0  0.21158  0.91347  0.75273  1.0000
  H   H995      1.0  0.03840  0.66502  0.95853  1.0000
  N   N43       1.0  0.13107  0.65896  0.91937  1.0000
  C   C611      1.0  0.13212  0.67221  0.93336  1.0000
  C   C612      1.0  0.12414  0.64361  0.93298  1.0000
  C   C613      1.0  0.12580  0.67395  0.90203  1.0000
  C   C614      1.0  0.14210  0.64755  0.91039  1.0000
  C   C615      1.0  0.13717  0.69183  0.92208  1.0000
  C   C616      1.0  0.12882  0.62670  0.95071  1.0000
  C   C617      1.0  0.12002  0.66446  0.89108  1.0000
  C   C618      1.0  0.14305  0.63142  0.89705  1.0000
  H   H996      1.0  0.12419  0.67837  0.94292  1.0000
  H   H997      1.0  0.13704  0.66236  0.94495  1.0000
  H   H998      1.0  0.12215  0.63441  0.92372  1.0000
  H   H999      1.0  0.11629  0.65271  0.94034  1.0000
  H   H1000     1.0  0.11958  0.68700  0.90832  1.0000
  H   H1001     1.0  0.13167  0.68205  0.88944  1.0000
  H   H1002     1.0  0.14692  0.65925  0.90003  1.0000
  H   H1003     1.0  0.14661  0.63919  0.92303  1.0000
  H   H1004     1.0  0.13216  0.70417  0.91197  1.0000
  H   H1005     1.0  0.13781  0.69956  0.93421  1.0000
  H   H1006     1.0  0.14534  0.68737  0.91269  1.0000
  H   H1007     1.0  0.12295  0.61664  0.95964  1.0000
  Fe  Fe80      1.0  0.16850  0.59476  0.98310  1.0000
  H   H1008     1.0  0.22913  0.91459  0.73205  1.0000
  H   H1009     1.0  0.11726  0.67707  0.87786  1.0000
  H   H1010     1.0  0.11273  0.65972  0.90193  1.0000
  H   H1011     1.0  0.12514  0.65081  0.88429  1.0000
  H   H1012     1.0  0.14387  0.63936  0.88008  1.0000
  H   H1013     1.0  0.13634  0.62326  0.90205  1.0000
  H   H1014     1.0  0.15022  0.61841  0.89900  1.0000
  C   C619      1.0  0.19562  0.94536  0.73513  1.0000
  H   H1015     1.0  0.21281  0.90457  0.84279  1.0000
  H   H1016     1.0  0.13616  0.61576  0.94425  1.0000
  H   H1017     1.0  0.20004  0.92895  0.73381  1.0000
  H   H1018     1.0  0.23258  0.95898  0.88160  1.0000
  H   H1019     1.0  0.19150  0.95049  0.78251  1.0000
  C   C620      1.0  0.07572  0.63790  0.85953  1.0000
  N   N44       1.0  0.04449  0.61000  0.98154  1.0000
  H   H1020     1.0  0.21684  0.94457  0.85061  1.0000
  H   H1021     1.0  0.09724  0.60480  0.81431  1.0000
  H   H1022     1.0  0.17410  0.55017  0.84657  1.0000
  H   H1023     1.0  0.20672  0.96569  0.72993  1.0000
  C   C621      1.0  0.23512  0.91056  0.80438  1.0000
  H   H1024     1.0  0.22155  0.55926  0.96003  1.0000
  C   C622      1.0  0.22394  0.93007  0.73524  1.0000
  H   H1025     1.0  0.01125  0.58561  0.77004  1.0000
  N   N45       1.0  0.17501  0.78719  0.89184  1.0000
  C   C623      1.0  0.18195  0.78725  0.90609  1.0000
  C   C624      1.0  0.17591  0.80647  0.87387  1.0000
  C   C625      1.0  0.17955  0.76711  0.88324  1.0000
  C   C626      1.0  0.16376  0.78750  0.90458  1.0000
  C   C627      1.0  0.18279  0.76813  0.92517  1.0000
  C   C628      1.0  0.17230  0.82838  0.88026  1.0000
  C   C629      1.0  0.17350  0.76319  0.86881  1.0000
  Fe  Fe81      1.0  0.23224  0.54398  0.83633  1.0000
  H   H1026     1.0  0.19022  0.78805  0.89697  1.0000
  H   H1027     1.0  0.17900  0.80176  0.91290  1.0000
  H   H1028     1.0  0.17139  0.80734  0.86207  1.0000
  H   H1029     1.0  0.18432  0.80528  0.86480  1.0000
  H   H1030     1.0  0.18796  0.76675  0.87444  1.0000
  H   H1031     1.0  0.17983  0.75261  0.89621  1.0000
  H   H1032     1.0  0.16293  0.77116  0.91385  1.0000
  H   H1033     1.0  0.16193  0.79740  0.91646  1.0000
  H   H1034     1.0  0.18789  0.75328  0.92033  1.0000
  H   H1035     1.0  0.18663  0.77177  0.93603  1.0000
  H   H1036     1.0  0.17490  0.76511  0.93437  1.0000
  H   H1037     1.0  0.17833  0.83132  0.88698  1.0000
  H   H1038     1.0  0.17141  0.84139  0.86602  1.0000
  H   H1039     1.0  0.16454  0.83000  0.89167  1.0000
  H   H1040     1.0  0.17277  0.77633  0.85471  1.0000
  H   H1041     1.0  0.16557  0.76002  0.87774  1.0000
  H   H1042     1.0  0.17799  0.74843  0.86299  1.0000
  H   H1043     1.0  0.08053  0.60544  0.89053  1.0000
  S   S169      1.0  0.22432  0.89077  0.87599  1.0000
  H   H1044     1.0  0.21921  0.95157  0.94302  1.0000
  S   S170      1.0  0.11613  0.72161  0.97790  1.0000
  H   H1045     1.0  0.14836  0.78709  0.89989  1.0000
  H   H1046     1.0  0.06986  0.58462  0.83804  1.0000
  H   H1047     1.0  0.09431  0.60537  0.88115  1.0000
  C   C630      1.0  0.04115  0.60184  0.96617  1.0000
  C   C631      1.0  0.19575  0.91659  0.78441  1.0000
  H   H1048     1.0  0.22923  0.93914  0.73745  1.0000
  Fe  Fe82      1.0  0.08314  0.62028  0.96634  1.0000
  H   H1049     1.0  0.20401  0.97773  0.82028  1.0000
  H   H1050     1.0  0.21068  0.92314  0.95311  1.0000
  S   S171      1.0  0.07289  0.64995  0.95078  1.0000
  H   H1051     1.0  0.04382  0.56360  0.67668  1.0000
  H   H1052     1.0  0.15857  0.55416  0.87552  1.0000
  S   S172      1.0  0.21856  0.56826  0.84993  1.0000
  H   H1053     1.0  0.11415  0.73645  0.93372  1.0000
  C   C632      1.0  0.07236  0.59824  0.84046  1.0000
  C   C633      1.0  0.23269  0.95748  0.82236  1.0000
  H   H1054     1.0  0.07427  0.65391  0.84881  1.0000
  S   S173      1.0  0.14254  0.56060  0.97290  1.0000
  Fe  Fe83      1.0  0.12961  0.73943  0.96891  1.0000
  C   C634      1.0  0.21344  0.56911  0.96036  1.0000
  C   C635      1.0  0.02317  0.50984  0.67734  1.0000
  S   S174      1.0  0.16924  0.56064  0.98351  1.0000
  C   C636      1.0  0.05647  0.60593  0.97642  1.0000
  C   C637      1.0  0.22649  0.51087  0.75210  1.0000
  H   H1055     1.0  0.22018  0.98439  0.86266  1.0000
  H   H1056     1.0  0.99689  0.52412  0.78775  1.0000
  C   C638      1.0  0.21673  0.51679  0.97315  1.0000
  H   H1057     1.0  0.22771  0.52640  0.77520  1.0000
  H   H1058     1.0  0.19574  0.56770  0.85675  1.0000
  H   H1059     1.0  0.22060  0.93846  0.72109  1.0000
  C   C639      1.0  0.23151  0.52165  0.76037  1.0000
  C   C640      1.0  0.18023  0.97916  0.81455  1.0000
  H   H1060     1.0  0.21408  0.58605  0.95730  1.0000
  H   H1061     1.0  0.21082  0.56746  0.94674  1.0000
  H   H1062     1.0  0.21790  0.94987  0.77669  1.0000
  H   H1063     1.0  0.09861  0.57017  0.85511  1.0000
  H   H1064     1.0  0.04655  0.52782  0.73046  1.0000
  C   C641      1.0  0.02878  0.55782  0.69913  1.0000
  C   C642      1.0  0.07767  0.59029  0.85971  1.0000
  H   H1065     1.0  0.08974  0.57473  0.91081  1.0000
  H   H1066     1.0  0.18515  0.59900  0.86079  1.0000
  C   C643      1.0  0.19981  0.53798  0.84774  1.0000
  H   H1067     1.0  0.22523  0.94408  0.87495  1.0000
  H   H1068     1.0  0.19791  0.56307  0.97617  1.0000
  C   C644      1.0  0.06237  0.58215  0.97857  1.0000
  C   C645      1.0  0.09826  0.58830  0.82406  1.0000
  H   H1069     1.0  0.13251  0.85140  0.98059  1.0000
  C   C646      1.0  0.09725  0.58752  0.84753  1.0000
  N   N46       1.0  0.08694  0.59959  0.85883  1.0000
  H   H1070     1.0  0.04512  0.52509  0.68629  1.0000
  H   H1071     1.0  0.02079  0.51325  0.78345  1.0000
  H   H1072     1.0  0.20069  0.98984  0.76355  1.0000
  C   C647      1.0  0.15464  0.79652  0.89243  1.0000
  H   H1073     1.0  0.04357  0.55521  0.75039  1.0000
  C   C648      1.0  0.08801  0.59732  0.88112  1.0000
  H   H1074     1.0  0.03723  0.57626  0.72046  1.0000
  H   H1075     1.0  0.04491  0.60847  0.94960  1.0000
  H   H1076     1.0  0.02057  0.56779  0.70217  1.0000
  H   H1077     1.0  0.02379  0.57647  0.73171  1.0000
  H   H1078     1.0  0.18918  0.56751  0.83727  1.0000
  H   H1079     1.0  0.17725  0.54803  0.90339  1.0000
  H   H1080     1.0  0.03199  0.54373  0.76192  1.0000
  H   H1081     1.0  0.16153  0.84710  0.97636  1.0000
  H   H1082     1.0  0.07997  0.57248  0.86269  1.0000
  C   C649      1.0  0.04403  0.53592  0.71529  1.0000
  H   H1083     1.0  0.08486  0.62635  0.83193  1.0000
  S   S175      1.0  0.14427  0.71699  0.97838  1.0000
  H   H1084     1.0  0.14965  0.86548  0.98485  1.0000
  C   C650      1.0  0.22125  0.99349  0.81990  1.0000
  H   H1085     1.0  0.02111  0.52550  0.80361  1.0000
  H   H1086     1.0  0.16200  0.52693  0.87314  1.0000
  C   C651      1.0  0.99400  0.51174  0.80138  1.0000
  H   H1087     1.0  0.22833  0.88309  0.95602  1.0000
  H   H1088     1.0  0.19495  0.95381  0.71872  1.0000
  C   C652      1.0  0.23142  0.50456  0.73293  1.0000
  C   C653      1.0  0.21254  0.91424  0.94043  1.0000
  H   H1089     1.0  0.19124  0.51180  0.88199  1.0000
  H   H1090     1.0  0.06444  0.57738  0.96316  1.0000
  C   C654      1.0  0.19138  0.55809  0.85246  1.0000
  H   H1091     1.0  0.01003  0.53474  0.79149  1.0000
  C   C655      1.0  0.99586  0.57717  0.78036  1.0000
  S   S176      1.0  0.12929  0.76317  0.98751  1.0000
  H   H1092     1.0  0.21072  0.98762  0.77715  1.0000
  H   H1093     1.0  0.21685  0.52895  0.95820  1.0000
  H   H1094     1.0  0.18168  0.98121  0.95350  1.0000
  C   C656      1.0  0.04008  0.63374  0.97988  1.0000
  C   C657      1.0  0.99452  0.49904  0.89486  1.0000
  C   C658      1.0  0.20506  0.56392  0.98100  1.0000
  H   H1095     1.0  0.23452  0.87809  0.93057  1.0000
  C   C659      1.0  0.23160  0.92234  0.95023  1.0000
  C   C660      1.0  0.22875  0.98803  0.71230  1.0000
  H   H1096     1.0  0.20377  0.52985  0.86115  1.0000
  H   H1097     1.0  0.23052  0.95603  0.80813  1.0000
  C   C661      1.0  0.22298  0.91729  0.92420  1.0000
  C   C662      1.0  0.22759  0.94691  0.94477  1.0000
  H   H1098     1.0  0.20023  0.52611  0.98688  1.0000
  H   H1099     1.0  0.98989  0.52037  0.81441  1.0000
  H   H1100     1.0  0.22610  0.91595  0.96491  1.0000
  C   C663      1.0  0.99187  0.51429  0.67526  1.0000
  H   H1101     1.0  0.00001  0.50265  0.87993  1.0000
  H   H1102     1.0  0.22184  0.93429  0.91548  1.0000
  H   H1103     1.0  0.06980  0.57982  0.98404  1.0000
  C   C664      1.0  0.04511  0.49983  0.78798  1.0000
  C   C665      1.0  0.98822  0.56973  0.79771  1.0000
  H   H1104     1.0  0.21938  0.99181  0.80544  1.0000
  C   C666      1.0  0.04264  0.49875  0.80974  1.0000
  H   H1105     1.0  0.00550  0.51215  0.82739  1.0000
  C   C667      1.0  0.99093  0.49730  0.69618  1.0000
  H   H1106     1.0  0.00028  0.51393  0.66680  1.0000
  H   H1107     1.0  0.15381  0.65717  0.98749  1.0000
  H   H1108     1.0  0.22555  0.53901  0.98804  1.0000
  H   H1109     1.0  0.28956  0.06691  0.19192  1.0000
  Fe  Fe84      1.0  0.33285  0.24270  0.14085  1.0000
  S   S177      1.0  0.34451  0.24804  0.11015  1.0000
  S   S178      1.0  0.32517  0.21407  0.15188  1.0000
  Fe  Fe85      1.0  0.33364  0.28465  0.15069  1.0000
  S   S179      1.0  0.34540  0.29312  0.12026  1.0000
  S   S180      1.0  0.32454  0.30553  0.17441  1.0000
  Fe  Fe86      1.0  0.33537  0.28185  0.10558  1.0000
  S   S181      1.0  0.33115  0.29922  0.07438  1.0000
  Fe  Fe87      1.0  0.35349  0.25835  0.12753  1.0000
  S   S182      1.0  0.37106  0.24570  0.11736  1.0000
  S   S183      1.0  0.32297  0.27603  0.13515  1.0000
  S   S184      1.0  0.34251  0.25038  0.15918  1.0000
  Fe  Fe88      1.0  0.30360  0.41635  0.24175  1.0000
  S   S185      1.0  0.31470  0.43166  0.21398  1.0000
  S   S186      1.0  0.28647  0.41745  0.24408  1.0000
  Fe  Fe89      1.0  0.32041  0.39730  0.26765  1.0000
  S   S187      1.0  0.33310  0.41061  0.24189  1.0000
  C   C668      1.0  0.30305  0.46471  0.30834  1.0000
  Fe  Fe90      1.0  0.32037  0.44068  0.23834  1.0000
  S   S188      1.0  0.32140  0.47487  0.23544  1.0000
  Fe  Fe91      1.0  0.32627  0.40008  0.22025  1.0000
  S   S189      1.0  0.33683  0.38262  0.19469  1.0000
  S   S190      1.0  0.30814  0.42794  0.26550  1.0000
  S   S191      1.0  0.31469  0.38429  0.24654  1.0000
  C   C669      1.0  0.24193  0.06544  0.24022  1.0000
  S   S192      1.0  0.29351  0.06406  0.02743  1.0000
  Fe  Fe92      1.0  0.32415  0.12525  0.10294  1.0000
  S   S193      1.0  0.31576  0.11528  0.13660  1.0000
  S   S194      1.0  0.32968  0.15623  0.08800  1.0000
  Fe  Fe93      1.0  0.32512  0.08288  0.09291  1.0000
  S   S195      1.0  0.31709  0.06924  0.12573  1.0000
  S   S196      1.0  0.33082  0.06315  0.06831  1.0000
  Fe  Fe94      1.0  0.30609  0.10155  0.12338  1.0000
  S   S197      1.0  0.28834  0.10646  0.13563  1.0000
  Fe  Fe95      1.0  0.32756  0.08416  0.13558  1.0000
  S   S198      1.0  0.33501  0.06621  0.16306  1.0000
  S   S199      1.0  0.31342  0.11438  0.08962  1.0000
  S   S200      1.0  0.33667  0.09490  0.10285  1.0000
  S   S201      1.0  0.26728  0.03279  0.13366  1.0000
  Fe  Fe96      1.0  0.40005  0.11461  0.10557  1.0000
  S   S202      1.0  0.40772  0.08087  0.11889  1.0000
  S   S203      1.0  0.40044  0.12786  0.07090  1.0000
  Fe  Fe97      1.0  0.39176  0.12587  0.14847  1.0000
  S   S204      1.0  0.39848  0.09300  0.16565  1.0000
  S   S205      1.0  0.38228  0.15023  0.16774  1.0000
  Fe  Fe98      1.0  0.41314  0.09502  0.13985  1.0000
  S   S206      1.0  0.43022  0.08539  0.14429  1.0000
  Fe  Fe99      1.0  0.39245  0.08184  0.14345  1.0000
  S   S207      1.0  0.38439  0.05398  0.15495  1.0000
  S   S208      1.0  0.40679  0.12902  0.12411  1.0000
  S   S209      1.0  0.38438  0.11455  0.12866  1.0000
  Fe  Fe100     1.0  0.45923  0.06684  0.23681  1.0000
  S   S210      1.0  0.47208  0.04501  0.21853  1.0000
  S   S211      1.0  0.44254  0.07970  0.23049  1.0000
  Fe  Fe101     1.0  0.47263  0.06229  0.26901  1.0000
  H   H1110     1.0  0.30521  0.40794  0.30774  1.0000
  C   C670      1.0  0.35444  0.24348  0.01989  1.0000
  H   H1111     1.0  0.35089  0.06240  0.07562  1.0000
  Fe  Fe102     1.0  0.47434  0.02474  0.25007  1.0000
  H   H1112     1.0  0.34692  0.29590  0.26468  1.0000
  S   S212      1.0  0.47019  0.08639  0.23886  1.0000
  S   S213      1.0  0.46061  0.04478  0.26839  1.0000
  H   H1113     1.0  0.31119  0.13396  0.04552  1.0000
  C   C671      1.0  0.27737  0.03698  0.21155  1.0000
  H   H1114     1.0  0.29468  0.15296  0.08852  1.0000
  H   H1115     1.0  0.36109  0.04381  0.06119  1.0000
  H   H1116     1.0  0.29193  0.15144  0.11622  1.0000
  S   S214      1.0  0.24613  0.04442  0.18534  1.0000
  H   H1117     1.0  0.32947  0.13683  0.03064  1.0000
  H   H1118     1.0  0.27338  0.08652  0.04577  1.0000
  H   H1119     1.0  0.38275  0.03498  0.10747  1.0000
  H   H1120     1.0  0.35965  0.32923  0.22263  1.0000
  C   C672      1.0  0.43959  0.07858  0.20684  1.0000
  C   C673      1.0  0.44722  0.07953  0.18786  1.0000
  C   C674      1.0  0.44430  0.08103  0.16889  1.0000
  C   C675      1.0  0.43375  0.08148  0.16874  1.0000
  C   C676      1.0  0.42624  0.07954  0.18787  1.0000
  C   C677      1.0  0.42913  0.07835  0.20678  1.0000
  H   H1121     1.0  0.45530  0.07978  0.18768  1.0000
  H   H1122     1.0  0.45018  0.08233  0.15419  1.0000
  H   H1123     1.0  0.41817  0.07929  0.18804  1.0000
  H   H1124     1.0  0.42320  0.07738  0.22142  1.0000
  C   C678      1.0  0.38752  0.09041  0.03968  1.0000
  C   C679      1.0  0.39345  0.10560  0.02736  1.0000
  C   C680      1.0  0.39763  0.11662  0.03707  1.0000
  C   C681      1.0  0.39592  0.11250  0.05911  1.0000
  C   C682      1.0  0.39018  0.09699  0.07144  1.0000
  C   C683      1.0  0.38598  0.08599  0.06173  1.0000
  C   C684      1.0  0.36516  0.04764  0.08924  1.0000
  H   H1125     1.0  0.40212  0.12853  0.02748  1.0000
  H   H1126     1.0  0.38887  0.09365  0.08847  1.0000
  H   H1127     1.0  0.38144  0.07425  0.07134  1.0000
  C   C685      1.0  0.34862  0.06455  0.16063  1.0000
  C   C686      1.0  0.35380  0.04875  0.17514  1.0000
  C   C687      1.0  0.36473  0.04601  0.17335  1.0000
  C   C688      1.0  0.37055  0.05946  0.15743  1.0000
  C   C689      1.0  0.36538  0.07569  0.14304  1.0000
  C   C690      1.0  0.35441  0.07806  0.14449  1.0000
  H   H1128     1.0  0.34939  0.03826  0.18760  1.0000
  H   H1129     1.0  0.36871  0.03337  0.18438  1.0000
  H   H1130     1.0  0.36990  0.08580  0.13040  1.0000
  H   H1131     1.0  0.35049  0.09018  0.13310  1.0000
  C   C691      1.0  0.28242  0.08663  0.13385  1.0000
  C   C692      1.0  0.27175  0.08668  0.14404  1.0000
  C   C693      1.0  0.26703  0.07025  0.14402  1.0000
  C   C694      1.0  0.27292  0.05381  0.13359  1.0000
  C   C695      1.0  0.28349  0.05411  0.12284  1.0000
  C   C696      1.0  0.28825  0.07040  0.12308  1.0000
  H   H1132     1.0  0.26717  0.09930  0.15222  1.0000
  H   H1133     1.0  0.25880  0.07050  0.15184  1.0000
  H   H1134     1.0  0.28805  0.04159  0.11449  1.0000
  H   H1135     1.0  0.29645  0.07034  0.11499  1.0000
  C   C697      1.0  0.30382  0.06312  0.03925  1.0000
  C   C698      1.0  0.31427  0.05313  0.03134  1.0000
  C   C699      1.0  0.32246  0.05213  0.04107  1.0000
  C   C700      1.0  0.32028  0.06192  0.05816  1.0000
  C   C701      1.0  0.30981  0.07174  0.06618  1.0000
  C   C702      1.0  0.30157  0.07216  0.05686  1.0000
  H   H1136     1.0  0.33032  0.34014  0.23642  1.0000
  H   H1137     1.0  0.33053  0.04435  0.03491  1.0000
  H   H1138     1.0  0.30804  0.07910  0.07949  1.0000
  H   H1139     1.0  0.29350  0.07991  0.06302  1.0000
  C   C703      1.0  0.32606  0.25476  0.03871  1.0000
  H   H1140     1.0  0.33550  0.15711  0.99823  1.0000
  H   H1141     1.0  0.36885  0.25515  0.00509  1.0000
  H   H1142     1.0  0.23979  0.07759  0.28465  1.0000
  C   C704      1.0  0.30554  0.18020  0.06019  1.0000
  C   C705      1.0  0.29273  0.00763  0.20513  1.0000
  H   H1143     1.0  0.28053  0.05682  0.06877  1.0000
  C   C706      1.0  0.37463  0.21933  0.13141  1.0000
  C   C707      1.0  0.38219  0.20399  0.12129  1.0000
  C   C708      1.0  0.38463  0.18263  0.13230  1.0000
  C   C709      1.0  0.37971  0.17678  0.15357  1.0000
  C   C710      1.0  0.37244  0.19228  0.16383  1.0000
  C   C711      1.0  0.36978  0.21344  0.15269  1.0000
  H   H1144     1.0  0.38597  0.20852  0.10483  1.0000
  H   H1145     1.0  0.39027  0.17072  0.12431  1.0000
  H   H1146     1.0  0.36869  0.18785  0.18033  1.0000
  H   H1147     1.0  0.36411  0.22528  0.16069  1.0000
  C   C712      1.0  0.32835  0.32656  0.17989  1.0000
  C   C713      1.0  0.33797  0.33279  0.16940  1.0000
  C   C714      1.0  0.34041  0.35021  0.17384  1.0000
  C   C715      1.0  0.33324  0.36159  0.18865  1.0000
  C   C716      1.0  0.32357  0.35550  0.19887  1.0000
  C   C717      1.0  0.32119  0.33799  0.19463  1.0000
  H   H1148     1.0  0.34351  0.32422  0.15791  1.0000
  H   H1149     1.0  0.34791  0.35482  0.16584  1.0000
  H   H1150     1.0  0.31793  0.36424  0.21010  1.0000
  H   H1151     1.0  0.31369  0.33341  0.20267  1.0000
  C   C718      1.0  0.32603  0.19908  0.13339  1.0000
  C   C719      1.0  0.32047  0.18257  0.13953  1.0000
  C   C720      1.0  0.32150  0.16946  0.12566  1.0000
  C   C721      1.0  0.32815  0.17266  0.10558  1.0000
  C   C722      1.0  0.33353  0.18948  0.09921  1.0000
  C   C723      1.0  0.33249  0.20260  0.11309  1.0000
  H   H1152     1.0  0.31539  0.17983  0.15514  1.0000
  H   H1153     1.0  0.31707  0.15703  0.13058  1.0000
  H   H1154     1.0  0.33853  0.19237  0.08358  1.0000
  H   H1155     1.0  0.33675  0.21528  0.10806  1.0000
  C   C724      1.0  0.32689  0.24726  0.05984  1.0000
  C   C725      1.0  0.32817  0.26098  0.07104  1.0000
  C   C726      1.0  0.32880  0.28219  0.06107  1.0000
  C   C727      1.0  0.32783  0.28975  0.04002  1.0000
  H   H1156     1.0  0.27621  0.35043  0.30944  1.0000
  H   H1157     1.0  0.32663  0.23079  0.06751  1.0000
  H   H1158     1.0  0.32857  0.25515  0.08745  1.0000
  H   H1159     1.0  0.34798  0.34261  0.21385  1.0000
  Fe  Fe103     1.0  0.33098  0.24620  0.98976  1.0000
  C   C728      1.0  0.36039  0.24510  0.05976  1.0000
  H   H1160     1.0  0.36760  0.21222  0.05387  1.0000
  C   C729      1.0  0.24572  0.46064  0.32038  1.0000
  H   H1161     1.0  0.35810  0.21349  0.07773  1.0000
  C   C730      1.0  0.33388  0.32718  0.24855  1.0000
  H   H1162     1.0  0.32434  0.44095  0.30270  1.0000
  C   C731      1.0  0.30272  0.48770  0.18061  1.0000
  H   H1163     1.0  0.26070  0.10842  0.02511  1.0000
  H   H1164     1.0  0.32819  0.30618  0.03226  1.0000
  C   C732      1.0  0.28341  0.44878  0.20884  1.0000
  C   C733      1.0  0.27987  0.44169  0.23057  1.0000
  H   H1165     1.0  0.29035  0.43936  0.20029  1.0000
  H   H1166     1.0  0.28502  0.21479  0.08596  1.0000
  H   H1167     1.0  0.37916  0.27094  0.02472  1.0000
  H   H1168     1.0  0.34388  0.30985  0.21260  1.0000
  H   H1169     1.0  0.29738  0.03087  0.16713  1.0000
  C   C734      1.0  0.34561  0.11379  0.00800  1.0000
  H   H1170     1.0  0.34908  0.25921  0.01566  1.0000
  C   C735      1.0  0.35128  0.32820  0.22499  1.0000
  H   H1171     1.0  0.38411  0.22255  0.04453  1.0000
  C   C736      1.0  0.35073  0.09571  0.02447  1.0000
  H   H1172     1.0  0.27295  0.00723  0.19833  1.0000
  H   H1173     1.0  0.32552  0.28217  0.01275  1.0000
  H   H1174     1.0  0.33706  0.06711  0.99393  1.0000
  H   H1175     1.0  0.36325  0.10459  0.05886  1.0000
  H   H1176     1.0  0.29099  0.47350  0.24684  1.0000
  C   C737      1.0  0.48568  0.06603  0.30540  1.0000
  S   S215      1.0  0.25406  0.00480  0.23676  1.0000
  H   H1177     1.0  0.30699  0.47893  0.21076  1.0000
  H   H1178     1.0  0.29360  0.34426  0.30475  1.0000
  H   H1179     1.0  0.33999  0.36326  0.24097  1.0000
  H   H1180     1.0  0.30120  0.04540  0.19499  1.0000
  H   H1181     1.0  0.24915  0.05458  0.27771  1.0000
  N   N47       1.0  0.33401  0.11526  0.00907  1.0000
  S   S216      1.0  0.32465  0.23718  0.02487  1.0000
  Fe  Fe104     1.0  0.38415  0.08917  0.99247  1.0000
  H   H1182     1.0  0.35891  0.09753  0.02318  1.0000
  C   C738      1.0  0.29574  0.05469  0.18436  1.0000
  C   C739      1.0  0.34494  0.02160  0.13576  1.0000
  C   C740      1.0  0.25475  0.05571  0.06988  1.0000
  C   C741      1.0  0.37981  0.02021  0.11626  1.0000
  H   H1183     1.0  0.38335  0.01420  0.13044  1.0000
  H   H1184     1.0  0.35896  0.34589  0.26295  1.0000
  H   H1185     1.0  0.39318  0.23996  0.03547  1.0000
  C   C742      1.0  0.27187  0.40513  0.29741  1.0000
  H   H1186     1.0  0.27730  0.03672  0.04404  1.0000
  C   C743      1.0  0.35916  0.29345  0.04797  1.0000
  H   H1187     1.0  0.30049  0.06365  0.17014  1.0000
  H   H1188     1.0  0.35337  0.29326  0.22836  1.0000
  H   H1189     1.0  0.34684  0.12890  0.00996  1.0000
  C   C744      1.0  0.27354  0.04931  0.07305  1.0000
  H   H1190     1.0  0.27229  0.40594  0.28055  1.0000
  H   H1191     1.0  0.26441  0.10021  0.09973  1.0000
  H   H1192     1.0  0.27941  0.49337  0.24025  1.0000
  H   H1193     1.0  0.27412  0.36850  0.28579  1.0000
  H   H1194     1.0  0.29006  0.38143  0.28039  1.0000
  Fe  Fe105     1.0  0.48318  0.06258  0.22281  1.0000
  H   H1195     1.0  0.36031  0.35632  0.23446  1.0000
  H   H1196     1.0  0.35051  0.27907  0.03554  1.0000
  H   H1197     1.0  0.32240  0.16355  0.99260  1.0000
  C   C745      1.0  0.38565  0.23757  0.03341  1.0000
  H   H1198     1.0  0.35159  0.24797  0.06182  1.0000
  H   H1199     1.0  0.29557  0.49379  0.17365  1.0000
  N   N48       1.0  0.36132  0.02979  0.10653  1.0000
  H   H1200     1.0  0.29673  0.01400  0.21377  1.0000
  C   C746      1.0  0.25997  0.07890  0.08590  1.0000
  C   C747      1.0  0.32601  0.32808  0.27006  1.0000
  H   H1201     1.0  0.30893  0.23230  0.09072  1.0000
  H   H1202     1.0  0.35550  0.23499  0.00714  1.0000
  H   H1203     1.0  0.36493  0.28944  0.25217  1.0000
  H   H1204     1.0  0.31009  0.20565  0.03219  1.0000
  H   H1205     1.0  0.32901  0.10991  0.04314  1.0000
  H   H1206     1.0  0.28051  0.47334  0.18127  1.0000
  H   H1207     1.0  0.33739  0.45648  0.26098  1.0000
  H   H1208     1.0  0.36392  0.99538  0.11155  1.0000
  C   C748      1.0  0.36542  0.24587  0.02085  1.0000
  C   C749      1.0  0.32737  0.43630  0.31739  1.0000
  H   H1209     1.0  0.35161  0.07966  0.02146  1.0000
  H   H1210     1.0  0.36129  0.25231  0.07204  1.0000
  H   H1211     1.0  0.40641  0.13877  0.16708  1.0000
  H   H1212     1.0  0.39465  0.10922  0.01037  1.0000
  C   C750      1.0  0.34976  0.31054  0.26352  1.0000
  H   H1213     1.0  0.25777  0.03123  0.09893  1.0000
  H   H1214     1.0  0.35100  0.12341  0.05721  1.0000
  H   H1215     1.0  0.33302  0.42057  0.31702  1.0000
  S   S217      1.0  0.47327  0.06600  0.30098  1.0000
  N   N49       1.0  0.30024  0.19398  0.07637  1.0000
  H   H1216     1.0  0.29544  0.23116  0.09379  1.0000
  H   H1217     1.0  0.31541  0.19791  0.07836  1.0000
  H   H1218     1.0  0.43112  0.12466  0.17620  1.0000
  Fe  Fe106     1.0  0.25324  0.02576  0.15991  1.0000
  H   H1219     1.0  0.34628  0.09620  0.04087  1.0000
  C   C751      1.0  0.28663  0.49039  0.24647  1.0000
  C   C752      1.0  0.30743  0.20789  0.07651  1.0000
  N   N50       1.0  0.34879  0.15063  0.16288  1.0000
  C   C753      1.0  0.35237  0.17125  0.15124  1.0000
  C   C754      1.0  0.33918  0.15607  0.18003  1.0000
  C   C755      1.0  0.34585  0.14180  0.14737  1.0000
  C   C756      1.0  0.35793  0.13531  0.17170  1.0000
  C   C757      1.0  0.36057  0.17066  0.13009  1.0000
  C   C758      1.0  0.34087  0.16661  0.19621  1.0000
  C   C759      1.0  0.33782  0.12700  0.15634  1.0000
  C   C760      1.0  0.35606  0.11324  0.18496  1.0000
  H   H1220     1.0  0.34546  0.18436  0.14769  1.0000
  H   H1221     1.0  0.35597  0.17681  0.16120  1.0000
  H   H1222     1.0  0.33593  0.14182  0.18926  1.0000
  H   H1223     1.0  0.33257  0.16719  0.17287  1.0000
  H   H1224     1.0  0.34214  0.15511  0.13574  1.0000
  H   H1225     1.0  0.35311  0.13295  0.13796  1.0000
  H   H1226     1.0  0.36490  0.13176  0.15874  1.0000
  H   H1227     1.0  0.36108  0.14263  0.18102  1.0000
  H   H1228     1.0  0.35715  0.16821  0.11797  1.0000
  H   H1229     1.0  0.34725  0.15649  0.20442  1.0000
  H   H1230     1.0  0.34252  0.18282  0.18886  1.0000
  H   H1231     1.0  0.33340  0.16883  0.20846  1.0000
  H   H1232     1.0  0.33696  0.12095  0.14324  1.0000
  H   H1233     1.0  0.32976  0.13585  0.16283  1.0000
  H   H1234     1.0  0.34037  0.11282  0.16838  1.0000
  H   H1235     1.0  0.35752  0.10178  0.17469  1.0000
  H   H1236     1.0  0.34809  0.11377  0.19548  1.0000
  H   H1237     1.0  0.36170  0.10677  0.19573  1.0000
  C   C761      1.0  0.41777  0.15364  0.19933  1.0000
  C   C762      1.0  0.40984  0.13519  0.18127  1.0000
  C   C763      1.0  0.42353  0.13384  0.21339  1.0000
  C   C764      1.0  0.40213  0.18471  0.17391  1.0000
  C   C765      1.0  0.40047  0.13428  0.20073  1.0000
  H   H1238     1.0  0.40981  0.15918  0.20902  1.0000
  H   H1239     1.0  0.42209  0.16666  0.19650  1.0000
  H   H1240     1.0  0.28318  0.17053  0.10098  1.0000
  H   H1241     1.0  0.43232  0.13110  0.20752  1.0000
  H   H1242     1.0  0.42185  0.13645  0.22967  1.0000
  H   H1243     1.0  0.42095  0.11910  0.21440  1.0000
  H   H1244     1.0  0.40064  0.20057  0.16295  1.0000
  H   H1245     1.0  0.40152  0.18785  0.18952  1.0000
  H   H1246     1.0  0.39572  0.17691  0.17446  1.0000
  H   H1247     1.0  0.40324  0.12670  0.21563  1.0000
  H   H1248     1.0  0.39548  0.12405  0.19938  1.0000
  H   H1249     1.0  0.39523  0.15011  0.20204  1.0000
  N   N51       1.0  0.36549  0.25619  0.03813  1.0000
  C   C766      1.0  0.27817  0.01678  0.18570  1.0000
  C   C767      1.0  0.25743  0.09896  0.04080  1.0000
  H   H1250     1.0  0.25872  0.06822  0.10188  1.0000
  H   H1251     1.0  0.35309  0.37280  0.25268  1.0000
  C   C768      1.0  0.26760  0.09260  0.08587  1.0000
  H   H1252     1.0  0.34451  0.04186  0.10512  1.0000
  H   H1253     1.0  0.32082  0.18943  0.04457  1.0000
  C   C769      1.0  0.26893  0.48025  0.20922  1.0000
  H   H1254     1.0  0.37061  0.22964  0.02185  1.0000
  H   H1255     1.0  0.48565  0.03516  0.17768  1.0000
  H   H1256     1.0  0.28564  0.05063  0.16652  1.0000
  H   H1257     1.0  0.27254  0.03010  0.17768  1.0000
  H   H1258     1.0  0.35777  0.30782  0.20209  1.0000
  H   H1259     1.0  0.33380  0.31186  0.24499  1.0000
  H   H1260     1.0  0.42912  0.15500  0.13348  1.0000
  H   H1261     1.0  0.27280  0.02601  0.22400  1.0000
  C   C770      1.0  0.35492  0.35620  0.25022  1.0000
  H   H1262     1.0  0.28472  0.02128  0.06349  1.0000
  C   C771      1.0  0.32644  0.27608  0.02887  1.0000
  C   C772      1.0  0.24138  0.05026  0.31067  1.0000
  N   N52       1.0  0.34511  0.32874  0.24732  1.0000
  H   H1263     1.0  0.25203  0.08967  0.08501  1.0000
  H   H1264     1.0  0.30574  0.47077  0.17900  1.0000
  H   H1265     1.0  0.32360  0.09471  0.01066  1.0000
  C   C773      1.0  0.33620  0.48032  0.27828  1.0000
  C   C774      1.0  0.36468  0.22085  0.06686  1.0000
  H   H1266     1.0  0.24878  0.06933  0.24346  1.0000
  C   C775      1.0  0.29076  0.04015  0.17740  1.0000
  H   H1267     1.0  0.31241  0.13970  0.01778  1.0000
  Fe  Fe107     1.0  0.24768  0.01231  0.20748  1.0000
  H   H1268     1.0  0.33404  0.08215  0.02407  1.0000
  C   C776      1.0  0.34438  0.35016  0.25182  1.0000
  C   C777      1.0  0.26887  0.05647  0.20384  1.0000
  H   H1269     1.0  0.33977  0.35118  0.26808  1.0000
  C   C778      1.0  0.26634  0.07989  0.04741  1.0000
  H   H1270     1.0  0.28184  0.04199  0.22037  1.0000
  H   H1271     1.0  0.36644  0.31619  0.25025  1.0000
  H   H1272     1.0  0.29394  0.23705  0.05188  1.0000
  H   H1273     1.0  0.36723  0.29604  0.04620  1.0000
  H   H1274     1.0  0.27059  0.43933  0.29345  1.0000
  C   C779      1.0  0.24745  0.46747  0.29839  1.0000
  C   C780      1.0  0.27672  0.03087  0.06127  1.0000
  H   H1275     1.0  0.38501  0.17489  0.00627  1.0000
  C   C781      1.0  0.29601  0.35835  0.30618  1.0000
  H   H1276     1.0  0.37109  0.21784  0.07555  1.0000
  C   C782      1.0  0.35951  0.05601  0.07066  1.0000
  H   H1277     1.0  0.24487  0.49410  0.27223  1.0000
  C   C783      1.0  0.37672  0.25732  0.03747  1.0000
  H   H1278     1.0  0.26135  0.05150  0.20561  1.0000
  H   H1279     1.0  0.27133  0.06466  0.18724  1.0000
  H   H1280     1.0  0.26728  0.06872  0.21330  1.0000
  C   C784      1.0  0.33213  0.09378  0.00967  1.0000
  C   C785      1.0  0.27244  0.36718  0.30320  1.0000
  H   H1281     1.0  0.27295  0.04192  0.09006  1.0000
  H   H1282     1.0  0.34982  0.99690  0.09822  1.0000
  N   N53       1.0  0.36157  0.15981  0.03961  1.0000
  C   C786      1.0  0.35068  0.16571  0.03455  1.0000
  C   C787      1.0  0.36558  0.13604  0.04098  1.0000
  C   C788      1.0  0.36870  0.17218  0.02174  1.0000
  C   C789      1.0  0.36045  0.16590  0.06017  1.0000
  C   C790      1.0  0.34549  0.18984  0.03022  1.0000
  C   C791      1.0  0.35920  0.12151  0.05907  1.0000
  C   C792      1.0  0.38080  0.16290  0.01806  1.0000
  C   C793      1.0  0.37048  0.15930  0.06950  1.0000
  H   H1283     1.0  0.35099  0.15977  0.02041  1.0000
  H   H1284     1.0  0.34489  0.15799  0.04763  1.0000
  H   H1285     1.0  0.37388  0.13066  0.04299  1.0000
  H   H1286     1.0  0.36588  0.13194  0.02585  1.0000
  H   H1287     1.0  0.36664  0.17372  0.00641  1.0000
  H   H1288     1.0  0.36745  0.18886  0.02367  1.0000
  H   H1289     1.0  0.35789  0.18355  0.05837  1.0000
  H   H1290     1.0  0.35383  0.15996  0.07257  1.0000
  H   H1291     1.0  0.35053  0.19951  0.01743  1.0000
  H   H1292     1.0  0.33805  0.19212  0.02482  1.0000
  H   H1293     1.0  0.34318  0.19638  0.04467  1.0000
  C   C794      1.0  0.35153  0.30850  0.21684  1.0000
  H   H1294     1.0  0.35901  0.12391  0.07480  1.0000
  C   C795      1.0  0.35487  0.00800  0.08749  1.0000
  H   H1295     1.0  0.38718  0.23573  0.01690  1.0000
  H   H1296     1.0  0.45618  0.00171  0.27480  1.0000
  H   H1297     1.0  0.38292  0.14853  0.01117  1.0000
  H   H1298     1.0  0.37543  0.17154  0.06304  1.0000
  H   H1299     1.0  0.37551  0.14352  0.06728  1.0000
  H   H1300     1.0  0.36807  0.15739  0.08689  1.0000
  N   N54       1.0  0.31255  0.35126  0.12336  1.0000
  C   C796      1.0  0.32368  0.33989  0.11459  1.0000
  C   C797      1.0  0.30584  0.33456  0.13253  1.0000
  C   C798      1.0  0.31316  0.36152  0.14037  1.0000
  C   C799      1.0  0.30851  0.36804  0.10556  1.0000
  C   C800      1.0  0.33217  0.35372  0.10597  1.0000
  C   C801      1.0  0.30425  0.32336  0.11672  1.0000
  C   C802      1.0  0.30363  0.36285  0.15945  1.0000
  C   C803      1.0  0.29688  0.38025  0.11102  1.0000
  H   H1301     1.0  0.32658  0.32626  0.12699  1.0000
  H   H1302     1.0  0.32388  0.33283  0.10132  1.0000
  H   H1303     1.0  0.29769  0.34139  0.14064  1.0000
  H   H1304     1.0  0.30932  0.32184  0.14496  1.0000
  H   H1305     1.0  0.32008  0.35261  0.14760  1.0000
  H   H1306     1.0  0.31465  0.37797  0.13354  1.0000
  H   H1307     1.0  0.31337  0.38048  0.09938  1.0000
  H   H1308     1.0  0.30938  0.36085  0.09193  1.0000
  H   H1309     1.0  0.33068  0.36591  0.09155  1.0000
  H   H1310     1.0  0.33293  0.36151  0.11789  1.0000
  H   H1311     1.0  0.34006  0.34317  0.10132  1.0000
  H   H1312     1.0  0.31180  0.31439  0.10853  1.0000
  H   H1313     1.0  0.29933  0.31137  0.12556  1.0000
  H   H1314     1.0  0.29989  0.33473  0.10492  1.0000
  H   H1315     1.0  0.30324  0.34667  0.16963  1.0000
  H   H1316     1.0  0.29590  0.37049  0.15492  1.0000
  H   H1317     1.0  0.30483  0.37250  0.16936  1.0000
  H   H1318     1.0  0.29120  0.36945  0.11668  1.0000
  H   H1319     1.0  0.29479  0.39162  0.09653  1.0000
  H   H1320     1.0  0.29579  0.38991  0.12275  1.0000
  H   H1321     1.0  0.28401  0.49229  0.26308  1.0000
  C   C804      1.0  0.28966  0.22482  0.05220  1.0000
  H   H1322     1.0  0.27562  0.08278  0.08737  1.0000
  C   C805      1.0  0.24332  0.48873  0.28922  1.0000
  H   H1323     1.0  0.36285  0.18645  0.12392  1.0000
  C   C806      1.0  0.27616  0.42410  0.29848  1.0000
  H   H1324     1.0  0.37718  0.26065  0.05247  1.0000
  H   H1325     1.0  0.28396  0.42498  0.28742  1.0000
  S   S218      1.0  0.32447  0.37559  0.29759  1.0000
  C   C807      1.0  0.26029  0.36943  0.31145  1.0000
  H   H1326     1.0  0.24023  0.07654  0.22530  1.0000
  C   C808      1.0  0.29843  0.17922  0.09788  1.0000
  C   C809      1.0  0.29167  0.16274  0.10069  1.0000
  H   H1327     1.0  0.30619  0.17009  0.10192  1.0000
  H   H1328     1.0  0.29429  0.18837  0.11046  1.0000
  H   H1329     1.0  0.28453  0.19670  0.07149  1.0000
  H   H1330     1.0  0.26790  0.44808  0.25821  1.0000
  H   H1331     1.0  0.23840  0.03527  0.31743  1.0000
  H   H1332     1.0  0.31217  0.11282  0.03325  1.0000
  H   H1333     1.0  0.25847  0.48252  0.23951  1.0000
  C   C810      1.0  0.27078  0.45371  0.24152  1.0000
  H   H1334     1.0  0.28886  0.01275  0.15498  1.0000
  C   C811      1.0  0.36206  0.30358  0.25956  1.0000
  N   N55       1.0  0.41698  0.15032  0.17862  1.0000
  Fe  Fe108     1.0  0.29620  0.08233  0.99386  1.0000
  H   H1335     1.0  0.26989  0.48695  0.29739  1.0000
  H   H1336     1.0  0.36797  0.15844  0.13188  1.0000
  H   H1337     1.0  0.26879  0.07031  0.03504  1.0000
  H   H1338     1.0  0.41445  0.11847  0.18220  1.0000
  C   C812      1.0  0.41315  0.17178  0.16501  1.0000
  C   C813      1.0  0.32736  0.12244  0.02894  1.0000
  H   H1339     1.0  0.35575  0.28734  0.06484  1.0000
  H   H1340     1.0  0.34965  0.02323  0.08148  1.0000
  H   H1341     1.0  0.41899  0.18215  0.16138  1.0000
  C   C814      1.0  0.30357  0.22116  0.09377  1.0000
  H   H1342     1.0  0.32892  0.31566  0.28317  1.0000
  H   H1343     1.0  0.31563  0.17880  0.02890  1.0000
  H   H1344     1.0  0.25067  0.09362  0.03884  1.0000
  H   H1345     1.0  0.34314  0.47169  0.28471  1.0000
  H   H1346     1.0  0.47909  0.01665  0.17453  1.0000
  H   H1347     1.0  0.41254  0.16992  0.14951  1.0000
  H   H1348     1.0  0.29950  0.17570  0.05468  1.0000
  N   N56       1.0  0.27714  0.38309  0.30791  1.0000
  C   C815      1.0  0.31338  0.18931  0.04038  1.0000
  H   H1349     1.0  0.32407  0.34406  0.27387  1.0000
  H   H1350     1.0  0.33617  0.02753  0.13975  1.0000
  C   C816      1.0  0.32441  0.48332  0.25542  1.0000
  H   H1351     1.0  0.24805  0.02785  0.08774  1.0000
  H   H1352     1.0  0.36444  0.29806  0.27503  1.0000
  H   H1353     1.0  0.24466  0.02705  0.27013  1.0000
  H   H1354     1.0  0.34683  0.31438  0.27949  1.0000
  C   C817      1.0  0.42811  0.14114  0.16751  1.0000
  H   H1355     1.0  0.36535  0.03865  0.13147  1.0000
  H   H1356     1.0  0.30615  0.44786  0.30667  1.0000
  C   C818      1.0  0.35905  0.27888  0.03374  1.0000
  H   H1357     1.0  0.43381  0.15079  0.16712  1.0000
  C   C819      1.0  0.28954  0.20712  0.07246  1.0000
  H   H1358     1.0  0.30445  0.47519  0.29231  1.0000
  H   H1359     1.0  0.25215  0.45647  0.28840  1.0000
  H   H1360     1.0  0.28132  0.23336  0.05148  1.0000
  H   H1361     1.0  0.25454  0.10999  0.05182  1.0000
  H   H1362     1.0  0.25582  0.38343  0.30168  1.0000
  H   H1363     1.0  0.31038  0.16469  0.06732  1.0000
  H   H1364     1.0  0.43726  0.12887  0.13958  1.0000
  H   H1365     1.0  0.30404  0.21089  0.10966  1.0000
  N   N57       1.0  0.26363  0.06594  0.06908  1.0000
  H   H1366     1.0  0.36178  0.28716  0.01707  1.0000
  C   C820      1.0  0.26542  0.47317  0.23093  1.0000
  N   N58       1.0  0.28475  0.02541  0.19493  1.0000
  H   H1367     1.0  0.29298  0.21810  0.03787  1.0000
  C   C821      1.0  0.25119  0.04022  0.09090  1.0000
  H   H1368     1.0  0.27112  0.01987  0.06769  1.0000
  C   C822      1.0  0.27782  0.46791  0.19810  1.0000
  C   C823      1.0  0.28886  0.37973  0.29775  1.0000
  C   C824      1.0  0.36756  0.02504  0.12348  1.0000
  H   H1369     1.0  0.35053  0.23397  0.03482  1.0000
  H   H1370     1.0  0.36456  0.06163  0.09593  1.0000
  C   C825      1.0  0.34977  0.03743  0.11644  1.0000
  H   H1371     1.0  0.31603  0.04600  0.01782  1.0000
  H   H1372     1.0  0.30899  0.21941  0.06121  1.0000
  H   H1373     1.0  0.25660  0.04745  0.05658  1.0000
  C   C826      1.0  0.42937  0.13921  0.14466  1.0000
  H   H1374     1.0  0.42326  0.13160  0.14333  1.0000
  H   H1375     1.0  0.34871  0.05251  0.12167  1.0000
  H   H1376     1.0  0.37371  0.04252  0.08182  1.0000
  H   H1377     1.0  0.24745  0.06814  0.06738  1.0000
  S   S219      1.0  0.38134  0.07802  0.02787  1.0000
  C   C827      1.0  0.36332  0.00975  0.09834  1.0000
  C   C828      1.0  0.31515  0.12745  0.03116  1.0000
  H   H1378     1.0  0.36558  0.01104  0.13614  1.0000
  H   H1379     1.0  0.35403  0.30943  0.04327  1.0000
  C   C829      1.0  0.24103  0.05990  0.28714  1.0000
  H   H1380     1.0  0.36285  0.06953  0.05978  1.0000
  C   C830      1.0  0.33293  0.47164  0.26490  1.0000
  H   H1381     1.0  0.34788  0.02075  0.14989  1.0000
  H   H1382     1.0  0.38397  0.15901  0.03246  1.0000
  H   H1383     1.0  0.26829  0.10570  0.07159  1.0000
  H   H1384     1.0  0.29239  0.39218  0.29958  1.0000
  C   C831      1.0  0.29989  0.48808  0.20422  1.0000
  H   H1385     1.0  0.26322  0.40867  0.30441  1.0000
  H   H1386     1.0  0.38281  0.00779  0.10670  1.0000
  H   H1387     1.0  0.27669  0.42372  0.31466  1.0000
  H   H1388     1.0  0.31836  0.32511  0.26926  1.0000
  H   H1389     1.0  0.24976  0.04637  0.31242  1.0000
  H   H1390     1.0  0.29375  0.47835  0.21141  1.0000
  H   H1391     1.0  0.30426  0.35792  0.29662  1.0000
  H   H1392     1.0  0.33201  0.44789  0.31693  1.0000
  H   H1393     1.0  0.46253  0.02908  0.31285  1.0000
  H   H1394     1.0  0.35057  0.11183  0.99216  1.0000
  H   H1395     1.0  0.24419  0.04908  0.23721  1.0000
  S   S220      1.0  0.23764  0.02230  0.15616  1.0000
  H   H1396     1.0  0.34650  0.00535  0.13275  1.0000
  H   H1397     1.0  0.35899  0.00064  0.07365  1.0000
  H   H1398     1.0  0.37118  0.00758  0.08704  1.0000
  H   H1399     1.0  0.24490  0.04898  0.10204  1.0000
  C   C832      1.0  0.48694  0.01895  0.17464  1.0000
  C   C833      1.0  0.26695  0.49280  0.31231  1.0000
  H   H1400     1.0  0.29929  0.00066  0.19303  1.0000
  H   H1401     1.0  0.27387  0.48996  0.31941  1.0000
  H   H1402     1.0  0.29430  0.46738  0.31453  1.0000
  H   H1403     1.0  0.25801  0.35503  0.31026  1.0000
  H   H1404     1.0  0.46994  0.00223  0.31476  1.0000
  H   H1405     1.0  0.31600  0.47517  0.31257  1.0000
  C   C834      1.0  0.28455  0.00313  0.16930  1.0000
  S   S221      1.0  0.48643  0.04045  0.25313  1.0000
  H   H1406     1.0  0.27892  0.99723  0.16405  1.0000
  H   H1407     1.0  0.47064  0.99599  0.20194  1.0000
  C   C835      1.0  0.31493  0.37839  0.32106  1.0000
  C   C836      1.0  0.33833  0.08364  0.99068  1.0000
  C   C837      1.0  0.33097  0.13089  0.98970  1.0000
  H   H1408     1.0  0.44562  0.06347  0.32001  1.0000
  C   C838      1.0  0.33073  0.15459  0.98849  1.0000
  C   C839      1.0  0.27622  0.35980  0.34627  1.0000
  H   H1409     1.0  0.46758  0.02868  0.39527  1.0000
  N   N59       1.0  0.31049  0.45395  0.34220  1.0000
  H   H1410     1.0  0.26131  0.48283  0.32277  1.0000
  S   S222      1.0  0.26711  0.42051  0.41200  1.0000
  H   H1411     1.0  0.31421  0.42236  0.33522  1.0000
  H   H1412     1.0  0.24919  0.34421  0.53151  1.0000
  H   H1413     1.0  0.24917  0.37060  0.47275  1.0000
  Fe  Fe109     1.0  0.26386  0.45139  0.38853  1.0000
  S   S223      1.0  0.27267  0.43812  0.35980  1.0000
  Fe  Fe110     1.0  0.25197  0.41509  0.40794  1.0000
  H   H1414     1.0  0.25273  0.32562  0.48708  1.0000
  C   C840      1.0  0.29412  0.47771  0.40195  1.0000
  H   H1415     1.0  0.32587  0.47974  0.35759  1.0000
  C   C841      1.0  0.31614  0.36278  0.33944  1.0000
  H   H1416     1.0  0.45797  0.04919  0.38348  1.0000
  S   S224      1.0  0.23995  0.43274  0.64520  1.0000
  C   C842      1.0  0.46041  0.03160  0.38874  1.0000
  H   H1417     1.0  0.31506  0.45233  0.37124  1.0000
  H   H1418     1.0  0.26242  0.34067  0.47196  1.0000
  C   C843      1.0  0.25645  0.33850  0.48712  1.0000
  H   H1419     1.0  0.43853  0.01787  0.36586  1.0000
  H   H1420     1.0  0.28007  0.01427  0.65117  1.0000
  H   H1421     1.0  0.23785  0.40132  0.35063  1.0000
  H   H1422     1.0  0.30185  0.43693  0.38759  1.0000
  H   H1423     1.0  0.43539  0.05737  0.34328  1.0000
  H   H1424     1.0  0.28058  0.39050  0.33422  1.0000
  S   S225      1.0  0.23889  0.40386  0.43459  1.0000
  H   H1425     1.0  0.45194  0.00475  0.33903  1.0000
  H   H1426     1.0  0.23964  0.32575  0.51429  1.0000
  C   C844      1.0  0.29958  0.38109  0.35883  1.0000
  H   H1427     1.0  0.24142  0.32523  0.54806  1.0000
  H   H1428     1.0  0.29217  0.42733  0.38157  1.0000
  C   C845      1.0  0.46656  0.01532  0.32351  1.0000
  H   H1429     1.0  0.24184  0.33867  0.46435  1.0000
  C   C846      1.0  0.28471  0.47277  0.40091  1.0000
  N   N60       1.0  0.23731  0.35998  0.50010  1.0000
  H   H1430     1.0  0.28332  0.45675  0.40747  1.0000
  H   H1431     1.0  0.25767  0.37075  0.32820  1.0000
  H   H1432     1.0  0.47030  0.02570  0.35916  1.0000
  C   C847      1.0  0.29994  0.44834  0.35439  1.0000
  N   N61       1.0  0.45461  0.02250  0.35920  1.0000
  C   C848      1.0  0.24102  0.34118  0.53708  1.0000
  C   C849      1.0  0.47901  0.00923  0.43442  1.0000
  C   C850      1.0  0.30849  0.36412  0.35824  1.0000
  C   C851      1.0  0.44474  0.01667  0.37449  1.0000
  C   C852      1.0  0.27700  0.48882  0.39190  1.0000
  C   C853      1.0  0.30017  0.43121  0.37516  1.0000
  H   H1433     1.0  0.29657  0.44186  0.34478  1.0000
  C   C854      1.0  0.46335  0.01988  0.37044  1.0000
  H   H1434     1.0  0.44105  0.02825  0.38502  1.0000
  C   C855      1.0  0.29845  0.39699  0.34057  1.0000
  H   H1435     1.0  0.26045  0.37235  0.64678  1.0000
  H   H1436     1.0  0.23786  0.46945  0.35019  1.0000
  H   H1437     1.0  0.24437  0.37565  0.40536  1.0000
  H   H1438     1.0  0.45421  0.02545  0.40196  1.0000
  H   H1439     1.0  0.30945  0.35186  0.37237  1.0000
  C   C856      1.0  0.45180  0.04561  0.34807  1.0000
  C   C857      1.0  0.24875  0.36035  0.48900  1.0000
  H   H1440     1.0  0.30806  0.47796  0.36011  1.0000
  H   H1441     1.0  0.29395  0.46294  0.35817  1.0000
  Fe  Fe111     1.0  0.27487  0.40675  0.38311  1.0000
  H   H1442     1.0  0.26824  0.35693  0.35521  1.0000
  H   H1443     1.0  0.44849  0.05613  0.35964  1.0000
  S   S226      1.0  0.24795  0.44746  0.38706  1.0000
  H   H1444     1.0  0.28049  0.35948  0.35840  1.0000
  H   H1445     1.0  0.23945  0.40291  0.48037  1.0000
  S   S227      1.0  0.26501  0.48382  0.39053  1.0000
  H   H1446     1.0  0.30005  0.46540  0.40911  1.0000
  H   H1447     1.0  0.33163  0.45655  0.34675  1.0000
  C   C858      1.0  0.31415  0.46364  0.35599  1.0000
  H   H1448     1.0  0.29165  0.41025  0.34095  1.0000
  H   H1449     1.0  0.29647  0.35708  0.32265  1.0000
  S   S228      1.0  0.26008  0.39845  0.38126  1.0000
  C   C859      1.0  0.30851  0.47074  0.32263  1.0000
  H   H1450     1.0  0.30589  0.41600  0.37276  1.0000
  S   S229      1.0  0.29007  0.38173  0.38262  1.0000
  C   C860      1.0  0.31834  0.43380  0.33731  1.0000
  Fe  Fe112     1.0  0.25706  0.43118  0.36066  1.0000
  H   H1451     1.0  0.32296  0.34949  0.33912  1.0000
  C   C861      1.0  0.45861  0.00779  0.34384  1.0000
  H   H1452     1.0  0.25230  0.36796  0.49741  1.0000
  C   C862      1.0  0.32486  0.47060  0.34700  1.0000
  H   H1453     1.0  0.26111  0.33304  0.49966  1.0000
  H   H1454     1.0  0.32214  0.42507  0.35092  1.0000
  H   H1455     1.0  0.46647  0.00266  0.37697  1.0000
  H   H1456     1.0  0.45902  0.05154  0.33829  1.0000
  C   C863      1.0  0.27519  0.38220  0.33123  1.0000
  H   H1457     1.0  0.47742  0.01815  0.44657  1.0000
  H   H1458     1.0  0.48054  0.05821  0.33929  1.0000
  H   H1459     1.0  0.30345  0.48594  0.32697  1.0000
  H   H1460     1.0  0.26700  0.39130  0.33684  1.0000
  C   C864      1.0  0.47249  0.99532  0.43623  1.0000
  H   H1461     1.0  0.32527  0.48140  0.33125  1.0000
  H   H1462     1.0  0.28065  0.34617  0.33884  1.0000
  S   S230      1.0  0.25133  0.43430  0.33155  1.0000
  H   H1463     1.0  0.47324  0.01982  0.32673  1.0000
  C   C865      1.0  0.23940  0.47476  0.33321  1.0000
  C   C866      1.0  0.44346  0.05108  0.33436  1.0000
  H   H1464     1.0  0.44304  0.03740  0.32855  1.0000
  C   C867      1.0  0.48704  0.06178  0.32616  1.0000
  H   H1465     1.0  0.27039  0.38557  0.64686  1.0000
  C   C868      1.0  0.30611  0.39563  0.32169  1.0000
  Fe  Fe113     1.0  0.25237  0.42404  0.71199  1.0000
  S   S231      1.0  0.25559  0.39555  0.73835  1.0000
  S   S232      1.0  0.25413  0.45586  0.71379  1.0000
  H   H1466     1.0  0.43965  0.06919  0.96845  1.0000
  Fe  Fe114     1.0  0.33511  0.23221  0.94847  1.0000
  S   S233      1.0  0.34524  0.25605  0.93059  1.0000
  S   S234      1.0  0.33309  0.21047  0.93024  1.0000
  C   C869      1.0  0.33434  0.37857  0.83709  1.0000
  H   H1467     1.0  0.24918  0.39097  0.70280  1.0000
  H   H1468     1.0  0.31989  0.03282  0.91481  1.0000
  Fe  Fe115     1.0  0.33248  0.27879  0.94792  1.0000
  S   S235      1.0  0.32502  0.31243  0.93314  1.0000
  Fe  Fe116     1.0  0.35225  0.24648  0.95931  1.0000
  H   H1469     1.0  0.45060  0.05467  0.95347  1.0000
  H   H1470     1.0  0.28059  0.47759  0.80619  1.0000
  H   H1471     1.0  0.44135  0.08278  0.77958  1.0000
  H   H1472     1.0  0.24166  0.02301  0.79831  1.0000
  Fe  Fe117     1.0  0.30246  0.38251  0.78498  1.0000
  S   S236      1.0  0.31782  0.38296  0.79217  1.0000
  S   S237      1.0  0.30195  0.38343  0.75175  1.0000
  Fe  Fe118     1.0  0.28994  0.38571  0.82898  1.0000
  S   S238      1.0  0.30402  0.38718  0.83983  1.0000
  S   S239      1.0  0.27465  0.38394  0.85286  1.0000
  Fe  Fe119     1.0  0.30787  0.40925  0.80845  1.0000
  S   S240      1.0  0.31285  0.43938  0.80688  1.0000
  Fe  Fe120     1.0  0.31269  0.36068  0.82292  1.0000
  S   S241      1.0  0.32455  0.33206  0.83606  1.0000
  S   S242      1.0  0.29284  0.41053  0.79912  1.0000
  S   S243      1.0  0.29829  0.35754  0.81408  1.0000
  H   H1473     1.0  0.36682  0.37143  0.81863  1.0000
  H   H1474     1.0  0.39177  0.23018  0.94072  1.0000
  C   C870      1.0  0.30733  0.19055  0.97054  1.0000
  C   C871      1.0  0.42655  0.08406  0.94131  1.0000
  H   H1475     1.0  0.43622  0.03025  0.87845  1.0000
  H   H1476     1.0  0.43544  0.05302  0.77860  1.0000
  H   H1477     1.0  0.31642  0.05637  0.88130  1.0000
  H   H1478     1.0  0.28994  0.43106  0.74606  1.0000
  S   S244      1.0  0.44922  0.01230  0.83573  1.0000
  S   S245      1.0  0.30058  0.11830  0.93775  1.0000
  H   H1479     1.0  0.48248  0.06798  0.77870  1.0000
  Fe  Fe121     1.0  0.28747  0.10024  0.95392  1.0000
  S   S246      1.0  0.27489  0.10337  0.93598  1.0000
  Fe  Fe122     1.0  0.31119  0.08800  0.95125  1.0000
  S   S247      1.0  0.32707  0.07284  0.93347  1.0000
  C   C872      1.0  0.42661  0.04222  0.97047  1.0000
  H   H1480     1.0  0.40699  0.05452  0.80713  1.0000
  Fe  Fe123     1.0  0.39530  0.07937  0.94925  1.0000
  H   H1481     1.0  0.41999  0.07857  0.93856  1.0000
  S   S248      1.0  0.40643  0.05224  0.93471  1.0000
  Fe  Fe124     1.0  0.39190  0.12413  0.95659  1.0000
  S   S249      1.0  0.36957  0.24284  0.95850  1.0000
  C   C873      1.0  0.32161  0.48436  0.75523  1.0000
  H   H1482     1.0  0.32885  0.37499  0.82939  1.0000
  C   C874      1.0  0.30987  0.04920  0.88092  1.0000
  Fe  Fe125     1.0  0.37323  0.10768  0.95529  1.0000
  S   S250      1.0  0.35749  0.12314  0.94631  1.0000
  S   S251      1.0  0.32959  0.48580  0.71277  1.0000
  S   S252      1.0  0.38845  0.11205  0.93178  1.0000
  C   C875      1.0  0.41517  0.05731  0.90991  1.0000
  C   C876      1.0  0.42299  0.08175  0.87929  1.0000
  C   C877      1.0  0.41531  0.07818  0.89815  1.0000
  H   H1483     1.0  0.42319  0.09794  0.87043  1.0000
  H   H1484     1.0  0.40962  0.09157  0.90376  1.0000
  C   C878      1.0  0.33632  0.08689  0.93391  1.0000
  C   C879      1.0  0.33306  0.10884  0.93334  1.0000
  C   C880      1.0  0.33999  0.11993  0.93574  1.0000
  C   C881      1.0  0.35006  0.10904  0.93953  1.0000
  C   C882      1.0  0.35352  0.08719  0.93945  1.0000
  C   C883      1.0  0.34666  0.07614  0.93639  1.0000
  H   H1485     1.0  0.32511  0.11720  0.93139  1.0000
  H   H1486     1.0  0.33732  0.13682  0.93572  1.0000
  H   H1487     1.0  0.36130  0.07870  0.94237  1.0000
  H   H1488     1.0  0.34917  0.05912  0.93696  1.0000
  H   H1489     1.0  0.34264  0.37070  0.79754  1.0000
  C   C884      1.0  0.26051  0.06469  0.92119  1.0000
  C   C885      1.0  0.26381  0.08266  0.92226  1.0000
  C   C886      1.0  0.27022  0.08085  0.93631  1.0000
  C   C887      1.0  0.27315  0.06100  0.94957  1.0000
  C   C888      1.0  0.26981  0.04307  0.94856  1.0000
  H   H1490     1.0  0.25567  0.06619  0.91018  1.0000
  H   H1491     1.0  0.26151  0.09797  0.91196  1.0000
  H   H1492     1.0  0.27802  0.05944  0.96053  1.0000
  C   C889      1.0  0.25250  0.47334  0.76939  1.0000
  C   C890      1.0  0.43064  0.06452  0.87226  1.0000
  H   H1493     1.0  0.36546  0.20003  0.97287  1.0000
  H   H1494     1.0  0.25220  0.03317  0.80172  1.0000
  H   H1495     1.0  0.33390  0.16218  0.97189  1.0000
  C   C891      1.0  0.31826  0.45189  0.78101  1.0000
  C   C892      1.0  0.32237  0.44031  0.76501  1.0000
  C   C893      1.0  0.32628  0.45065  0.74426  1.0000
  C   C894      1.0  0.32572  0.47277  0.73924  1.0000
  H   H1496     1.0  0.31519  0.46212  0.70838  1.0000
  C   C895      1.0  0.31806  0.47386  0.77615  1.0000
  H   H1497     1.0  0.32254  0.42342  0.76851  1.0000
  H   H1498     1.0  0.29524  0.45652  0.69899  1.0000
  H   H1499     1.0  0.41467  0.02812  0.85274  1.0000
  H   H1500     1.0  0.41581  0.08529  0.76920  1.0000
  C   C896      1.0  0.37778  0.21747  0.95680  1.0000
  C   C897      1.0  0.38856  0.21587  0.94700  1.0000
  H   H1501     1.0  0.25279  0.05730  0.77117  1.0000
  H   H1502     1.0  0.41860  0.05290  0.97092  1.0000
  C   C898      1.0  0.38042  0.17880  0.96323  1.0000
  H   H1503     1.0  0.26128  0.46694  0.87387  1.0000
  S   S253      1.0  0.39938  0.15267  0.94789  1.0000
  C   C899      1.0  0.28586  0.48547  0.72293  1.0000
  C   C900      1.0  0.37373  0.19889  0.96507  1.0000
  H   H1504     1.0  0.29584  0.48535  0.65861  1.0000
  C   C901      1.0  0.32550  0.31865  0.90586  1.0000
  C   C902      1.0  0.31785  0.33566  0.89765  1.0000
  C   C903      1.0  0.31748  0.33987  0.87628  1.0000
  C   C904      1.0  0.32493  0.32749  0.86285  1.0000
  C   C905      1.0  0.33277  0.31087  0.87092  1.0000
  C   C906      1.0  0.33301  0.30634  0.89241  1.0000
  H   H1505     1.0  0.31197  0.34513  0.90802  1.0000
  H   H1506     1.0  0.31127  0.35240  0.87040  1.0000
  H   H1507     1.0  0.33859  0.30128  0.86060  1.0000
  H   H1508     1.0  0.33901  0.29339  0.89853  1.0000
  H   H1509     1.0  0.28401  0.48657  0.70767  1.0000
  H   H1510     1.0  0.45854  0.05185  0.91933  1.0000
  C   C907      1.0  0.32298  0.19623  0.94301  1.0000
  C   C908      1.0  0.32253  0.17885  0.93560  1.0000
  C   C909      1.0  0.31465  0.16694  0.94599  1.0000
  C   C910      1.0  0.30703  0.17283  0.96347  1.0000
  C   C911      1.0  0.25899  0.42090  0.79207  1.0000
  C   C912      1.0  0.31537  0.20206  0.96052  1.0000
  H   H1511     1.0  0.32837  0.17436  0.92198  1.0000
  H   H1512     1.0  0.31442  0.15333  0.94043  1.0000
  H   H1513     1.0  0.29283  0.47509  0.81323  1.0000
  C   C913      1.0  0.24554  0.99868  0.70508  1.0000
  C   C914      1.0  0.24783  0.44344  0.84933  1.0000
  C   C915      1.0  0.25801  0.44467  0.83694  1.0000
  C   C916      1.0  0.26632  0.42640  0.83775  1.0000
  C   C917      1.0  0.26445  0.40697  0.85111  1.0000
  C   C918      1.0  0.25427  0.40580  0.86348  1.0000
  H   H1514     1.0  0.47313  0.01784  0.73642  1.0000
  H   H1515     1.0  0.25940  0.45951  0.82633  1.0000
  H   H1516     1.0  0.27415  0.42734  0.82808  1.0000
  H   H1517     1.0  0.25279  0.39078  0.87381  1.0000
  C   C919      1.0  0.48121  0.01148  0.73996  1.0000
  C   C920      1.0  0.26865  0.39042  0.74187  1.0000
  C   C921      1.0  0.27698  0.39461  0.72460  1.0000
  C   C922      1.0  0.28730  0.39150  0.72772  1.0000
  C   C923      1.0  0.28922  0.38500  0.74815  1.0000
  C   C924      1.0  0.28092  0.38050  0.76541  1.0000
  C   C925      1.0  0.27069  0.38276  0.76220  1.0000
  H   H1518     1.0  0.27549  0.40041  0.70884  1.0000
  H   H1519     1.0  0.29372  0.39488  0.71433  1.0000
  H   H1520     1.0  0.28238  0.37526  0.78121  1.0000
  H   H1521     1.0  0.26429  0.37919  0.77558  1.0000
  C   C926      1.0  0.27892  0.47170  0.83987  1.0000
  H   H1522     1.0  0.27067  0.35488  0.67561  1.0000
  H   H1523     1.0  0.30437  0.47368  0.73745  1.0000
  H   H1524     1.0  0.47987  0.04300  0.74597  1.0000
  C   C927      1.0  0.31532  0.02664  0.87660  1.0000
  H   H1525     1.0  0.23872  0.00535  0.77446  1.0000
  H   H1526     1.0  0.47735  0.02284  0.76904  1.0000
  C   C928      1.0  0.32749  0.39328  0.85227  1.0000
  C   C929      1.0  0.24595  0.42396  0.86246  1.0000
  S   S254      1.0  0.31003  0.09823  0.98095  1.0000
  H   H1527     1.0  0.40343  0.19482  0.93657  1.0000
  H   H1528     1.0  0.42723  0.00057  0.79383  1.0000
  H   H1529     1.0  0.33238  0.40572  0.80077  1.0000
  H   H1530     1.0  0.24439  0.03183  0.70428  1.0000
  H   H1531     1.0  0.29018  0.01774  0.90213  1.0000
  H   H1532     1.0  0.32068  0.02833  0.86067  1.0000
  C   C930      1.0  0.39108  0.17728  0.95252  1.0000
  C   C931      1.0  0.41310  0.04582  0.84733  1.0000
  H   H1533     1.0  0.29818  0.46158  0.86855  1.0000
  H   H1534     1.0  0.26134  0.00461  0.73995  1.0000
  C   C932      1.0  0.26258  0.02077  0.73882  1.0000
  H   H1535     1.0  0.41732  0.02058  0.82121  1.0000
  H   H1536     1.0  0.28561  0.42646  0.89486  1.0000
  H   H1537     1.0  0.26638  0.04711  0.76103  1.0000
  H   H1538     1.0  0.28898  0.48816  0.76215  1.0000
  H   H1539     1.0  0.29208  0.40636  0.88000  1.0000
  C   C933      1.0  0.28553  0.46861  0.81791  1.0000
  C   C934      1.0  0.44881  0.08913  0.94439  1.0000
  H   H1540     1.0  0.30388  0.01633  0.91433  1.0000
  H   H1541     1.0  0.32230  0.38406  0.86536  1.0000
  S   S255      1.0  0.40024  0.09185  0.97199  1.0000
  H   H1542     1.0  0.34835  0.40594  0.83616  1.0000
  H   H1543     1.0  0.25021  0.33797  0.72161  1.0000
  H   H1544     1.0  0.30347  0.43815  0.71569  1.0000
  H   H1545     1.0  0.29844  0.10516  0.89804  1.0000
  H   H1546     1.0  0.30966  0.01722  0.87678  1.0000
  S   S256      1.0  0.28408  0.11162  0.98399  1.0000
  H   H1547     1.0  0.35122  0.37814  0.84705  1.0000
  H   H1548     1.0  0.35114  0.40956  0.77830  1.0000
  H   H1549     1.0  0.28123  0.46280  0.89095  1.0000
  H   H1550     1.0  0.27242  0.43511  0.73649  1.0000
  H   H1551     1.0  0.32943  0.44163  0.73194  1.0000
  N   N62       1.0  0.34335  0.38699  0.82069  1.0000
  H   H1552     1.0  0.27163  0.46574  0.84229  1.0000
  H   H1553     1.0  0.26202  0.46567  0.90008  1.0000
  C   C935      1.0  0.29962  0.45544  0.71123  1.0000
  C   C936      1.0  0.35230  0.34785  0.81800  1.0000
  H   H1554     1.0  0.42721  0.09086  0.78829  1.0000
  H   H1555     1.0  0.42706  0.10530  0.90972  1.0000
  S   S257      1.0  0.27701  0.46985  0.66479  1.0000
  H   H1556     1.0  0.30083  0.46060  0.84164  1.0000
  H   H1557     1.0  0.28867  0.09568  0.89209  1.0000
  C   C937      1.0  0.45239  0.05110  0.91158  1.0000
  H   H1558     1.0  0.26657  0.37820  0.68577  1.0000
  H   H1559     1.0  0.45096  0.09453  0.92706  1.0000
  H   H1560     1.0  0.23892  0.04409  0.76722  1.0000
  H   H1561     1.0  0.31211  0.46380  0.68389  1.0000
  H   H1562     1.0  0.44065  0.04536  0.80127  1.0000
  C   C938      1.0  0.29726  0.09200  0.89233  1.0000
  H   H1563     1.0  0.31108  0.04113  0.93787  1.0000
  H   H1564     1.0  0.45871  0.00121  0.73639  1.0000
  C   C939      1.0  0.26381  0.36843  0.67813  1.0000
  Fe  Fe126     1.0  0.24280  0.03723  0.86900  1.0000
  H   H1565     1.0  0.25907  0.43276  0.80059  1.0000
  H   H1566     1.0  0.28877  0.06594  0.88243  1.0000
  H   H1567     1.0  0.24248  0.34326  0.69337  1.0000
  H   H1568     1.0  0.34141  0.43361  0.78038  1.0000
  C   C940      1.0  0.43440  0.07914  0.79239  1.0000
  C   C941      1.0  0.43385  0.04541  0.94812  1.0000
  H   H1569     1.0  0.36386  0.39846  0.80373  1.0000
  H   H1570     1.0  0.33237  0.39907  0.85947  1.0000
  H   H1571     1.0  0.25167  0.00572  0.81151  1.0000
  H   H1572     1.0  0.45572  0.05429  0.89426  1.0000
  C   C942      1.0  0.25742  0.01375  0.77744  1.0000
  H   H1573     1.0  0.43645  0.06623  0.90776  1.0000
  C   C943      1.0  0.27494  0.49310  0.73713  1.0000
  H   H1574     1.0  0.45645  0.08531  0.94954  1.0000
  N   N63       1.0  0.43674  0.06708  0.93922  1.0000
  H   H1575     1.0  0.32040  0.01726  0.88795  1.0000
  H   H1576     1.0  0.24942  0.07383  0.73507  1.0000
  H   H1577     1.0  0.47871  0.00428  0.70418  1.0000
  N   N64       1.0  0.36625  0.18003  0.90570  1.0000
  C   C944      1.0  0.35712  0.17255  0.90295  1.0000
  C   C945      1.0  0.36727  0.17142  0.92832  1.0000
  C   C946      1.0  0.37622  0.17014  0.89159  1.0000
  C   C947      1.0  0.36409  0.20423  0.89962  1.0000
  C   C948      1.0  0.35516  0.17845  0.88037  1.0000
  C   C949      1.0  0.35710  0.17698  0.94519  1.0000
  C   C950      1.0  0.38684  0.17418  0.89267  1.0000
  C   C951      1.0  0.36922  0.21572  0.91001  1.0000
  H   H1578     1.0  0.35821  0.15483  0.90835  1.0000
  H   H1579     1.0  0.34947  0.17931  0.91286  1.0000
  H   H1580     1.0  0.37356  0.17709  0.93147  1.0000
  H   H1581     1.0  0.36997  0.15369  0.93156  1.0000
  H   H1582     1.0  0.37709  0.15240  0.89506  1.0000
  H   H1583     1.0  0.37574  0.17596  0.87471  1.0000
  H   H1584     1.0  0.36664  0.20972  0.88223  1.0000
  H   H1585     1.0  0.35538  0.21125  0.90337  1.0000
  H   H1586     1.0  0.34745  0.17470  0.88106  1.0000
  H   H1587     1.0  0.35456  0.19575  0.87322  1.0000
  H   H1588     1.0  0.36135  0.16871  0.86999  1.0000
  H   H1589     1.0  0.35109  0.16788  0.94625  1.0000
  H   H1590     1.0  0.35911  0.17240  0.96094  1.0000
  H   H1591     1.0  0.35342  0.19426  0.94212  1.0000
  H   H1592     1.0  0.38832  0.16957  0.90885  1.0000
  H   H1593     1.0  0.38748  0.19098  0.88528  1.0000
  H   H1594     1.0  0.39347  0.16409  0.88329  1.0000
  H   H1595     1.0  0.36527  0.21523  0.92682  1.0000
  H   H1596     1.0  0.36814  0.23294  0.90203  1.0000
  H   H1597     1.0  0.37786  0.20940  0.90892  1.0000
  C   C952      1.0  0.24577  0.38086  0.69690  1.0000
  S   S258      1.0  0.37966  0.07404  0.97113  1.0000
  C   C953      1.0  0.26353  0.04480  0.93431  1.0000
  S   S259      1.0  0.37617  0.12233  0.97881  1.0000
  C   C954      1.0  0.44206  0.06803  0.91625  1.0000
  H   H1598     1.0  0.32302  0.12992  0.98823  1.0000
  N   N65       1.0  0.25562  0.02989  0.75744  1.0000
  Fe  Fe127     1.0  0.26116  0.46019  0.67907  1.0000
  N   N66       1.0  0.30877  0.26871  0.89806  1.0000
  C   C955      1.0  0.31802  0.26850  0.87916  1.0000
  C   C956      1.0  0.29871  0.27888  0.88986  1.0000
  C   C957      1.0  0.30870  0.24577  0.90987  1.0000
  C   C958      1.0  0.31040  0.28151  0.91175  1.0000
  C   C959      1.0  0.32902  0.25574  0.88362  1.0000
  C   C960      1.0  0.29792  0.30209  0.87665  1.0000
  C   C961      1.0  0.29782  0.24027  0.92186  1.0000
  C   C962      1.0  0.30153  0.28496  0.93135  1.0000
  H   H1599     1.0  0.31646  0.26181  0.86713  1.0000
  H   H1600     1.0  0.31906  0.28504  0.87114  1.0000
  H   H1601     1.0  0.29152  0.27931  0.90290  1.0000
  H   H1602     1.0  0.29770  0.26902  0.87988  1.0000
  H   H1603     1.0  0.31205  0.23455  0.89890  1.0000
  H   H1604     1.0  0.31396  0.24063  0.92138  1.0000
  H   H1605     1.0  0.31782  0.27394  0.91772  1.0000
  H   H1606     1.0  0.31150  0.29756  0.90233  1.0000
  H   H1607     1.0  0.32930  0.23833  0.88933  1.0000
  H   H1608     1.0  0.33511  0.25769  0.86864  1.0000
  H   H1609     1.0  0.33152  0.26164  0.89491  1.0000
  H   H1610     1.0  0.30401  0.30324  0.86165  1.0000
  H   H1611     1.0  0.29006  0.30781  0.87217  1.0000
  H   H1612     1.0  0.29834  0.31337  0.88566  1.0000
  H   H1613     1.0  0.29303  0.25106  0.93252  1.0000
  H   H1614     1.0  0.29918  0.22375  0.93172  1.0000
  H   H1615     1.0  0.29307  0.24032  0.91069  1.0000
  H   H1616     1.0  0.29373  0.29334  0.92731  1.0000
  H   H1617     1.0  0.30362  0.29534  0.93931  1.0000
  H   H1618     1.0  0.30091  0.26969  0.94297  1.0000
  C   C963      1.0  0.42448  0.02594  0.81040  1.0000
  Fe  Fe128     1.0  0.24435  0.44180  0.67124  1.0000
  H   H1619     1.0  0.23745  0.10218  0.77069  1.0000
  S   S260      1.0  0.46256  0.04872  0.80540  1.0000
  S   S261      1.0  0.26001  0.02154  0.93298  1.0000
  H   H1620     1.0  0.26036  0.46223  0.76924  1.0000
  C   C964      1.0  0.42659  0.10618  0.92616  1.0000
  S   S262      1.0  0.44073  0.06972  0.84969  1.0000
  S   S263      1.0  0.24359  0.06418  0.84017  1.0000
  C   C965      1.0  0.26731  0.33162  0.71261  1.0000
  C   C966      1.0  0.29109  0.42356  0.87979  1.0000
  C   C967      1.0  0.31279  0.02981  0.92739  1.0000
  H   H1621     1.0  0.27214  0.02773  0.95880  1.0000
  C   C968      1.0  0.43372  0.05578  0.79475  1.0000
  H   H1622     1.0  0.25045  0.47651  0.75386  1.0000
  H   H1623     1.0  0.44336  0.10254  0.95140  1.0000
  N   N67       1.0  0.42353  0.04956  0.80826  1.0000
  C   C969      1.0  0.27708  0.46792  0.87761  1.0000
  H   H1624     1.0  0.32208  0.40707  0.84430  1.0000
  C   C970      1.0  0.27839  0.44457  0.72657  1.0000
  C   C971      1.0  0.29476  0.46779  0.85422  1.0000
  H   H1625     1.0  0.27884  0.01051  0.72225  1.0000
  C   C972      1.0  0.28505  0.44722  0.74061  1.0000
  S   S264      1.0  0.45552  0.01733  0.77348  1.0000
  H   H1626     1.0  0.29815  0.46845  0.77553  1.0000
  S   S265      1.0  0.32182  0.25548  0.96409  1.0000
  H   H1627     1.0  0.44110  0.03235  0.94891  1.0000
  H   H1628     1.0  0.29906  0.42604  0.87907  1.0000
  C   C973      1.0  0.25762  0.06833  0.73790  1.0000
  Fe  Fe129     1.0  0.45314  0.04186  0.83875  1.0000
  C   C974      1.0  0.43035  0.04362  0.88375  1.0000
  H   H1629     1.0  0.42388  0.08686  0.95767  1.0000
  S   S266      1.0  0.34047  0.27159  0.97508  1.0000
  S   S267      1.0  0.29832  0.06931  0.96533  1.0000
  H   H1630     1.0  0.25452  0.43453  0.76162  1.0000
  C   C975      1.0  0.23966  0.08544  0.80182  1.0000
  H   H1631     1.0  0.26572  0.01127  0.77915  1.0000
  H   H1632     1.0  0.33658  0.12654  0.97527  1.0000
  H   H1633     1.0  0.43135  0.01640  0.81759  1.0000
  H   H1634     1.0  0.30349  0.44661  0.74971  1.0000
  H   H1635     1.0  0.33740  0.36311  0.84740  1.0000
  N   N68       1.0  0.28436  0.46113  0.85803  1.0000
  H   H1636     1.0  0.27942  0.45117  0.75511  1.0000
  C   C976      1.0  0.24003  0.01961  0.70652  1.0000
  H   H1637     1.0  0.43301  0.11349  0.92647  1.0000
  C   C977      1.0  0.25828  0.05032  0.75789  1.0000
  S   S268      1.0  0.46756  0.02418  0.85213  1.0000
  S   S269      1.0  0.25792  0.01606  0.87788  1.0000
  C   C978      1.0  0.42246  0.05314  0.83001  1.0000
  H   H1638     1.0  0.27939  0.43183  0.86072  1.0000
  H   H1639     1.0  0.31486  0.01345  0.93714  1.0000
  C   C979      1.0  0.25057  0.42882  0.77832  1.0000
  H   H1640     1.0  0.45088  0.03468  0.91596  1.0000
  H   H1641     1.0  0.42972  0.04191  0.93762  1.0000
  H   H1642     1.0  0.26709  0.41780  0.78187  1.0000
  H   H1643     1.0  0.43264  0.02262  0.77761  1.0000
  H   H1644     1.0  0.25982  0.08237  0.74014  1.0000
  H   H1645     1.0  0.28340  0.43568  0.71431  1.0000
  H   H1646     1.0  0.25768  0.40594  0.80385  1.0000
  H   H1647     1.0  0.35624  0.34681  0.83079  1.0000
  H   H1648     1.0  0.25669  0.31509  0.68627  1.0000
  H   H1649     1.0  0.42134  0.05781  0.76688  1.0000
  H   H1650     1.0  0.27410  0.46008  0.71861  1.0000
  H   H1651     1.0  0.24562  0.36056  0.66904  1.0000
  N   N69       1.0  0.29207  0.46316  0.73022  1.0000
  H   H1652     1.0  0.42252  0.02387  0.91151  1.0000
  H   H1653     1.0  0.35805  0.33882  0.80643  1.0000
  C   C980      1.0  0.33852  0.40801  0.80774  1.0000
  C   C981      1.0  0.41378  0.06273  0.80002  1.0000
  H   H1654     1.0  0.35527  0.37599  0.79437  1.0000
  C   C982      1.0  0.30864  0.46756  0.69976  1.0000
  H   H1655     1.0  0.42984  0.04494  0.83595  1.0000
  C   C983      1.0  0.29426  0.49213  0.84816  1.0000
  N   N70       1.0  0.30108  0.05052  0.90047  1.0000
  C   C984      1.0  0.36283  0.38818  0.81976  1.0000
  H   H1656     1.0  0.35115  0.42633  0.79571  1.0000
  C   C985      1.0  0.30041  0.07055  0.90768  1.0000
  C   C986      1.0  0.26651  0.46008  0.88539  1.0000
  H   H1657     1.0  0.43022  0.04423  0.98253  1.0000
  C   C987      1.0  0.28663  0.43720  0.86035  1.0000
  H   H1658     1.0  0.44400  0.08382  0.90806  1.0000
  H   H1659     1.0  0.28764  0.45161  0.81673  1.0000
  H   H1660     1.0  0.29589  0.03259  0.93206  1.0000
  H   H1661     1.0  0.29256  0.43232  0.84638  1.0000
  H   H1662     1.0  0.28643  0.46140  0.77498  1.0000
  H   H1663     1.0  0.28397  0.05579  0.90955  1.0000
  H   H1664     1.0  0.29456  0.07111  0.92301  1.0000
  Fe  Fe130     1.0  0.47661  0.02835  0.81840  1.0000
  H   H1665     1.0  0.33430  0.41988  0.81775  1.0000
  C   C988      1.0  0.29042  0.05229  0.89581  1.0000
  S   S270      1.0  0.34330  0.22048  0.97564  1.0000
  H   H1666     1.0  0.42147  0.07043  0.82957  1.0000
  Fe  Fe131     1.0  0.25014  0.02079  0.91076  1.0000
  S   S271      1.0  0.24550  0.47551  0.66943  1.0000
  C   C989      1.0  0.30296  0.03178  0.91862  1.0000
  H   H1667     1.0  0.41116  0.07831  0.80510  1.0000
  C   C990      1.0  0.39517  0.19586  0.94469  1.0000
  H   H1668     1.0  0.29316  0.03093  0.87417  1.0000
  Fe  Fe132     1.0  0.29816  0.12692  0.96897  1.0000
  C   C991      1.0  0.35106  0.39003  0.83176  1.0000
  H   H1669     1.0  0.26321  0.06349  0.72366  1.0000
  H   H1670     1.0  0.26506  0.33181  0.66683  1.0000
  C   C992      1.0  0.42260  0.04005  0.90246  1.0000
  C   C993      1.0  0.23949  0.01518  0.75824  1.0000
  S   S272      1.0  0.26066  0.42704  0.67799  1.0000
  C   C994      1.0  0.24384  0.46477  0.78762  1.0000
  H   H1671     1.0  0.36721  0.39320  0.82870  1.0000
  H   H1672     1.0  0.33519  0.09254  0.97644  1.0000
  C   C995      1.0  0.28863  0.03279  0.89022  1.0000
  H   H1673     1.0  0.24649  0.46208  0.80255  1.0000
  H   H1674     1.0  0.28008  0.03571  0.88984  1.0000
  C   C996      1.0  0.24418  0.03468  0.75560  1.0000
  C   C997      1.0  0.29864  0.46303  0.74514  1.0000
  C   C998      1.0  0.34839  0.37115  0.80659  1.0000
  H   H1675     1.0  0.26038  0.03056  0.72375  1.0000
  H   H1676     1.0  0.34558  0.33954  0.82482  1.0000
  H   H1677     1.0  0.30219  0.09242  0.87612  1.0000
  H   H1678     1.0  0.40737  0.06785  0.77221  1.0000
  H   H1679     1.0  0.30587  0.48516  0.69750  1.0000
  H   H1680     1.0  0.24413  0.00517  0.74679  1.0000
  H   H1681     1.0  0.30817  0.07071  0.91067  1.0000
  S   S273      1.0  0.47461  0.99778  0.81349  1.0000
  C   C999      1.0  0.34619  0.41961  0.78959  1.0000
  H   H1682     1.0  0.30689  0.05900  0.86660  1.0000
  H   H1683     1.0  0.24314  0.04493  0.73991  1.0000
  H   H1684     1.0  0.41892  0.11731  0.93096  1.0000
  C   C1000     1.0  0.41489  0.06848  0.77576  1.0000
  H   H1685     1.0  0.48046  0.03983  0.70432  1.0000
  H   H1686     1.0  0.43583  0.08151  0.80695  1.0000
  C   C1001     1.0  0.48667  0.99672  0.70810  1.0000
  C   C1002     1.0  0.27470  0.01797  0.73602  1.0000
  H   H1687     1.0  0.23806  0.42292  0.87197  1.0000
  C   C1003     1.0  0.44399  0.06906  0.95183  1.0000
  Fe  Fe133     1.0  0.45970  0.01778  0.80337  1.0000
  H   H1688     1.0  0.27385  0.34028  0.70894  1.0000
  H   H1689     1.0  0.40539  0.05183  0.84234  1.0000
  H   H1690     1.0  0.48077  0.99569  0.75068  1.0000
  C   C1004     1.0  0.25024  0.01954  0.79820  1.0000
  H   H1691     1.0  0.27404  0.48574  0.75410  1.0000
  H   H1692     1.0  0.27709  0.03344  0.73270  1.0000
  H   H1693     1.0  0.25661  0.99773  0.77690  1.0000
  H   H1694     1.0  0.31564  0.21546  0.96632  1.0000
  H   H1695     1.0  0.25618  0.35775  0.72392  1.0000
  H   H1696     1.0  0.37725  0.16459  0.96957  1.0000
  H   H1697     1.0  0.24535  0.09438  0.80166  1.0000
  C   C1005     1.0  0.42574  0.01836  0.79007  1.0000
  H   H1698     1.0  0.26775  0.44238  0.88930  1.0000
  H   H1699     1.0  0.30141  0.19516  0.98402  1.0000
  H   H1700     1.0  0.41225  0.05228  0.86139  1.0000
  H   H1701     1.0  0.26902  0.32112  0.70141  1.0000
  N   N71       1.0  0.25401  0.36106  0.69234  1.0000
  H   H1702     1.0  0.42532  0.02559  0.97516  1.0000
  H   H1703     1.0  0.26739  0.32112  0.72856  1.0000
  C   C1006     1.0  0.25642  0.34744  0.71317  1.0000
  H   H1704     1.0  0.41833  0.02424  0.78396  1.0000
  S   S274      1.0  0.29709  0.15835  0.97703  1.0000
  C   C1007     1.0  0.24932  0.34944  0.68206  1.0000
  H   H1705     1.0  0.25397  0.32790  0.66046  1.0000
  C   C1008     1.0  0.25677  0.32993  0.67369  1.0000
  H   H1706     1.0  0.24824  0.41416  0.77789  1.0000
  Fe  Fe134     1.0  0.23843  0.46838  0.70430  1.0000
  C   C1009     1.0  0.29249  0.47072  0.76549  1.0000
  H   H1707     1.0  0.24329  0.39110  0.68229  1.0000
  H   H1708     1.0  0.31486  0.48296  0.78840  1.0000
  H   H1709     1.0  0.27474  0.48571  0.87498  1.0000
  C   C1010     1.0  0.48253  0.02582  0.75306  1.0000
  H   H1710     1.0  0.27767  0.00701  0.74981  1.0000
  H   H1711     1.0  0.26835  0.49119  0.73125  1.0000
  H   H1712     1.0  0.29258  0.99878  0.65776  1.0000
  N   N72       1.0  0.24089  0.44513  0.78573  1.0000
  H   H1713     1.0  0.34703  0.08248  0.98741  1.0000
  H   H1714     1.0  0.25331  0.48870  0.77161  1.0000
  H   H1715     1.0  0.27608  0.48913  0.83900  1.0000
  H   H1716     1.0  0.23843  0.45892  0.75401  1.0000
  H   H1717     1.0  0.24013  0.43110  0.81894  1.0000
  H   H1718     1.0  0.30226  0.49495  0.84675  1.0000
  C   C1011     1.0  0.27878  0.49325  0.66946  1.0000
  H   H1719     1.0  0.25681  0.39691  0.65619  1.0000
  C   C1012     1.0  0.26263  0.38150  0.65583  1.0000
  C   C1013     1.0  0.28462  0.99782  0.65651  1.0000
  S   S275      1.0  0.23721  0.46570  0.84802  1.0000
  Fe  Fe135     1.0  0.24229  0.54039  0.25845  1.0000
  S   S276      1.0  0.24492  0.57406  0.24819  1.0000
  H   H1720     1.0  0.29018  0.52142  0.23900  1.0000
  Fe  Fe136     1.0  0.25553  0.52806  0.21768  1.0000
  S   S277      1.0  0.25922  0.56051  0.20435  1.0000
  H   H1721     1.0  0.28050  0.51069  0.20616  1.0000
  Fe  Fe137     1.0  0.26190  0.55843  0.23629  1.0000
  S   S278      1.0  0.27764  0.56359  0.23804  1.0000
  H   H1722     1.0  0.30557  0.61212  0.25581  1.0000
  H   H1723     1.0  0.24444  0.88572  0.17056  1.0000
  S   S279      1.0  0.25949  0.52484  0.24875  1.0000
  Fe  Fe138     1.0  0.24192  0.57275  0.21742  1.0000
  H   H1724     1.0  0.26117  0.83980  0.23184  1.0000
  C   C1014     1.0  0.24007  0.52412  0.16324  1.0000
  H   H1725     1.0  0.25391  0.57763  0.13565  1.0000
  H   H1726     1.0  0.26697  0.52500  0.29419  1.0000
  S   S280      1.0  0.26259  0.50501  0.19602  1.0000
  H   H1727     1.0  0.29018  0.98883  0.17583  1.0000
  H   H1728     1.0  0.26332  0.92793  0.18215  1.0000
  H   H1729     1.0  0.30140  0.50011  0.23949  1.0000
  H   H1730     1.0  0.27088  0.83067  0.21032  1.0000
  H   H1731     1.0  0.23934  0.51388  0.15338  1.0000
  C   C1015     1.0  0.25480  0.90213  0.19162  1.0000
  H   H1732     1.0  0.30117  0.60370  0.29576  1.0000
  C   C1016     1.0  0.29497  0.65923  0.28786  1.0000
  C   C1017     1.0  0.26466  0.96575  0.22833  1.0000
  C   C1018     1.0  0.26736  0.94341  0.23308  1.0000
  C   C1019     1.0  0.26361  0.93199  0.25328  1.0000
  C   C1020     1.0  0.28656  0.66420  0.27436  1.0000
  H   H1733     1.0  0.27227  0.93494  0.22097  1.0000
  C   C1021     1.0  0.26137  0.51670  0.30732  1.0000
  C   C1022     1.0  0.30997  0.64662  0.31801  1.0000
  H   H1734     1.0  0.46810  0.97006  0.20709  1.0000
  H   H1735     1.0  0.23958  0.96244  0.23427  1.0000
  H   H1736     1.0  0.30639  0.63857  0.25578  1.0000
  H   H1737     1.0  0.25397  0.55475  0.28607  1.0000
  S   S281      1.0  0.26481  0.85153  0.29714  1.0000
  S   S282      1.0  0.23803  0.54021  0.22859  1.0000
  C   C1023     1.0  0.24576  0.55612  0.16328  1.0000
  H   H1738     1.0  0.28135  0.65265  0.27867  1.0000
  H   H1739     1.0  0.48630  0.95221  0.20508  1.0000
  C   C1024     1.0  0.30900  0.63279  0.30388  1.0000
  C   C1025     1.0  0.27966  0.56707  0.26145  1.0000
  C   C1026     1.0  0.28903  0.55572  0.26841  1.0000
  C   C1027     1.0  0.29116  0.55928  0.28626  1.0000
  C   C1028     1.0  0.28399  0.57442  0.29706  1.0000
  C   C1029     1.0  0.27471  0.58602  0.28992  1.0000
  C   C1030     1.0  0.27253  0.58228  0.27219  1.0000
  H   H1740     1.0  0.29468  0.54417  0.26000  1.0000
  H   H1741     1.0  0.29836  0.55033  0.29162  1.0000
  H   H1742     1.0  0.26916  0.59782  0.29819  1.0000
  H   H1743     1.0  0.26544  0.59150  0.26654  1.0000
  C   C1031     1.0  0.26296  0.84130  0.21450  1.0000
  H   H1744     1.0  0.29196  0.66999  0.29928  1.0000
  H   H1745     1.0  0.30676  0.66393  0.31255  1.0000
  H   H1746     1.0  0.37950  0.66402  0.31833  1.0000
  C   C1032     1.0  0.24443  0.87089  0.18310  1.0000
  C   C1033     1.0  0.26367  0.91200  0.19318  1.0000
  H   H1747     1.0  0.24994  0.97410  0.27637  1.0000
  H   H1748     1.0  0.31505  0.63606  0.28902  1.0000
  C   C1034     1.0  0.24312  0.90244  0.23595  1.0000
  H   H1749     1.0  0.24958  0.86870  0.24079  1.0000
  H   H1750     1.0  0.24721  0.91435  0.19316  1.0000
  Fe  Fe139     1.0  0.32412  0.53382  0.31860  1.0000
  H   H1751     1.0  0.25713  0.83502  0.21032  1.0000
  H   H1752     1.0  0.25460  0.93421  0.28477  1.0000
  H   H1753     1.0  0.44511  0.98914  0.30986  1.0000
  H   H1754     1.0  0.26585  0.86443  0.18507  1.0000
  C   C1035     1.0  0.30497  0.52183  0.20111  1.0000
  H   H1755     1.0  0.26760  0.97425  0.21267  1.0000
  C   C1036     1.0  0.28592  0.52172  0.20287  1.0000
  S   S283      1.0  0.25584  0.99395  0.18224  1.0000
  C   C1037     1.0  0.30250  0.54407  0.20629  1.0000
  Fe  Fe140     1.0  0.25903  0.88712  0.28979  1.0000
  C   C1038     1.0  0.28680  0.53386  0.17952  1.0000
  N   N73       1.0  0.29611  0.50972  0.20993  1.0000
  C   C1039     1.0  0.29047  0.63144  0.32024  1.0000
  H   H1756     1.0  0.30757  0.52419  0.18377  1.0000
  H   H1757     1.0  0.25133  0.85811  0.17849  1.0000
  C   C1040     1.0  0.24388  0.87506  0.20478  1.0000
  C   C1041     1.0  0.45974  0.98890  0.28627  1.0000
  H   H1758     1.0  0.28167  0.51889  0.31657  1.0000
  H   H1759     1.0  0.28150  0.53389  0.21244  1.0000
  C   C1042     1.0  0.26288  0.52903  0.13765  1.0000
  H   H1760     1.0  0.24190  0.57175  0.29641  1.0000
  C   C1043     1.0  0.47056  0.97933  0.28127  1.0000
  H   H1761     1.0  0.29511  0.55444  0.20170  1.0000
  H   H1762     1.0  0.30196  0.54282  0.22325  1.0000
  H   H1763     1.0  0.30913  0.55225  0.19740  1.0000
  S   S284      1.0  0.24087  0.82672  0.29952  1.0000
  H   H1764     1.0  0.26586  0.53978  0.14357  1.0000
  C   C1044     1.0  0.24790  0.54598  0.32083  1.0000
  H   H1765     1.0  0.31854  0.64469  0.31762  1.0000
  H   H1766     1.0  0.29460  0.52988  0.16884  1.0000
  H   H1767     1.0  0.28464  0.55144  0.17849  1.0000
  H   H1768     1.0  0.31244  0.51272  0.25270  1.0000
  S   S285      1.0  0.26653  0.90403  0.25783  1.0000
  C   C1045     1.0  0.25201  0.53979  0.13171  1.0000
  H   H1769     1.0  0.30914  0.49623  0.17143  1.0000
  H   H1770     1.0  0.24265  0.90187  0.25272  1.0000
  H   H1771     1.0  0.26885  0.52518  0.12333  1.0000
  H   H1772     1.0  0.48348  0.95517  0.29212  1.0000
  H   H1773     1.0  0.29484  0.97735  0.22802  1.0000
  C   C1046     1.0  0.24921  0.57751  0.15193  1.0000
  H   H1774     1.0  0.24507  0.91802  0.22693  1.0000
  H   H1775     1.0  0.25668  0.90018  0.17506  1.0000
  H   H1776     1.0  0.25304  0.55435  0.11907  1.0000
  H   H1777     1.0  0.25032  0.52885  0.12377  1.0000
  H   H1778     1.0  0.31178  0.61574  0.31153  1.0000
  H   H1779     1.0  0.27169  0.90206  0.18843  1.0000
  H   H1780     1.0  0.31767  0.52704  0.27765  1.0000
  H   H1781     1.0  0.25189  0.54548  0.17198  1.0000
  Fe  Fe141     1.0  0.24754  0.85050  0.30726  1.0000
  H   H1782     1.0  0.31530  0.61522  0.26751  1.0000
  C   C1047     1.0  0.26346  0.86446  0.20222  1.0000
  C   C1048     1.0  0.25487  0.96556  0.26432  1.0000
  C   C1049     1.0  0.45348  0.98169  0.30603  1.0000
  C   C1050     1.0  0.27872  0.63447  0.31961  1.0000
  C   C1051     1.0  0.25828  0.97689  0.24376  1.0000
  C   C1052     1.0  0.25179  0.88328  0.22944  1.0000
  C   C1053     1.0  0.24975  0.56229  0.29967  1.0000
  H   H1783     1.0  0.32301  0.89651  0.31695  1.0000
  H   H1784     1.0  0.48301  0.97111  0.22121  1.0000
  H   H1785     1.0  0.25447  0.58045  0.16052  1.0000
  C   C1054     1.0  0.25746  0.94302  0.26906  1.0000
  C   C1055     1.0  0.31888  0.50327  0.26026  1.0000
  H   H1786     1.0  0.27029  0.86819  0.20586  1.0000
  H   H1787     1.0  0.23897  0.80183  0.27325  1.0000
  H   H1788     1.0  0.23732  0.97226  0.31433  1.0000
  H   H1789     1.0  0.25932  0.88432  0.23276  1.0000
  N   N74       1.0  0.25348  0.88126  0.20698  1.0000
  C   C1056     1.0  0.28829  0.98881  0.22104  1.0000
  C   C1057     1.0  0.47512  0.96252  0.29599  1.0000
  H   H1790     1.0  0.28120  0.68002  0.27594  1.0000
  H   H1791     1.0  0.24222  0.86055  0.21690  1.0000
  H   H1792     1.0  0.28083  0.53036  0.17304  1.0000
  N   N75       1.0  0.24286  0.54489  0.14977  1.0000
  H   H1793     1.0  0.26270  0.91475  0.20912  1.0000
  C   C1058     1.0  0.30703  0.62195  0.26522  1.0000
  H   H1794     1.0  0.25411  0.57382  0.30063  1.0000
  H   H1795     1.0  0.30211  0.66462  0.27685  1.0000
  H   H1796     1.0  0.31226  0.51235  0.20696  1.0000
  H   H1797     1.0  0.24658  0.51447  0.17139  1.0000
  S   S286      1.0  0.31792  0.56956  0.31046  1.0000
  N   N76       1.0  0.29813  0.63628  0.29931  1.0000
  S   S287      1.0  0.28628  0.57881  0.31979  1.0000
  C   C1059     1.0  0.29891  0.62027  0.28656  1.0000
  H   H1798     1.0  0.28198  0.99395  0.23435  1.0000
  H   H1799     1.0  0.47443  0.98112  0.18096  1.0000
  Fe  Fe142     1.0  0.23949  0.99230  0.18147  1.0000
  C   C1060     1.0  0.47397  0.98004  0.19783  1.0000
  H   H1800     1.0  0.25471  0.51709  0.30027  1.0000
  S   S288      1.0  0.24184  0.88575  0.29725  1.0000
  H   H1801     1.0  0.27758  0.62498  0.30959  1.0000
  S   S289      1.0  0.33558  0.51148  0.29843  1.0000
  C   C1061     1.0  0.32186  0.51150  0.27436  1.0000
  H   H1802     1.0  0.26260  0.51377  0.14949  1.0000
  H   H1803     1.0  0.29043  0.66601  0.25732  1.0000
  C   C1062     1.0  0.46891  0.95563  0.31594  1.0000
  H   H1804     1.0  0.29117  0.62078  0.28333  1.0000
  H   H1805     1.0  0.26819  0.54949  0.31215  1.0000
  C   C1063     1.0  0.48465  0.96970  0.20455  1.0000
  H   H1806     1.0  0.28526  0.97971  0.21333  1.0000
  H   H1807     1.0  0.39019  0.67387  0.32138  1.0000
  H   H1808     1.0  0.27500  0.65163  0.31473  1.0000
  H   H1809     1.0  0.24217  0.59107  0.15151  1.0000
  C   C1064     1.0  0.29390  0.50611  0.23373  1.0000
  H   H1810     1.0  0.23887  0.56015  0.17621  1.0000
  H   H1811     1.0  0.23910  0.94011  0.25580  1.0000
  H   H1812     1.0  0.39264  0.64942  0.31245  1.0000
  H   H1813     1.0  0.24109  0.53914  0.32131  1.0000
  C   C1065     1.0  0.33073  0.50033  0.28296  1.0000
  S   S290      1.0  0.47852  0.98896  0.25706  1.0000
  C   C1066     1.0  0.45809  0.96523  0.32092  1.0000
  H   H1814     1.0  0.41975  0.89036  0.61935  1.0000
  C   C1067     1.0  0.33655  0.88633  0.38357  1.0000
  Fe  Fe143     1.0  0.36545  0.69292  0.56461  1.0000
  S   S291      1.0  0.37733  0.67950  0.58528  1.0000
  S   S292      1.0  0.37056  0.68872  0.53101  1.0000
  Fe  Fe144     1.0  0.34913  0.71396  0.59817  1.0000
  S   S293      1.0  0.35956  0.70178  0.62173  1.0000
  S   S294      1.0  0.33321  0.73593  0.60504  1.0000
  Fe  Fe145     1.0  0.37264  0.71161  0.59425  1.0000
  S   S295      1.0  0.38237  0.73689  0.58827  1.0000
  Fe  Fe146     1.0  0.36311  0.67095  0.61063  1.0000
  H   H1815     1.0  0.36118  0.69380  0.35370  1.0000
  S   S296      1.0  0.36174  0.72547  0.57142  1.0000
  S   S297      1.0  0.35162  0.68269  0.58911  1.0000
  Fe  Fe147     1.0  0.34529  0.66073  0.45872  1.0000
  S   S298      1.0  0.35988  0.65034  0.43464  1.0000
  S   S299      1.0  0.34323  0.65018  0.49405  1.0000
  Fe  Fe148     1.0  0.33354  0.68967  0.42564  1.0000
  S   S300      1.0  0.34714  0.68209  0.39885  1.0000
  S   S301      1.0  0.31794  0.71112  0.42025  1.0000
  Fe  Fe149     1.0  0.34828  0.64785  0.41679  1.0000
  S   S302      1.0  0.35102  0.61854  0.40254  1.0000
  Fe  Fe150     1.0  0.35740  0.68543  0.41895  1.0000
  S   S303      1.0  0.37015  0.70531  0.40369  1.0000
  S   S304      1.0  0.33399  0.65541  0.44245  1.0000
  S   S305      1.0  0.34350  0.69581  0.44419  1.0000
  Fe  Fe151     1.0  0.32039  0.57005  0.34220  1.0000
  H   H1816     1.0  0.29619  0.94314  0.60081  1.0000
  H   H1817     1.0  0.35370  0.77265  0.62781  1.0000
  S   S306      1.0  0.27666  0.83531  0.34638  1.0000
  N   N77       1.0  0.39785  0.72112  0.52538  1.0000
  Fe  Fe152     1.0  0.31936  0.87386  0.61776  1.0000
  S   S307      1.0  0.32998  0.88469  0.58639  1.0000
  Fe  Fe153     1.0  0.33484  0.83282  0.62904  1.0000
  S   S308      1.0  0.34688  0.83963  0.59940  1.0000
  H   H1818     1.0  0.43620  0.90251  0.60779  1.0000
  Fe  Fe154     1.0  0.34296  0.87282  0.60455  1.0000
  S   S309      1.0  0.35681  0.88868  0.59552  1.0000
  Fe  Fe155     1.0  0.33325  0.85067  0.58324  1.0000
  S   S310      1.0  0.33772  0.83962  0.55273  1.0000
  S   S311      1.0  0.32136  0.84077  0.61271  1.0000
  Fe  Fe156     1.0  0.30664  0.84887  0.47308  1.0000
  S   S312      1.0  0.31266  0.86295  0.43901  1.0000
  S   S313      1.0  0.30254  0.86632  0.49932  1.0000
  Fe  Fe157     1.0  0.30494  0.80808  0.46413  1.0000
  S   S314      1.0  0.31065  0.81834  0.42919  1.0000
  S   S315      1.0  0.29985  0.77705  0.47981  1.0000
  Fe  Fe158     1.0  0.32267  0.82993  0.43812  1.0000
  S   S316      1.0  0.33933  0.82249  0.41912  1.0000
  Fe  Fe159     1.0  0.30016  0.85030  0.43277  1.0000
  S   S317      1.0  0.28970  0.87169  0.41072  1.0000
  S   S318      1.0  0.31789  0.81685  0.47290  1.0000
  S   S319      1.0  0.29322  0.83900  0.46704  1.0000
  C   C1068     1.0  0.37395  0.63395  0.57265  1.0000
  S   S320      1.0  0.46876  0.90300  0.37045  1.0000
  Fe  Fe160     1.0  0.46197  0.90025  0.40531  1.0000
  S   S321      1.0  0.45215  0.87688  0.42804  1.0000
  H   H1819     1.0  0.24501  0.55583  0.33300  1.0000
  Fe  Fe161     1.0  0.41690  0.79257  0.62255  1.0000
  S   S322      1.0  0.40373  0.81790  0.61070  1.0000
  S   S323      1.0  0.41461  0.75833  0.62989  1.0000
  Fe  Fe162     1.0  0.42915  0.82617  0.62308  1.0000
  S   S324      1.0  0.41655  0.85334  0.61078  1.0000
  S   S325      1.0  0.44398  0.83582  0.62577  1.0000
  Fe  Fe163     1.0  0.40497  0.83483  0.63395  1.0000
  H   H1820     1.0  0.48473  0.97595  0.39199  1.0000
  Fe  Fe164     1.0  0.41670  0.83337  0.58877  1.0000
  S   S326      1.0  0.41565  0.84738  0.55478  1.0000
  C   C1069     1.0  0.33684  0.78312  0.63900  1.0000
  S   S327      1.0  0.43007  0.80713  0.59907  1.0000
  Fe  Fe165     1.0  0.41285  0.80701  0.43147  1.0000
  S   S328      1.0  0.40366  0.82413  0.45749  1.0000
  S   S329      1.0  0.42705  0.81877  0.40780  1.0000
  Fe  Fe166     1.0  0.39973  0.77155  0.44685  1.0000
  S   S330      1.0  0.38997  0.78634  0.47402  1.0000
  S   S331      1.0  0.39566  0.73914  0.45085  1.0000
  Fe  Fe167     1.0  0.38935  0.81775  0.45109  1.0000
  S   S332      1.0  0.37353  0.84075  0.45644  1.0000
  Fe  Fe168     1.0  0.40501  0.79136  0.47823  1.0000
  S   S333      1.0  0.40836  0.78167  0.51087  1.0000
  S   S334      1.0  0.39825  0.80312  0.42310  1.0000
  S   S335      1.0  0.41511  0.77414  0.45287  1.0000
  C   C1070     1.0  0.41271  0.82963  0.54324  1.0000
  C   C1071     1.0  0.41041  0.83668  0.52307  1.0000
  C   C1072     1.0  0.40879  0.82221  0.51313  1.0000
  C   C1073     1.0  0.40956  0.80063  0.52326  1.0000
  C   C1074     1.0  0.41154  0.79375  0.54367  1.0000
  C   C1075     1.0  0.41317  0.80820  0.55358  1.0000
  H   H1821     1.0  0.41002  0.85330  0.51505  1.0000
  H   H1822     1.0  0.40714  0.82769  0.49751  1.0000
  H   H1823     1.0  0.41209  0.77709  0.55165  1.0000
  H   H1824     1.0  0.41512  0.80261  0.56896  1.0000
  C   C1076     1.0  0.44500  0.86214  0.42087  1.0000
  C   C1077     1.0  0.43493  0.85970  0.43334  1.0000
  C   C1078     1.0  0.42944  0.84627  0.42970  1.0000
  C   C1079     1.0  0.43388  0.83537  0.41324  1.0000
  C   C1080     1.0  0.44384  0.83827  0.40034  1.0000
  C   C1081     1.0  0.44940  0.85158  0.40413  1.0000
  H   H1825     1.0  0.43139  0.86808  0.44609  1.0000
  H   H1826     1.0  0.42172  0.84452  0.43954  1.0000
  H   H1827     1.0  0.44733  0.82997  0.38751  1.0000
  H   H1828     1.0  0.45720  0.85316  0.39450  1.0000
  H   H1829     1.0  0.37509  0.76064  0.51568  1.0000
  C   C1082     1.0  0.45972  0.82501  0.46896  1.0000
  H   H1830     1.0  0.42734  0.95449  0.36560  1.0000
  H   H1831     1.0  0.36712  0.64419  0.58130  1.0000
  H   H1832     1.0  0.30639  0.59431  0.63882  1.0000
  H   H1833     1.0  0.45923  0.80986  0.50122  1.0000
  Fe  Fe169     1.0  0.31159  0.52952  0.36335  1.0000
  C   C1083     1.0  0.34872  0.82846  0.42906  1.0000
  C   C1084     1.0  0.34548  0.83950  0.44543  1.0000
  C   C1085     1.0  0.35315  0.84344  0.45369  1.0000
  C   C1086     1.0  0.36402  0.83598  0.44585  1.0000
  C   C1087     1.0  0.36722  0.82479  0.42960  1.0000
  C   C1088     1.0  0.35958  0.82126  0.42105  1.0000
  H   H1834     1.0  0.33710  0.84509  0.45170  1.0000
  H   H1835     1.0  0.35065  0.85210  0.46627  1.0000
  H   H1836     1.0  0.37558  0.81912  0.42340  1.0000
  H   H1837     1.0  0.36211  0.81270  0.40839  1.0000
  C   C1089     1.0  0.36579  0.87771  0.61227  1.0000
  C   C1090     1.0  0.36226  0.86960  0.63383  1.0000
  H   H1838     1.0  0.26561  0.95633  0.64893  1.0000
  C   C1091     1.0  0.38047  0.86044  0.63851  1.0000
  C   C1092     1.0  0.38399  0.86824  0.61692  1.0000
  C   C1093     1.0  0.37663  0.87730  0.60392  1.0000
  H   H1839     1.0  0.39238  0.86756  0.61021  1.0000
  H   H1840     1.0  0.37937  0.88374  0.58730  1.0000
  C   C1094     1.0  0.32823  0.84957  0.53707  1.0000
  C   C1095     1.0  0.31781  0.85928  0.54547  1.0000
  C   C1096     1.0  0.31003  0.86515  0.53342  1.0000
  C   C1097     1.0  0.31263  0.86103  0.51313  1.0000
  C   C1098     1.0  0.32313  0.85190  0.50450  1.0000
  C   C1099     1.0  0.33096  0.84638  0.51640  1.0000
  H   H1841     1.0  0.31569  0.86185  0.56139  1.0000
  H   H1842     1.0  0.30191  0.87233  0.54004  1.0000
  H   H1843     1.0  0.32520  0.84902  0.48871  1.0000
  H   H1844     1.0  0.33906  0.83913  0.50977  1.0000
  C   C1100     1.0  0.28066  0.84654  0.36287  1.0000
  C   C1101     1.0  0.27460  0.86541  0.36912  1.0000
  C   C1102     1.0  0.27756  0.87309  0.38361  1.0000
  C   C1103     1.0  0.28644  0.86176  0.39222  1.0000
  C   C1104     1.0  0.29261  0.84307  0.38569  1.0000
  C   C1105     1.0  0.28979  0.83564  0.37085  1.0000
  C   C1106     1.0  0.38646  0.64607  0.34631  1.0000
  H   H1845     1.0  0.27280  0.88765  0.38849  1.0000
  H   H1846     1.0  0.29951  0.83428  0.39209  1.0000
  H   H1847     1.0  0.29455  0.82118  0.36580  1.0000
  H   H1848     1.0  0.41915  0.71282  0.48464  1.0000
  C   C1107     1.0  0.37668  0.71522  0.41754  1.0000
  C   C1108     1.0  0.37822  0.70467  0.43783  1.0000
  C   C1109     1.0  0.38402  0.71230  0.44775  1.0000
  C   C1110     1.0  0.38804  0.73092  0.43785  1.0000
  C   C1111     1.0  0.38629  0.74175  0.41775  1.0000
  C   C1112     1.0  0.38080  0.73372  0.40754  1.0000
  H   H1849     1.0  0.37519  0.69034  0.44570  1.0000
  H   H1850     1.0  0.38537  0.70371  0.46323  1.0000
  H   H1851     1.0  0.38943  0.75595  0.40983  1.0000
  H   H1852     1.0  0.37973  0.74194  0.39180  1.0000
  C   C1113     1.0  0.31330  0.72889  0.43734  1.0000
  C   C1114     1.0  0.31871  0.74490  0.43521  1.0000
  C   C1115     1.0  0.31460  0.75979  0.44824  1.0000
  C   C1116     1.0  0.30528  0.75823  0.46384  1.0000
  C   C1117     1.0  0.30000  0.74198  0.46621  1.0000
  C   C1118     1.0  0.30390  0.72755  0.45274  1.0000
  H   H1853     1.0  0.32592  0.74606  0.42316  1.0000
  H   H1854     1.0  0.31864  0.77243  0.44625  1.0000
  H   H1855     1.0  0.29279  0.74077  0.47825  1.0000
  H   H1856     1.0  0.29972  0.71518  0.45438  1.0000
  C   C1119     1.0  0.39151  0.74177  0.60013  1.0000
  C   C1120     1.0  0.39468  0.76147  0.59246  1.0000
  C   C1121     1.0  0.40170  0.76661  0.60146  1.0000
  C   C1122     1.0  0.40582  0.75202  0.61808  1.0000
  C   C1123     1.0  0.40276  0.73216  0.62566  1.0000
  C   C1124     1.0  0.39559  0.72707  0.61680  1.0000
  H   H1857     1.0  0.39168  0.77289  0.57944  1.0000
  H   H1858     1.0  0.40403  0.78178  0.59529  1.0000
  H   H1859     1.0  0.26611  0.81013  0.48147  1.0000
  H   H1860     1.0  0.39324  0.71182  0.62285  1.0000
  C   C1125     1.0  0.36260  0.67893  0.52074  1.0000
  C   C1126     1.0  0.35276  0.67471  0.53262  1.0000
  C   C1127     1.0  0.34676  0.66608  0.52427  1.0000
  C   C1128     1.0  0.35046  0.66222  0.50381  1.0000
  C   C1129     1.0  0.36009  0.66733  0.49160  1.0000
  C   C1130     1.0  0.36620  0.67545  0.50015  1.0000
  H   H1861     1.0  0.34980  0.67799  0.54825  1.0000
  H   H1862     1.0  0.33922  0.66246  0.53361  1.0000
  H   H1863     1.0  0.36296  0.66450  0.47575  1.0000
  H   H1864     1.0  0.37375  0.67899  0.49078  1.0000
  C   C1131     1.0  0.33462  0.75424  0.61790  1.0000
  C   C1132     1.0  0.32558  0.76701  0.62810  1.0000
  H   H1865     1.0  0.30291  0.53788  0.43306  1.0000
  H   H1866     1.0  0.40922  0.92306  0.60985  1.0000
  H   H1867     1.0  0.27520  0.50818  0.34338  1.0000
  C   C1133     1.0  0.34476  0.75643  0.61769  1.0000
  C   C1134     1.0  0.32746  0.88366  0.34744  1.0000
  C   C1135     1.0  0.47457  0.98313  0.42112  1.0000
  H   H1868     1.0  0.37516  0.73298  0.51941  1.0000
  H   H1869     1.0  0.40888  0.90024  0.39287  1.0000
  C   C1136     1.0  0.33486  0.62940  0.38022  1.0000
  C   C1137     1.0  0.34320  0.61368  0.38748  1.0000
  C   C1138     1.0  0.36530  0.85176  0.53933  1.0000
  H   H1870     1.0  0.29936  0.57315  0.58862  1.0000
  H   H1871     1.0  0.33294  0.64505  0.38391  1.0000
  H   H1872     1.0  0.41383  0.93021  0.37666  1.0000
  H   H1873     1.0  0.32057  0.52186  0.41810  1.0000
  H   H1874     1.0  0.34991  0.59026  0.61462  1.0000
  N   N78       1.0  0.29536  0.58357  0.62776  1.0000
  H   H1875     1.0  0.26755  0.87389  0.36307  1.0000
  H   H1876     1.0  0.44419  0.85907  0.47442  1.0000
  C   C1139     1.0  0.43996  0.83670  0.50515  1.0000
  C   C1140     1.0  0.42562  0.88936  0.37654  1.0000
  N   N79       1.0  0.35047  0.75946  0.45947  1.0000
  H   H1877     1.0  0.36795  0.85622  0.50482  1.0000
  H   H1878     1.0  0.33707  0.85616  0.37756  1.0000
  N   N80       1.0  0.28690  0.96038  0.64889  1.0000
  H   H1879     1.0  0.27883  0.59995  0.62836  1.0000
  H   H1880     1.0  0.37762  0.61009  0.55429  1.0000
  H   H1881     1.0  0.39355  0.63209  0.38469  1.0000
  S   S336      1.0  0.45336  0.93463  0.40223  1.0000
  N   N81       1.0  0.31692  0.56563  0.42285  1.0000
  H   H1882     1.0  0.30198  0.60431  0.40666  1.0000
  C   C1141     1.0  0.32714  0.54934  0.41787  1.0000
  C   C1142     1.0  0.31033  0.55783  0.44430  1.0000
  H   H1883     1.0  0.43566  0.90725  0.63278  1.0000
  C   C1143     1.0  0.32665  0.53102  0.40848  1.0000
  C   C1144     1.0  0.33524  0.60525  0.65045  1.0000
  S   S337      1.0  0.46649  0.96463  0.42575  1.0000
  H   H1884     1.0  0.29566  0.76784  0.41730  1.0000
  H   H1885     1.0  0.45119  0.88639  0.36343  1.0000
  H   H1886     1.0  0.33053  0.54179  0.43219  1.0000
  H   H1887     1.0  0.31521  0.55303  0.45645  1.0000
  H   H1888     1.0  0.46314  0.87982  0.64363  1.0000
  H   H1889     1.0  0.45485  0.83069  0.45689  1.0000
  H   H1890     1.0  0.37901  0.64460  0.56110  1.0000
  S   S338      1.0  0.30803  0.50443  0.39269  1.0000
  C   C1145     1.0  0.36713  0.62919  0.34941  1.0000
  H   H1891     1.0  0.29043  0.79101  0.44383  1.0000
  H   H1892     1.0  0.32530  0.53713  0.39221  1.0000
  H   H1893     1.0  0.38373  0.65084  0.39921  1.0000
  H   H1894     1.0  0.42907  0.95169  0.33883  1.0000
  H   H1895     1.0  0.36770  0.61524  0.36288  1.0000
  H   H1896     1.0  0.32728  0.63469  0.63294  1.0000
  C   C1146     1.0  0.25350  0.51332  0.34574  1.0000
  C   C1147     1.0  0.36887  0.81146  0.62579  1.0000
  H   H1897     1.0  0.46735  0.81587  0.46104  1.0000
  H   H1898     1.0  0.36824  0.79909  0.61829  1.0000
  H   H1899     1.0  0.37103  0.82512  0.61297  1.0000
  C   C1148     1.0  0.32669  0.78167  0.63838  1.0000
  N   N82       1.0  0.37203  0.82991  0.54622  1.0000
  C   C1149     1.0  0.37546  0.83001  0.56573  1.0000
  C   C1150     1.0  0.36528  0.81339  0.55253  1.0000
  C   C1151     1.0  0.38187  0.82501  0.52940  1.0000
  C   C1152     1.0  0.38187  0.84691  0.56349  1.0000
  C   C1153     1.0  0.37075  0.79028  0.56163  1.0000
  C   C1154     1.0  0.38073  0.81554  0.51185  1.0000
  H   H1900     1.0  0.36841  0.83248  0.57881  1.0000
  H   H1901     1.0  0.38056  0.81429  0.57145  1.0000
  H   H1902     1.0  0.36206  0.81272  0.53933  1.0000
  H   H1903     1.0  0.35803  0.81791  0.56466  1.0000
  H   H1904     1.0  0.38517  0.83961  0.52161  1.0000
  H   H1905     1.0  0.38818  0.81308  0.53680  1.0000
  H   H1906     1.0  0.38863  0.84708  0.54964  1.0000
  H   H1907     1.0  0.38530  0.84309  0.57767  1.0000
  H   H1908     1.0  0.36586  0.77904  0.56204  1.0000
  H   H1909     1.0  0.37881  0.78509  0.55212  1.0000
  H   H1910     1.0  0.37128  0.78839  0.57820  1.0000
  H   H1911     1.0  0.35675  0.84388  0.51947  1.0000
  H   H1912     1.0  0.38590  0.82204  0.49678  1.0000
  H   H1913     1.0  0.37267  0.81922  0.50874  1.0000
  H   H1914     1.0  0.38383  0.79795  0.51509  1.0000
  N   N83       1.0  0.27623  0.79744  0.43163  1.0000
  C   C1155     1.0  0.26988  0.81059  0.44779  1.0000
  C   C1156     1.0  0.27308  0.80831  0.41080  1.0000
  H   H1915     1.0  0.42823  0.87620  0.63672  1.0000
  H   H1916     1.0  0.41140  0.93241  0.64170  1.0000
  C   C1157     1.0  0.26161  0.80944  0.40963  1.0000
  C   C1158     1.0  0.44670  0.84817  0.64357  1.0000
  H   H1917     1.0  0.26121  0.81209  0.45023  1.0000
  H   H1918     1.0  0.27096  0.82745  0.44200  1.0000
  H   H1919     1.0  0.43442  0.90795  0.33589  1.0000
  C   C1159     1.0  0.26395  0.77017  0.45016  1.0000
  H   H1920     1.0  0.31261  0.59761  0.42932  1.0000
  H   H1921     1.0  0.29478  0.58378  0.42310  1.0000
  H   H1922     1.0  0.29803  0.96733  0.60448  1.0000
  H   H1923     1.0  0.27426  0.62869  0.33583  1.0000
  H   H1924     1.0  0.26041  0.81877  0.39371  1.0000
  H   H1925     1.0  0.25378  0.53078  0.36907  1.0000
  H   H1926     1.0  0.31642  0.56631  0.60468  1.0000
  H   H1927     1.0  0.35097  0.62150  0.53949  1.0000
  C   C1160     1.0  0.24827  0.52342  0.36519  1.0000
  H   H1928     1.0  0.27419  0.82510  0.40614  1.0000
  S   S339      1.0  0.30267  0.89177  0.62949  1.0000
  H   H1929     1.0  0.30619  0.64108  0.33480  1.0000
  C   C1161     1.0  0.30546  0.53845  0.44710  1.0000
  C   C1162     1.0  0.48309  0.98547  0.40362  1.0000
  C   C1163     1.0  0.31980  0.58593  0.42332  1.0000
  C   C1164     1.0  0.28356  0.58374  0.63405  1.0000
  H   H1930     1.0  0.29911  0.91767  0.37639  1.0000
  C   C1165     1.0  0.37764  0.80303  0.63865  1.0000
  H   H1931     1.0  0.27819  0.80029  0.39794  1.0000
  H   H1932     1.0  0.37733  0.76447  0.62970  1.0000
  H   H1933     1.0  0.45357  0.89025  0.33547  1.0000
  H   H1934     1.0  0.45754  0.79345  0.48675  1.0000
  H   H1935     1.0  0.31037  0.86266  0.36589  1.0000
  H   H1936     1.0  0.33447  0.51949  0.40728  1.0000
  H   H1937     1.0  0.31281  0.88531  0.33609  1.0000
  H   H1938     1.0  0.36485  0.66319  0.34161  1.0000
  H   H1939     1.0  0.38271  0.67594  0.36708  1.0000
  H   H1940     1.0  0.39030  0.76581  0.65196  1.0000
  H   H1941     1.0  0.44709  0.79111  0.46635  1.0000
  C   C1166     1.0  0.35321  0.60493  0.65231  1.0000
  H   H1942     1.0  0.35654  0.56938  0.59970  1.0000
  H   H1943     1.0  0.42856  0.93774  0.40379  1.0000
  H   H1944     1.0  0.44020  0.92425  0.37709  1.0000
  H   H1945     1.0  0.34161  0.57337  0.36646  1.0000
  H   H1946     1.0  0.29315  0.61465  0.32878  1.0000
  H   H1947     1.0  0.36752  0.74911  0.64444  1.0000
  H   H1948     1.0  0.30380  0.57095  0.44975  1.0000
  C   C1167     1.0  0.32414  0.83743  0.36951  1.0000
  H   H1949     1.0  0.37870  0.61846  0.38009  1.0000
  C   C1168     1.0  0.35800  0.60811  0.53812  1.0000
  H   H1950     1.0  0.32510  0.57601  0.45363  1.0000
  H   H1951     1.0  0.28080  0.58041  0.65153  1.0000
  H   H1952     1.0  0.40591  0.72072  0.63851  1.0000
  H   H1953     1.0  0.48341  0.98917  0.35333  1.0000
  H   H1954     1.0  0.36093  0.81762  0.63495  1.0000
  H   H1955     1.0  0.38854  0.62877  0.34581  1.0000
  H   H1956     1.0  0.30730  0.91445  0.35124  1.0000
  H   H1957     1.0  0.35934  0.65305  0.36811  1.0000
  H   H1958     1.0  0.27372  0.78494  0.47544  1.0000
  S   S340      1.0  0.24666  0.85085  0.34078  1.0000
  H   H1959     1.0  0.36793  0.63336  0.54674  1.0000
  H   H1960     1.0  0.35387  0.87014  0.64038  1.0000
  H   H1961     1.0  0.27263  0.52225  0.37752  1.0000
  C   C1169     1.0  0.40723  0.91924  0.64426  1.0000
  H   H1962     1.0  0.30450  0.94138  0.61793  1.0000
  H   H1963     1.0  0.33963  0.89521  0.36751  1.0000
  C   C1170     1.0  0.27511  0.77442  0.43823  1.0000
  H   H1964     1.0  0.25555  0.81795  0.42117  1.0000
  H   H1965     1.0  0.43979  0.81110  0.54354  1.0000
  C   C1171     1.0  0.36503  0.59569  0.59300  1.0000
  C   C1172     1.0  0.33072  0.86941  0.38326  1.0000
  H   H1966     1.0  0.37309  0.58537  0.58886  1.0000
  C   C1173     1.0  0.29709  0.95086  0.61271  1.0000
  H   H1967     1.0  0.31105  0.52316  0.45196  1.0000
  C   C1174     1.0  0.31681  0.85860  0.37457  1.0000
  H   H1968     1.0  0.41411  0.87222  0.39891  1.0000
  C   C1175     1.0  0.28779  0.79784  0.42872  1.0000
  H   H1969     1.0  0.36913  0.63695  0.39400  1.0000
  H   H1970     1.0  0.44935  0.98148  0.37898  1.0000
  C   C1176     1.0  0.29593  0.49847  0.39330  1.0000
  C   C1177     1.0  0.36660  0.65031  0.35539  1.0000
  N   N84       1.0  0.37626  0.65145  0.36215  1.0000
  H   H1971     1.0  0.48222  0.94966  0.45880  1.0000
  H   H1972     1.0  0.31966  0.79185  0.64568  1.0000
  H   H1973     1.0  0.26259  0.75684  0.44500  1.0000
  H   H1974     1.0  0.46131  0.83897  0.47263  1.0000
  H   H1975     1.0  0.28954  0.53045  0.37759  1.0000
  H   H1976     1.0  0.28018  0.95870  0.62360  1.0000
  H   H1977     1.0  0.27993  0.80735  0.46981  1.0000
  C   C1178     1.0  0.36059  0.59599  0.55978  1.0000
  N   N85       1.0  0.32224  0.87693  0.37039  1.0000
  C   C1179     1.0  0.42306  0.89207  0.63204  1.0000
  C   C1180     1.0  0.31424  0.89545  0.37843  1.0000
  C   C1181     1.0  0.28823  0.51437  0.38419  1.0000
  H   H1978     1.0  0.34109  0.60185  0.58887  1.0000
  H   H1979     1.0  0.35616  0.59695  0.53071  1.0000
  H   H1980     1.0  0.35103  0.64040  0.56555  1.0000
  H   H1981     1.0  0.41830  0.88868  0.41021  1.0000
  H   H1982     1.0  0.31090  0.89048  0.39566  1.0000
  S   S341      1.0  0.36389  0.63744  0.63143  1.0000
  H   H1983     1.0  0.36983  0.67409  0.38257  1.0000
  C   C1182     1.0  0.29594  0.78505  0.41294  1.0000
  H   H1984     1.0  0.41738  0.92545  0.35110  1.0000
  H   H1985     1.0  0.29649  0.59006  0.39508  1.0000
  H   H1986     1.0  0.30255  0.59732  0.57291  1.0000
  H   H1987     1.0  0.35205  0.58120  0.38775  1.0000
  H   H1988     1.0  0.24083  0.93250  0.32379  1.0000
  C   C1183     1.0  0.37493  0.67323  0.36660  1.0000
  C   C1184     1.0  0.31708  0.76335  0.56162  1.0000
  C   C1185     1.0  0.31746  0.75096  0.54505  1.0000
  H   H1989     1.0  0.24611  0.51061  0.37908  1.0000
  H   H1990     1.0  0.30853  0.76932  0.56812  1.0000
  H   H1991     1.0  0.32000  0.75144  0.57512  1.0000
  H   H1992     1.0  0.24067  0.53504  0.36354  1.0000
  H   H1993     1.0  0.31226  0.73922  0.55237  1.0000
  H   H1994     1.0  0.43680  0.87147  0.49592  1.0000
  C   C1186     1.0  0.45453  0.86060  0.63612  1.0000
  H   H1995     1.0  0.26364  0.76441  0.46736  1.0000
  S   S342      1.0  0.47509  0.94812  0.37055  1.0000
  C   C1187     1.0  0.30046  0.58834  0.40808  1.0000
  H   H1996     1.0  0.34350  0.87805  0.39093  1.0000
  C   C1188     1.0  0.43064  0.90770  0.62196  1.0000
  C   C1189     1.0  0.30474  0.90567  0.36765  1.0000
  H   H1997     1.0  0.46261  0.99159  0.35142  1.0000
  H   H1998     1.0  0.43204  0.87562  0.38121  1.0000
  H   H1999     1.0  0.44610  0.83791  0.51279  1.0000
  H   H2000     1.0  0.29289  0.61412  0.60580  1.0000
  H   H2001     1.0  0.40503  0.74568  0.50211  1.0000
  H   H2002     1.0  0.31807  0.90889  0.37667  1.0000
  H   H2003     1.0  0.35960  0.63043  0.34472  1.0000
  H   H2004     1.0  0.28228  0.56830  0.60978  1.0000
  H   H2005     1.0  0.43993  0.89790  0.39121  1.0000
  C   C1190     1.0  0.40497  0.72852  0.50444  1.0000
  C   C1191     1.0  0.38038  0.74470  0.51448  1.0000
  C   C1192     1.0  0.41680  0.71657  0.50058  1.0000
  H   H2006     1.0  0.40168  0.72788  0.49123  1.0000
  H   H2007     1.0  0.38447  0.74536  0.49772  1.0000
  Fe  Fe170     1.0  0.46820  0.94186  0.40517  1.0000
  S   S343      1.0  0.33219  0.86491  0.63625  1.0000
  C   C1193     1.0  0.29809  0.59784  0.60632  1.0000
  H   H2008     1.0  0.38491  0.62276  0.40886  1.0000
  H   H2009     1.0  0.32315  0.59423  0.40710  1.0000
  N   N86       1.0  0.44305  0.81597  0.49759  1.0000
  C   C1194     1.0  0.29801  0.59238  0.64361  1.0000
  S   S344      1.0  0.33828  0.80163  0.65156  1.0000
  H   H2010     1.0  0.38800  0.69798  0.54004  1.0000
  H   H2011     1.0  0.29969  0.55230  0.61938  1.0000
  H   H2012     1.0  0.43249  0.83719  0.51759  1.0000
  C   C1195     1.0  0.35253  0.62585  0.63987  1.0000
  N   N87       1.0  0.25735  0.52825  0.32542  1.0000
  H   H2013     1.0  0.45169  0.99167  0.39919  1.0000
  C   C1196     1.0  0.36131  0.85566  0.51896  1.0000
  H   H2014     1.0  0.36976  0.86453  0.53627  1.0000
  H   H2015     1.0  0.37667  0.86317  0.56293  1.0000
  C   C1197     1.0  0.45713  0.87031  0.64969  1.0000
  S   S345      1.0  0.32360  0.60019  0.34753  1.0000
  H   H2016     1.0  0.30011  0.89403  0.36808  1.0000
  H   H2017     1.0  0.43538  0.78414  0.48587  1.0000
  H   H2018     1.0  0.35819  0.85536  0.55215  1.0000
  H   H2019     1.0  0.35576  0.87158  0.51686  1.0000
  H   H2020     1.0  0.38962  0.70598  0.51200  1.0000
  C   C1198     1.0  0.35767  0.58092  0.60756  1.0000
  H   H2021     1.0  0.33707  0.62550  0.56942  1.0000
  H   H2022     1.0  0.36135  0.57128  0.62104  1.0000
  H   H2023     1.0  0.29207  0.62726  0.63315  1.0000
  H   H2024     1.0  0.30017  0.55139  0.64534  1.0000
  H   H2025     1.0  0.32731  0.86256  0.39996  1.0000
  C   C1199     1.0  0.27634  0.52297  0.33141  1.0000
  C   C1200     1.0  0.36979  0.69303  0.35163  1.0000
  C   C1201     1.0  0.32903  0.62498  0.36793  1.0000
  H   H2026     1.0  0.45248  0.79431  0.53391  1.0000
  C   C1202     1.0  0.38824  0.73913  0.52918  1.0000
  Fe  Fe171     1.0  0.46097  0.93785  0.36803  1.0000
  Fe  Fe172     1.0  0.48233  0.91290  0.37646  1.0000
  C   C1203     1.0  0.37036  0.62143  0.56072  1.0000
  C   C1204     1.0  0.30187  0.56095  0.62888  1.0000
  N   N88       1.0  0.36158  0.60976  0.57327  1.0000
  H   H2027     1.0  0.31147  0.80559  0.59741  1.0000
  H   H2028     1.0  0.27087  0.57100  0.63093  1.0000
  H   H2029     1.0  0.33331  0.55733  0.40608  1.0000
  C   C1205     1.0  0.35148  0.62612  0.57875  1.0000
  C   C1206     1.0  0.48561  0.93255  0.45820  1.0000
  H   H2030     1.0  0.42931  0.91107  0.41892  1.0000
  S   S346      1.0  0.47627  0.90715  0.41171  1.0000
  H   H2031     1.0  0.40690  0.67508  0.53435  1.0000
  H   H2032     1.0  0.41875  0.70133  0.51188  1.0000
  H   H2033     1.0  0.44478  0.87334  0.35163  1.0000
  H   H2034     1.0  0.43128  0.80015  0.52075  1.0000
  H   H2035     1.0  0.36410  0.75919  0.43298  1.0000
  C   C1207     1.0  0.45490  0.81015  0.48921  1.0000
  C   C1208     1.0  0.33132  0.60471  0.36300  1.0000
  H   H2036     1.0  0.37885  0.62309  0.58382  1.0000
  H   H2037     1.0  0.30247  0.79747  0.54661  1.0000
  H   H2038     1.0  0.29510  0.79184  0.39644  1.0000
  C   C1209     1.0  0.42368  0.95052  0.35469  1.0000
  H   H2039     1.0  0.38349  0.73550  0.54560  1.0000
  Fe  Fe173     1.0  0.26348  0.85548  0.32982  1.0000
  C   C1210     1.0  0.39386  0.70214  0.52507  1.0000
  H   H2040     1.0  0.33560  0.78027  0.45326  1.0000
  H   H2041     1.0  0.32880  0.82904  0.38185  1.0000
  H   H2042     1.0  0.39073  0.75424  0.52764  1.0000
  H   H2043     1.0  0.36813  0.58379  0.55675  1.0000
  H   H2044     1.0  0.35161  0.63217  0.59247  1.0000
  C   C1211     1.0  0.43471  0.91311  0.38491  1.0000
  C   C1212     1.0  0.40222  0.68147  0.52193  1.0000
  C   C1213     1.0  0.31088  0.57116  0.40554  1.0000
  H   H2045     1.0  0.30373  0.95875  0.64554  1.0000
  S   S347      1.0  0.30407  0.56443  0.35934  1.0000
  H   H2046     1.0  0.26278  0.54865  0.33888  1.0000
  H   H2047     1.0  0.38480  0.79547  0.62797  1.0000
  H   H2048     1.0  0.32265  0.63738  0.36231  1.0000
  H   H2049     1.0  0.43413  0.80072  0.46065  1.0000
  H   H2050     1.0  0.29804  0.53944  0.45961  1.0000
  C   C1214     1.0  0.42723  0.92185  0.40412  1.0000
  C   C1215     1.0  0.44735  0.88828  0.35026  1.0000
  H   H2051     1.0  0.28875  0.59656  0.58470  1.0000
  S   S348      1.0  0.45038  0.95741  0.34603  1.0000
  H   H2052     1.0  0.25719  0.78377  0.44755  1.0000
  H   H2053     1.0  0.40748  0.68362  0.50597  1.0000
  C   C1216     1.0  0.40307  0.71555  0.54394  1.0000
  S   S349      1.0  0.30809  0.52627  0.33398  1.0000
  H   H2054     1.0  0.33631  0.75255  0.45552  1.0000
  H   H2055     1.0  0.36343  0.73182  0.46196  1.0000
  H   H2056     1.0  0.45861  0.86276  0.61968  1.0000
  H   H2057     1.0  0.42327  0.88573  0.36351  1.0000
  C   C1217     1.0  0.41617  0.88809  0.39569  1.0000
  H   H2058     1.0  0.26027  0.79331  0.41115  1.0000
  C   C1218     1.0  0.28713  0.95055  0.63100  1.0000
  H   H2059     1.0  0.42199  0.72722  0.50022  1.0000
  H   H2060     1.0  0.39795  0.66893  0.52291  1.0000
  H   H2061     1.0  0.33507  0.62687  0.59598  1.0000
  C   C1219     1.0  0.27263  0.80253  0.46980  1.0000
  H   H2062     1.0  0.42637  0.92435  0.61666  1.0000
  H   H2063     1.0  0.40975  0.70146  0.54345  1.0000
  H   H2064     1.0  0.35444  0.58647  0.56783  1.0000
  C   C1220     1.0  0.44372  0.79686  0.53651  1.0000
  C   C1221     1.0  0.43773  0.85775  0.48870  1.0000
  H   H2065     1.0  0.28648  0.93348  0.63700  1.0000
  C   C1222     1.0  0.31119  0.79576  0.58673  1.0000
  H   H2066     1.0  0.30466  0.80455  0.57856  1.0000
  H   H2067     1.0  0.36651  0.78409  0.47443  1.0000
  C   C1223     1.0  0.28569  0.98420  0.64059  1.0000
  H   H2068     1.0  0.36187  0.72492  0.49696  1.0000
  H   H2069     1.0  0.39733  0.71065  0.55892  1.0000
  S   S350      1.0  0.32812  0.53487  0.34863  1.0000
  H   H2070     1.0  0.32781  0.78240  0.58182  1.0000
  H   H2071     1.0  0.30934  0.78044  0.59694  1.0000
  H   H2072     1.0  0.43846  0.83022  0.46746  1.0000
  H   H2073     1.0  0.41864  0.92347  0.40569  1.0000
  C   C1224     1.0  0.40744  0.73345  0.54686  1.0000
  C   C1225     1.0  0.30794  0.80811  0.53735  1.0000
  C   C1226     1.0  0.32216  0.79190  0.57151  1.0000
  H   H2074     1.0  0.41366  0.73842  0.53306  1.0000
  H   H2075     1.0  0.40106  0.74756  0.55016  1.0000
  C   C1227     1.0  0.37693  0.63504  0.38257  1.0000
  H   H2076     1.0  0.39836  0.91040  0.62573  1.0000
  C   C1228     1.0  0.31405  0.55866  0.62158  1.0000
  H   H2077     1.0  0.30614  0.82243  0.54420  1.0000
  C   C1229     1.0  0.43682  0.81746  0.48151  1.0000
  H   H2078     1.0  0.31789  0.54136  0.62336  1.0000
  H   H2079     1.0  0.41115  0.72738  0.56080  1.0000
  H   H2080     1.0  0.32328  0.76643  0.48427  1.0000
  H   H2081     1.0  0.33545  0.87294  0.34381  1.0000
  C   C1230     1.0  0.43860  0.79698  0.47336  1.0000
  H   H2082     1.0  0.33309  0.74470  0.49376  1.0000
  H   H2083     1.0  0.39718  0.93844  0.62236  1.0000
  H   H2084     1.0  0.32443  0.80772  0.56505  1.0000
  H   H2085     1.0  0.28047  0.53104  0.33815  1.0000
  H   H2086     1.0  0.36941  0.75659  0.47274  1.0000
  C   C1231     1.0  0.36959  0.86141  0.64704  1.0000
  C   C1232     1.0  0.36541  0.77301  0.46591  1.0000
  H   H2087     1.0  0.44179  0.92220  0.34316  1.0000
  C   C1233     1.0  0.35382  0.73030  0.49328  1.0000
  H   H2088     1.0  0.28891  0.81462  0.42400  1.0000
  N   N89       1.0  0.32320  0.78099  0.55389  1.0000
  H   H2089     1.0  0.34921  0.74284  0.50203  1.0000
  H   H2090     1.0  0.36953  0.77779  0.44922  1.0000
  C   C1234     1.0  0.27869  0.50968  0.38400  1.0000
  C   C1235     1.0  0.38532  0.63549  0.39418  1.0000
  H   H2091     1.0  0.35108  0.72551  0.46499  1.0000
  H   H2092     1.0  0.34988  0.71648  0.50004  1.0000
  C   C1236     1.0  0.35482  0.73644  0.46906  1.0000
  C   C1237     1.0  0.44006  0.79836  0.51624  1.0000
  H   H2093     1.0  0.31917  0.82651  0.36950  1.0000
  Fe  Fe174     1.0  0.30210  0.56179  0.32833  1.0000
  H   H2094     1.0  0.33732  0.75678  0.55991  1.0000
  H   H2095     1.0  0.35102  0.77582  0.53697  1.0000
  C   C1238     1.0  0.35337  0.77520  0.46818  1.0000
  H   H2096     1.0  0.30875  0.55699  0.40351  1.0000
  H   H2097     1.0  0.36487  0.61429  0.52702  1.0000
  N   N90       1.0  0.42963  0.90989  0.36896  1.0000
  H   H2098     1.0  0.34966  0.77456  0.48505  1.0000
  H   H2099     1.0  0.35716  0.75379  0.40677  1.0000
  C   C1239     1.0  0.34301  0.63668  0.63349  1.0000
  C   C1240     1.0  0.33483  0.77064  0.54726  1.0000
  C   C1241     1.0  0.31983  0.79707  0.53502  1.0000
  H   H2100     1.0  0.35310  0.73435  0.42965  1.0000
  H   H2101     1.0  0.32557  0.74156  0.53981  1.0000
  H   H2102     1.0  0.33141  0.89764  0.39356  1.0000
  H   H2103     1.0  0.28061  0.76495  0.44889  1.0000
  H   H2104     1.0  0.32894  0.90007  0.34416  1.0000
  C   C1242     1.0  0.34285  0.78526  0.54186  1.0000
  H   H2105     1.0  0.31738  0.56504  0.63129  1.0000
  H   H2106     1.0  0.32410  0.81027  0.53050  1.0000
  C   C1243     1.0  0.43803  0.90807  0.34888  1.0000
  C   C1244     1.0  0.33964  0.58894  0.37033  1.0000
  C   C1245     1.0  0.35526  0.76361  0.43602  1.0000
  C   C1246     1.0  0.29118  0.61435  0.64754  1.0000
  H   H2107     1.0  0.35011  0.79189  0.46039  1.0000
  C   C1247     1.0  0.34557  0.59346  0.38238  1.0000
  H   H2108     1.0  0.36577  0.60555  0.60325  1.0000
  C   C1248     1.0  0.34587  0.77078  0.62832  1.0000
  H   H2109     1.0  0.42815  0.82227  0.48804  1.0000
  H   H2110     1.0  0.34142  0.79903  0.52856  1.0000
  H   H2111     1.0  0.34288  0.79113  0.55572  1.0000
  H   H2112     1.0  0.33625  0.76399  0.53306  1.0000
  H   H2113     1.0  0.31269  0.85499  0.39150  1.0000
  H   H2114     1.0  0.39330  0.64814  0.35133  1.0000
  H   H2115     1.0  0.31774  0.76550  0.62810  1.0000
  C   C1249     1.0  0.34077  0.61919  0.58337  1.0000
  H   H2116     1.0  0.35324  0.78096  0.42873  1.0000
  S   S351      1.0  0.41737  0.80861  0.64772  1.0000
  H   H2117     1.0  0.33589  0.57417  0.43047  1.0000
  H   H2118     1.0  0.33314  0.77220  0.49358  1.0000
  H   H2119     1.0  0.30599  0.81351  0.52148  1.0000
  H   H2120     1.0  0.31437  0.76165  0.53124  1.0000
  C   C1250     1.0  0.33855  0.76382  0.46219  1.0000
  H   H2121     1.0  0.34369  0.75863  0.42095  1.0000
  C   C1251     1.0  0.33184  0.76159  0.48492  1.0000
  C   C1252     1.0  0.35201  0.75176  0.42290  1.0000
  C   C1253     1.0  0.42070  0.92841  0.36322  1.0000
  H   H2122     1.0  0.29271  0.98774  0.62792  1.0000
  H   H2123     1.0  0.43010  0.85974  0.48413  1.0000
  H   H2124     1.0  0.44130  0.78290  0.54861  1.0000
  H   H2125     1.0  0.32236  0.79028  0.52066  1.0000
  H   H2126     1.0  0.31604  0.57685  0.39004  1.0000
  S   S352      1.0  0.32500  0.59191  0.65316  1.0000
  C   C1254     1.0  0.32790  0.58335  0.43682  1.0000
  H   H2127     1.0  0.44327  0.78234  0.51216  1.0000
  H   H2128     1.0  0.37984  0.81726  0.64053  1.0000
  H   H2129     1.0  0.41634  0.96307  0.35290  1.0000
  H   H2130     1.0  0.37030  0.70768  0.35587  1.0000
  H   H2131     1.0  0.34225  0.65292  0.62436  1.0000
  C   C1255     1.0  0.33448  0.62633  0.63851  1.0000
  H   H2132     1.0  0.28236  0.55092  0.63568  1.0000
  H   H2133     1.0  0.32964  0.83983  0.35385  1.0000
  C   C1256     1.0  0.29701  0.59066  0.58730  1.0000
  H   H2134     1.0  0.30624  0.60090  0.60304  1.0000
  C   C1257     1.0  0.40284  0.92265  0.62441  1.0000
  C   C1258     1.0  0.27972  0.56753  0.62694  1.0000
  H   H2135     1.0  0.30409  0.78575  0.41326  1.0000
  H   H2136     1.0  0.35178  0.74728  0.60914  1.0000
  H   H2137     1.0  0.25999  0.49976  0.35027  1.0000
  H   H2138     1.0  0.27768  0.76698  0.42420  1.0000
  H   H2139     1.0  0.32900  0.59950  0.43627  1.0000
  H   H2140     1.0  0.37375  0.62608  0.33577  1.0000
  H   H2141     1.0  0.24755  0.50574  0.34362  1.0000
  H   H2142     1.0  0.47876  0.92554  0.45936  1.0000
  C   C1259     1.0  0.26581  0.53822  0.32719  1.0000
  H   H2143     1.0  0.43852  0.99118  0.39869  1.0000
  C   C1260     1.0  0.44632  0.99392  0.38851  1.0000
  Fe  Fe175     1.0  0.24214  0.88652  0.32998  1.0000
  C   C1261     1.0  0.37362  0.75681  0.64581  1.0000
  N   N91       1.0  0.41432  0.89766  0.65050  1.0000
  C   C1262     1.0  0.32154  0.88324  0.33084  1.0000
  H   H2144     1.0  0.27893  0.99110  0.63242  1.0000
  H   H2145     1.0  0.37381  0.69393  0.33486  1.0000
  C   C1263     1.0  0.38712  0.65933  0.32349  1.0000
  H   H2146     1.0  0.37968  0.74373  0.65276  1.0000
  H   H2147     1.0  0.32491  0.86833  0.32472  1.0000
  H   H2148     1.0  0.46592  0.99368  0.44975  1.0000
  H   H2149     1.0  0.40478  0.87914  0.64469  1.0000
  S   S353      1.0  0.38974  0.84846  0.65455  1.0000
  H   H2150     1.0  0.47248  0.94286  0.32740  1.0000
  H   H2151     1.0  0.29030  0.64186  0.33071  1.0000
  H   H2152     1.0  0.47021  0.81934  0.65316  1.0000
  H   H2153     1.0  0.30005  0.93364  0.65480  1.0000
  H   H2154     1.0  0.28265  0.61397  0.65411  1.0000
  S   S354      1.0  0.25893  0.89151  0.32170  1.0000
  H   H2155     1.0  0.48167  0.92673  0.76212  1.0000
  H   H2156     1.0  0.25243  0.87866  0.93685  1.0000
  C   C1264     1.0  0.27013  0.50797  0.67809  1.0000
  H   H2157     1.0  0.40733  0.88804  0.69619  1.0000
  S   S355      1.0  0.27056  0.53180  0.83702  1.0000
  S   S356      1.0  0.30412  0.52704  0.72564  1.0000
  C   C1265     1.0  0.24210  0.91656  0.91553  1.0000
  S   S357      1.0  0.32573  0.54811  0.71101  1.0000
  H   H2158     1.0  0.47326  0.91189  0.84405  1.0000
  S   S358      1.0  0.30321  0.57642  0.69900  1.0000
  Fe  Fe176     1.0  0.30861  0.55611  0.72808  1.0000
  S   S359      1.0  0.30310  0.56989  0.75715  1.0000
  H   H2159     1.0  0.25434  0.57304  0.72499  1.0000
  C   C1266     1.0  0.48366  0.94425  0.85001  1.0000
  Fe  Fe177     1.0  0.27152  0.94885  0.76574  1.0000
  S   S360      1.0  0.25528  0.96217  0.75895  1.0000
  S   S361      1.0  0.27756  0.96632  0.78237  1.0000
  Fe  Fe178     1.0  0.27714  0.91740  0.73765  1.0000
  S   S362      1.0  0.26147  0.92840  0.72767  1.0000
  S   S363      1.0  0.29121  0.89254  0.72650  1.0000
  Fe  Fe179     1.0  0.26340  0.96146  0.72544  1.0000
  H   H2160     1.0  0.27999  0.99212  0.67240  1.0000
  Fe  Fe180     1.0  0.25462  0.92820  0.76219  1.0000
  C   C1267     1.0  0.28614  0.89505  0.68902  1.0000
  S   S364      1.0  0.27972  0.95058  0.73191  1.0000
  S   S365      1.0  0.27019  0.91460  0.77245  1.0000
  H   H2161     1.0  0.30831  0.84523  0.65768  1.0000
  H   H2162     1.0  0.39021  0.79094  0.68394  1.0000
  S   S366      1.0  0.25531  0.95681  0.87864  1.0000
  H   H2163     1.0  0.24027  0.93378  0.90793  1.0000
  C   C1268     1.0  0.24547  0.90431  0.89753  1.0000
  H   H2164     1.0  0.40025  0.88586  0.66963  1.0000
  C   C1269     1.0  0.27745  0.59264  0.73005  1.0000
  C   C1270     1.0  0.24122  0.50957  0.72175  1.0000
  H   H2165     1.0  0.31570  0.84957  0.69240  1.0000
  H   H2166     1.0  0.29441  0.96622  0.68301  1.0000
  H   H2167     1.0  0.27873  0.93716  0.67191  1.0000
  S   S367      1.0  0.31632  0.53708  0.67547  1.0000
  C   C1271     1.0  0.48432  0.90676  0.88152  1.0000
  S   S368      1.0  0.45703  0.92551  0.76168  1.0000
  H   H2168     1.0  0.30888  0.84744  0.72722  1.0000
  C   C1272     1.0  0.45620  0.99164  0.77032  1.0000
  C   C1273     1.0  0.46977  0.91982  0.83000  1.0000
  H   H2169     1.0  0.24412  0.96674  0.70673  1.0000
  C   C1274     1.0  0.35837  0.81281  0.67744  1.0000
  H   H2170     1.0  0.24576  0.85960  0.95619  1.0000
  H   H2171     1.0  0.26033  0.56476  0.76849  1.0000
  Fe  Fe181     1.0  0.47964  0.93079  0.68657  1.0000
  H   H2172     1.0  0.26489  0.98992  0.84860  1.0000
  H   H2173     1.0  0.30965  0.76993  0.69310  1.0000
  S   S369      1.0  0.46469  0.96498  0.87161  1.0000
  S   S370      1.0  0.23859  0.91985  0.77689  1.0000
  H   H2174     1.0  0.47415  0.93474  0.79764  1.0000
  C   C1275     1.0  0.30045  0.83308  0.69061  1.0000
  C   C1276     1.0  0.48626  0.79926  0.70031  1.0000
  Fe  Fe182     1.0  0.32078  0.52014  0.70664  1.0000
  C   C1277     1.0  0.47842  0.92322  0.80955  1.0000
  H   H2175     1.0  0.26515  0.53722  0.68954  1.0000
  H   H2176     1.0  0.24646  0.96638  0.82725  1.0000
  C   C1278     1.0  0.45685  0.95095  0.76474  1.0000
  C   C1279     1.0  0.45841  0.96769  0.74718  1.0000
  H   H2177     1.0  0.36084  0.78232  0.65500  1.0000
  C   C1280     1.0  0.25767  0.60183  0.78206  1.0000
  C   C1281     1.0  0.45492  0.97476  0.78787  1.0000
  C   C1282     1.0  0.45500  0.95456  0.78509  1.0000
  H   H2178     1.0  0.45976  0.96500  0.73145  1.0000
  H   H2179     1.0  0.48347  0.89079  0.76311  1.0000
  H   H2180     1.0  0.40735  0.84774  0.67352  1.0000
  H   H2181     1.0  0.29334  0.82599  0.69840  1.0000
  C   C1283     1.0  0.30568  0.78495  0.69882  1.0000
  C   C1284     1.0  0.47541  0.94312  0.86802  1.0000
  H   H2182     1.0  0.25094  0.90404  0.80985  1.0000
  H   H2183     1.0  0.46935  0.92328  0.89764  1.0000
  N   N92       1.0  0.47892  0.82107  0.69730  1.0000
  H   H2184     1.0  0.40105  0.77485  0.66914  1.0000
  H   H2185     1.0  0.41972  0.85087  0.65595  1.0000
  H   H2186     1.0  0.33239  0.80709  0.69980  1.0000
  C   C1285     1.0  0.47719  0.82692  0.67501  1.0000
  H   H2187     1.0  0.28441  0.58778  0.73768  1.0000
  C   C1286     1.0  0.36837  0.77323  0.65994  1.0000
  H   H2188     1.0  0.46243  0.81568  0.67934  1.0000
  H   H2189     1.0  0.28505  0.61460  0.70363  1.0000
  C   C1287     1.0  0.40764  0.88093  0.65796  1.0000
  S   S371      1.0  0.24242  0.99248  0.91957  1.0000
  H   H2190     1.0  0.48491  0.82547  0.66329  1.0000
  H   H2191     1.0  0.27793  0.89661  0.69760  1.0000
  S   S372      1.0  0.25942  0.99178  0.70161  1.0000
  H   H2192     1.0  0.38414  0.76116  0.67923  1.0000
  H   H2193     1.0  0.48022  0.97260  0.89525  1.0000
  C   C1288     1.0  0.29414  0.89320  0.69946  1.0000
  H   H2194     1.0  0.46570  0.80555  0.71398  1.0000
  H   H2195     1.0  0.23903  0.90715  0.88912  1.0000
  H   H2196     1.0  0.42563  0.88392  0.67083  1.0000
  H   H2197     1.0  0.30385  0.82083  0.66142  1.0000
  C   C1289     1.0  0.30475  0.89092  0.68842  1.0000
  C   C1290     1.0  0.48654  0.97323  0.71912  1.0000
  H   H2198     1.0  0.48358  0.96622  0.70928  1.0000
  H   H2199     1.0  0.31093  0.88977  0.69643  1.0000
  C   C1291     1.0  0.27223  0.96240  0.80952  1.0000
  C   C1292     1.0  0.26876  0.94363  0.82086  1.0000
  C   C1293     1.0  0.26395  0.94150  0.84243  1.0000
  C   C1294     1.0  0.26235  0.95840  0.85239  1.0000
  H   H2200     1.0  0.46700  0.84032  0.73460  1.0000
  C   C1295     1.0  0.44160  0.84539  0.66495  1.0000
  H   H2201     1.0  0.26974  0.93083  0.81302  1.0000
  H   H2202     1.0  0.26118  0.92707  0.85114  1.0000
  H   H2203     1.0  0.29267  0.93890  0.69040  1.0000
  H   H2204     1.0  0.48384  0.93186  0.81214  1.0000
  H   H2205     1.0  0.27360  0.51063  0.73554  1.0000
  C   C1296     1.0  0.46819  0.82071  0.71230  1.0000
  C   C1297     1.0  0.27757  0.61524  0.71598  1.0000
  H   H2206     1.0  0.26456  0.98115  0.65663  1.0000
  C   C1298     1.0  0.27186  0.52581  0.68295  1.0000
  H   H2207     1.0  0.29807  0.84949  0.69375  1.0000
  C   C1299     1.0  0.31874  0.83259  0.69113  1.0000
  C   C1300     1.0  0.27964  0.54178  0.81460  1.0000
  C   C1301     1.0  0.28371  0.53147  0.79761  1.0000
  C   C1302     1.0  0.29127  0.53940  0.78014  1.0000
  C   C1303     1.0  0.29445  0.55806  0.77936  1.0000
  C   C1304     1.0  0.29040  0.56816  0.79645  1.0000
  C   C1305     1.0  0.28314  0.55989  0.81412  1.0000
  H   H2208     1.0  0.29524  0.84669  0.72880  1.0000
  H   H2209     1.0  0.29450  0.53124  0.76727  1.0000
  H   H2210     1.0  0.29291  0.58244  0.79605  1.0000
  H   H2211     1.0  0.28012  0.56775  0.82732  1.0000
  H   H2212     1.0  0.34529  0.57842  0.66688  1.0000
  H   H2213     1.0  0.27756  0.62684  0.72505  1.0000
  H   H2214     1.0  0.27088  0.62119  0.70772  1.0000
  H   H2215     1.0  0.29402  0.61872  0.65948  1.0000
  Fe  Fe183     1.0  0.31989  0.56595  0.68130  1.0000
  H   H2216     1.0  0.32046  0.78885  0.70200  1.0000
  H   H2217     1.0  0.46191  0.83376  0.70586  1.0000
  H   H2218     1.0  0.36686  0.85555  0.66377  1.0000
  H   H2219     1.0  0.25271  0.59944  0.70848  1.0000
  S   S373      1.0  0.25631  0.50450  0.81022  1.0000
  H   H2220     1.0  0.28263  0.89558  0.65949  1.0000
  H   H2221     1.0  0.40015  0.92217  0.65726  1.0000
  C   C1306     1.0  0.46706  0.82356  0.73478  1.0000
  H   H2222     1.0  0.24972  0.60310  0.77925  1.0000
  H   H2223     1.0  0.43581  0.83540  0.67113  1.0000
  H   H2224     1.0  0.45357  0.97741  0.80361  1.0000
  H   H2225     1.0  0.47556  0.87209  0.77841  1.0000
  C   C1307     1.0  0.47716  0.89313  0.79649  1.0000
  H   H2226     1.0  0.36985  0.78901  0.69287  1.0000
  C   C1308     1.0  0.26652  0.96341  0.66121  1.0000
  H   H2227     1.0  0.47328  0.81255  0.74281  1.0000
  C   C1309     1.0  0.41930  0.89847  0.66768  1.0000
  H   H2228     1.0  0.27303  0.56495  0.77129  1.0000
  C   C1310     1.0  0.24350  0.96409  0.81448  1.0000
  H   H2229     1.0  0.41630  0.85766  0.68157  1.0000
  H   H2230     1.0  0.23880  0.94506  0.86074  1.0000
  H   H2231     1.0  0.32656  0.82499  0.71799  1.0000
  H   H2232     1.0  0.27393  0.60215  0.76623  1.0000
  C   C1311     1.0  0.26828  0.56769  0.75931  1.0000
  H   H2233     1.0  0.47305  0.84403  0.67105  1.0000
  S   S374      1.0  0.24801  0.53927  0.75951  1.0000
  H   H2234     1.0  0.26046  0.95878  0.67561  1.0000
  H   H2235     1.0  0.26003  0.58638  0.79298  1.0000
  Fe  Fe184     1.0  0.25614  0.52731  0.82938  1.0000
  C   C1312     1.0  0.48361  0.83829  0.69959  1.0000
  H   H2236     1.0  0.30247  0.78016  0.71601  1.0000
  H   H2237     1.0  0.24566  0.88388  0.96277  1.0000
  C   C1313     1.0  0.45202  0.86750  0.67106  1.0000
  H   H2238     1.0  0.32182  0.83317  0.67394  1.0000
  H   H2239     1.0  0.27277  0.53403  0.75844  1.0000
  S   S375      1.0  0.28412  0.54995  0.68806  1.0000
  C   C1314     1.0  0.26597  0.97696  0.84102  1.0000
  H   H2240     1.0  0.48413  0.88365  0.83331  1.0000
  C   C1315     1.0  0.23939  0.89739  0.83907  1.0000
  H   H2241     1.0  0.41624  0.90141  0.70018  1.0000
  C   C1316     1.0  0.27351  0.54956  0.74722  1.0000
  H   H2242     1.0  0.35533  0.81924  0.69204  1.0000
  C   C1317     1.0  0.36992  0.80017  0.67713  1.0000
  Fe  Fe185     1.0  0.24913  0.98957  0.88599  1.0000
  C   C1318     1.0  0.45785  0.98814  0.75000  1.0000
  H   H2243     1.0  0.46422  0.91071  0.82889  1.0000
  S   S376      1.0  0.46199  0.93108  0.69788  1.0000
  H   H2244     1.0  0.48224  0.78684  0.69989  1.0000
  C   C1319     1.0  0.24530  0.87704  0.94980  1.0000
  H   H2245     1.0  0.36585  0.76400  0.67628  1.0000
  H   H2246     1.0  0.48444  0.83634  0.71594  1.0000
  C   C1320     1.0  0.44425  0.85496  0.67854  1.0000
  C   C1321     1.0  0.48169  0.88022  0.77892  1.0000
  Fe  Fe186     1.0  0.24488  0.53179  0.79484  1.0000
  Fe  Fe187     1.0  0.46588  0.91845  0.72993  1.0000
  H   H2247     1.0  0.24519  0.89236  0.84886  1.0000
  H   H2248     1.0  0.44032  0.85245  0.69507  1.0000
  H   H2249     1.0  0.28112  0.51732  0.79802  1.0000
  Fe  Fe188     1.0  0.24165  0.49761  0.83442  1.0000
  S   S377      1.0  0.46915  0.88439  0.72752  1.0000
  C   C1322     1.0  0.31398  0.79879  0.69389  1.0000
  H   H2250     1.0  0.45925  0.82044  0.74457  1.0000
  H   H2251     1.0  0.25048  0.59364  0.74974  1.0000
  N   N93       1.0  0.30995  0.82031  0.69982  1.0000
  C   C1323     1.0  0.27110  0.97878  0.81974  1.0000
  C   C1324     1.0  0.30669  0.81677  0.72353  1.0000
  C   C1325     1.0  0.32854  0.82381  0.70122  1.0000
  H   H2252     1.0  0.47356  0.88234  0.81090  1.0000
  S   S378      1.0  0.48294  0.92073  0.71900  1.0000
  C   C1326     1.0  0.30296  0.83716  0.73259  1.0000
  H   H2253     1.0  0.48342  0.95857  0.83773  1.0000
  H   H2254     1.0  0.27394  0.99316  0.81109  1.0000
  H   H2255     1.0  0.25688  0.61461  0.79043  1.0000
  H   H2256     1.0  0.24945  0.95109  0.80761  1.0000
  H   H2257     1.0  0.31325  0.80594  0.73101  1.0000
  H   H2258     1.0  0.29994  0.80843  0.72965  1.0000
  C   C1327     1.0  0.47574  0.92430  0.88372  1.0000
  H   H2259     1.0  0.26214  0.50555  0.68106  1.0000
  S   S379      1.0  0.45523  0.87842  0.68938  1.0000
  H   H2260     1.0  0.31769  0.80067  0.67685  1.0000
  H   H2261     1.0  0.25225  0.91016  0.88574  1.0000
  H   H2262     1.0  0.47027  0.90545  0.79152  1.0000
  N   N94       1.0  0.26737  0.59041  0.74659  1.0000
  C   C1328     1.0  0.41322  0.85818  0.66777  1.0000
  H   H2263     1.0  0.30159  0.83251  0.75009  1.0000
  H   H2264     1.0  0.48452  0.89225  0.89373  1.0000
  Fe  Fe189     1.0  0.30006  0.54660  0.69512  1.0000
  H   H2265     1.0  0.24928  0.91444  0.92183  1.0000
  H   H2266     1.0  0.46497  0.93572  0.83283  1.0000
  H   H2267     1.0  0.27937  0.58160  0.71923  1.0000
  H   H2268     1.0  0.33453  0.83370  0.69269  1.0000
  H   H2269     1.0  0.26434  0.62191  0.75350  1.0000
  C   C1329     1.0  0.28913  0.49669  0.66533  1.0000
  H   H2270     1.0  0.26560  0.58372  0.70859  1.0000
  H   H2271     1.0  0.35290  0.80280  0.67791  1.0000
  H   H2272     1.0  0.28213  0.54894  0.74094  1.0000
  H   H2273     1.0  0.25541  0.61519  0.73216  1.0000
  C   C1330     1.0  0.28223  0.52854  0.68000  1.0000
  S   S380      1.0  0.48395  0.89721  0.68062  1.0000
  H   H2274     1.0  0.24826  0.88685  0.90307  1.0000
  H   H2275     1.0  0.29890  0.51610  0.66854  1.0000
  C   C1331     1.0  0.24133  0.52659  0.74921  1.0000
  H   H2276     1.0  0.45368  0.94167  0.79870  1.0000
  C   C1332     1.0  0.26625  0.60470  0.76141  1.0000
  C   C1333     1.0  0.25757  0.59744  0.73736  1.0000
  C   C1334     1.0  0.24265  0.90400  0.81701  1.0000
  C   C1335     1.0  0.25770  0.58763  0.71899  1.0000
  C   C1336     1.0  0.29087  0.51410  0.67093  1.0000
  Fe  Fe190     1.0  0.46650  0.89662  0.69436  1.0000
  H   H2277     1.0  0.48105  0.97132  0.73479  1.0000
  H   H2278     1.0  0.26966  0.55071  0.73432  1.0000
  C   C1337     1.0  0.29734  0.95030  0.67900  1.0000
  H   H2279     1.0  0.25367  0.52464  0.72114  1.0000
  H   H2280     1.0  0.24322  0.97867  0.80182  1.0000
  H   H2281     1.0  0.30564  0.94434  0.68133  1.0000
  S   S381      1.0  0.24591  0.55528  0.81200  1.0000
  C   C1338     1.0  0.23990  0.98290  0.70793  1.0000
  H   H2282     1.0  0.36052  0.59646  0.65747  1.0000
  C   C1339     1.0  0.47075  0.81359  0.67001  1.0000
  H   H2283     1.0  0.24500  0.50488  0.70686  1.0000
  S   S382      1.0  0.48535  0.96016  0.66475  1.0000
  H   H2284     1.0  0.27717  0.96047  0.68076  1.0000
  H   H2285     1.0  0.47462  0.79635  0.67222  1.0000
  H   H2286     1.0  0.29905  0.79285  0.69057  1.0000
  C   C1340     1.0  0.41157  0.90134  0.68890  1.0000
  H   H2287     1.0  0.40572  0.91684  0.68727  1.0000
  H   H2288     1.0  0.37449  0.81211  0.67652  1.0000
  C   C1341     1.0  0.24609  0.52084  0.72976  1.0000
  H   H2289     1.0  0.29216  0.49956  0.83260  1.0000
  H   H2290     1.0  0.47809  0.85417  0.69641  1.0000
  H   H2291     1.0  0.23933  0.91954  0.95481  1.0000
  Fe  Fe191     1.0  0.46446  0.99505  0.84624  1.0000
  H   H2292     1.0  0.31552  0.88966  0.65843  1.0000
  N   N95       1.0  0.37521  0.78793  0.65980  1.0000
  H   H2293     1.0  0.35792  0.82697  0.66423  1.0000
  H   H2294     1.0  0.28862  0.50066  0.86016  1.0000
  N   N96       1.0  0.48472  0.90332  0.80152  1.0000
  C   C1342     1.0  0.27764  0.95483  0.66649  1.0000
  C   C1343     1.0  0.39316  0.78591  0.66860  1.0000
  C   C1344     1.0  0.34457  0.59471  0.65777  1.0000
  H   H2295     1.0  0.48489  0.78225  0.73355  1.0000
  H   H2296     1.0  0.42348  0.91199  0.66261  1.0000
  H   H2297     1.0  0.29733  0.58098  0.65924  1.0000
  C   C1345     1.0  0.28881  0.89436  0.66753  1.0000
  Fe  Fe192     1.0  0.48602  0.88748  0.71426  1.0000
  H   H2298     1.0  0.29074  0.49756  0.71997  1.0000
  C   C1346     1.0  0.30739  0.89043  0.66696  1.0000
  H   H2299     1.0  0.29454  0.84584  0.66166  1.0000
  H   H2300     1.0  0.32122  0.50142  0.75151  1.0000
  C   C1347     1.0  0.30203  0.83616  0.66650  1.0000
  H   H2301     1.0  0.39447  0.80000  0.65568  1.0000
  S   S383      1.0  0.24258  0.51776  0.85531  1.0000
  C   C1348     1.0  0.38561  0.77411  0.66493  1.0000
  C   C1349     1.0  0.29946  0.89193  0.65649  1.0000
  C   C1350     1.0  0.29729  0.95068  0.65607  1.0000
  H   H2302     1.0  0.51891  0.00755  0.27565  1.0000
  H   H2303     1.0  0.51214  0.03449  0.27689  1.0000
  H   H2304     1.0  0.70699  0.43242  0.29747  1.0000
  H   H2305     1.0  0.72314  0.39262  0.28620  1.0000
  H   H2306     1.0  0.68738  0.44092  0.23789  1.0000
  C   C1351     1.0  0.72667  0.47570  0.30818  1.0000
  C   C1352     1.0  0.70414  0.42910  0.23719  1.0000
  H   H2307     1.0  0.68512  0.49085  0.25966  1.0000
  C   C1353     1.0  0.71940  0.47622  0.23133  1.0000
  C   C1354     1.0  0.53492  0.06694  0.24637  1.0000
  H   H2308     1.0  0.49792  0.01678  0.29266  1.0000
  H   H2309     1.0  0.52804  0.04200  0.20134  1.0000
  H   H2310     1.0  0.52035  0.02714  0.23765  1.0000
  C   C1355     1.0  0.72250  0.46562  0.29493  1.0000
  H   H2311     1.0  0.70876  0.42026  0.27577  1.0000
  H   H2312     1.0  0.67541  0.43028  0.30762  1.0000
  H   H2313     1.0  0.51616  0.99711  0.21567  1.0000
  H   H2314     1.0  0.67306  0.45529  0.26501  1.0000
  H   H2315     1.0  0.50999  0.07680  0.27939  1.0000
  C   C1356     1.0  0.73111  0.03679  0.18983  1.0000
  H   H2316     1.0  0.72498  0.04771  0.18141  1.0000
  C   C1357     1.0  0.54192  0.00105  0.29772  1.0000
  C   C1358     1.0  0.51451  0.01831  0.28659  1.0000
  C   C1359     1.0  0.69744  0.45252  0.27445  1.0000
  H   H2317     1.0  0.51351  0.10134  0.23808  1.0000
  C   C1360     1.0  0.49409  0.07084  0.28856  1.0000
  C   C1361     1.0  0.53355  0.07707  0.22350  1.0000
  H   H2318     1.0  0.69482  0.41034  0.27695  1.0000
  H   H2319     1.0  0.71436  0.46299  0.30276  1.0000
  H   H2320     1.0  0.73108  0.08996  0.13501  1.0000
  S   S384      1.0  0.72520  0.03429  0.31676  1.0000
  C   C1362     1.0  0.72071  0.38319  0.32010  1.0000
  H   H2321     1.0  0.67592  0.46197  0.28622  1.0000
  H   H2322     1.0  0.72785  0.45053  0.29132  1.0000
  H   H2323     1.0  0.49209  0.01940  0.15861  1.0000
  C   C1363     1.0  0.50772  0.02932  0.20681  1.0000
  C   C1364     1.0  0.50655  0.04757  0.19065  1.0000
  C   C1365     1.0  0.51348  0.04760  0.17084  1.0000
  C   C1366     1.0  0.52139  0.02926  0.16723  1.0000
  N   N97       1.0  0.52640  0.06875  0.21532  1.0000
  H   H2324     1.0  0.48770  0.00543  0.20741  1.0000
  H   H2325     1.0  0.51264  0.06168  0.15822  1.0000
  H   H2326     1.0  0.68349  0.49396  0.30251  1.0000
  C   C1367     1.0  0.68370  0.42116  0.30332  1.0000
  H   H2327     1.0  0.67119  0.49443  0.26226  1.0000
  C   C1368     1.0  0.49234  0.00228  0.19169  1.0000
  H   H2328     1.0  0.68172  0.41902  0.27340  1.0000
  S   S385      1.0  0.49662  0.07042  0.19525  1.0000
  C   C1369     1.0  0.71665  0.46877  0.20035  1.0000
  C   C1370     1.0  0.71342  0.48072  0.21597  1.0000
  H   H2329     1.0  0.52338  0.09953  0.19347  1.0000
  H   H2330     1.0  0.71096  0.43367  0.23980  1.0000
  H   H2331     1.0  0.71464  0.44215  0.27221  1.0000
  H   H2332     1.0  0.54140  0.01693  0.28766  1.0000
  C   C1371     1.0  0.70738  0.43568  0.28025  1.0000
  C   C1372     1.0  0.72612  0.01522  0.26253  1.0000
  H   H2333     1.0  0.72096  0.02325  0.27479  1.0000
  H   H2334     1.0  0.52663  0.02921  0.15181  1.0000
  H   H2335     1.0  0.51505  0.06119  0.24507  1.0000
  C   C1373     1.0  0.53570  0.07901  0.17583  1.0000
  C   C1374     1.0  0.52557  0.08212  0.19349  1.0000
  C   C1375     1.0  0.72670  0.38894  0.29967  1.0000
  H   H2336     1.0  0.53353  0.01250  0.22962  1.0000
  H   H2337     1.0  0.50769  0.10422  0.21571  1.0000
  C   C1376     1.0  0.50446  0.01129  0.30145  1.0000
  H   H2338     1.0  0.70570  0.43022  0.21991  1.0000
  C   C1377     1.0  0.51526  0.07090  0.22884  1.0000
  H   H2339     1.0  0.53783  0.06271  0.17255  1.0000
  C   C1378     1.0  0.50365  0.07230  0.29245  1.0000
  H   H2340     1.0  0.71331  0.33664  0.31934  1.0000
  C   C1379     1.0  0.53109  0.04577  0.21338  1.0000
  H   H2341     1.0  0.51907  0.07891  0.18818  1.0000
  H   H2342     1.0  0.69476  0.46066  0.23416  1.0000
  H   H2343     1.0  0.50134  0.09334  0.24156  1.0000
  H   H2344     1.0  0.51029  0.06432  0.22255  1.0000
  C   C1380     1.0  0.50929  0.09388  0.23097  1.0000
  H   H2345     1.0  0.69328  0.45919  0.28874  1.0000
  H   H2346     1.0  0.53990  0.04307  0.20763  1.0000
  H   H2347     1.0  0.52770  0.06252  0.25751  1.0000
  C   C1381     1.0  0.51569  0.01121  0.20330  1.0000
  H   H2348     1.0  0.53112  0.09477  0.22181  1.0000
  H   H2349     1.0  0.54175  0.07470  0.21357  1.0000
  C   C1382     1.0  0.52886  0.02815  0.23325  1.0000
  H   H2350     1.0  0.54260  0.08251  0.17926  1.0000
  H   H2351     1.0  0.70401  0.41213  0.24483  1.0000
  C   C1383     1.0  0.67913  0.46082  0.26945  1.0000
  C   C1384     1.0  0.72590  0.45255  0.19985  1.0000
  H   H2352     1.0  0.53670  0.07888  0.25289  1.0000
  C   C1385     1.0  0.69355  0.44467  0.24371  1.0000
  H   H2353     1.0  0.53412  0.09037  0.16095  1.0000
  C   C1386     1.0  0.73199  0.44814  0.21497  1.0000
  N   N98       1.0  0.68975  0.44508  0.26686  1.0000
  C   C1387     1.0  0.68770  0.42338  0.27924  1.0000
  H   H2354     1.0  0.70035  0.46609  0.26241  1.0000
  H   H2355     1.0  0.73287  0.08210  0.16146  1.0000
  C   C1388     1.0  0.52253  0.01102  0.18355  1.0000
  H   H2356     1.0  0.71988  0.48856  0.31313  1.0000
  H   H2357     1.0  0.72222  0.47656  0.27929  1.0000
  C   C1389     1.0  0.67904  0.48411  0.25693  1.0000
  H   H2358     1.0  0.50247  0.02893  0.22203  1.0000
  H   H2359     1.0  0.54161  0.05267  0.24685  1.0000
  H   H2360     1.0  0.73089  0.01986  0.19134  1.0000
  H   H2361     1.0  0.68901  0.42595  0.31034  1.0000
  H   H2362     1.0  0.71202  0.47213  0.18850  1.0000
  H   H2363     1.0  0.51995  0.01959  0.29579  1.0000
  H   H2364     1.0  0.53133  0.02989  0.24688  1.0000
  C   C1390     1.0  0.73546  0.02199  0.25088  1.0000
  H   H2365     1.0  0.71687  0.48534  0.24353  1.0000
  H   H2366     1.0  0.73331  0.45652  0.24264  1.0000
  H   H2367     1.0  0.50003  0.00672  0.18938  1.0000
  H   H2368     1.0  0.68003  0.48560  0.23975  1.0000
  H   H2369     1.0  0.68364  0.40408  0.31087  1.0000
  C   C1391     1.0  0.72871  0.45993  0.23082  1.0000
  H   H2370     1.0  0.50193  0.02103  0.31367  1.0000
  S   S386      1.0  0.51709  0.07027  0.31758  1.0000
  C   C1392     1.0  0.67570  0.49243  0.31197  1.0000
  C   C1393     1.0  0.50503  0.06810  0.31319  1.0000
  H   H2371     1.0  0.72837  0.44346  0.18761  1.0000
  H   H2372     1.0  0.73131  0.05203  0.14659  1.0000
  H   H2373     1.0  0.73267  0.48484  0.29760  1.0000
  C   C1394     1.0  0.73674  0.08010  0.14513  1.0000
  H   H2374     1.0  0.72878  0.03955  0.20616  1.0000
  S   S387      1.0  0.73609  0.07662  0.29629  1.0000
  H   H2375     1.0  0.50475  0.99644  0.26631  1.0000
  C   C1395     1.0  0.53964  0.99863  0.31964  1.0000
  H   H2376     1.0  0.49304  0.07410  0.27261  1.0000
  C   C1396     1.0  0.72326  0.99857  0.25769  1.0000
  H   H2377     1.0  0.50852  0.99559  0.15658  1.0000
  S   S388      1.0  0.59447  0.16788  0.55146  1.0000
  Fe  Fe193     1.0  0.58268  0.11345  0.48048  1.0000
  S   S389      1.0  0.57423  0.14222  0.45997  1.0000
  S   S390      1.0  0.57834  0.10626  0.51616  1.0000
  Fe  Fe194     1.0  0.59922  0.09989  0.44331  1.0000
  S   S391      1.0  0.59219  0.12772  0.42028  1.0000
  S   S392      1.0  0.61443  0.07846  0.43061  1.0000
  Fe  Fe195     1.0  0.59085  0.14716  0.44375  1.0000
  S   S393      1.0  0.59696  0.17817  0.43297  1.0000
  Fe  Fe196     1.0  0.57642  0.11947  0.43857  1.0000
  S   S394      1.0  0.56433  0.11967  0.41972  1.0000
  S   S395      1.0  0.59900  0.11970  0.46533  1.0000
  S   S396      1.0  0.58371  0.09041  0.46051  1.0000
  Fe  Fe197     1.0  0.51131  0.03160  0.39380  1.0000
  S   S397      1.0  0.51625  0.06338  0.38077  1.0000
  H   H2378     1.0  0.61735  0.22242  0.52845  1.0000
  N   N99       1.0  0.73336  0.01819  0.41216  1.0000
  S   S398      1.0  0.53746  0.03746  0.35279  1.0000
  H   H2379     1.0  0.67896  0.33521  0.37252  1.0000
  Fe  Fe198     1.0  0.53282  0.04507  0.38520  1.0000
  S   S399      1.0  0.54541  0.04896  0.40092  1.0000
  Fe  Fe199     1.0  0.52057  0.05299  0.34968  1.0000
  H   H2380     1.0  0.68576  0.38369  0.65441  1.0000
  H   H2381     1.0  0.73575  0.04592  0.44619  1.0000
  S   S400      1.0  0.51453  0.02279  0.36276  1.0000
  H   H2382     1.0  0.58912  0.04452  0.40959  1.0000
  H   H2383     1.0  0.68153  0.39008  0.62476  1.0000
  S   S401      1.0  0.70996  0.08513  0.34094  1.0000
  S   S402      1.0  0.68269  0.14881  0.60701  1.0000
  S   S403      1.0  0.70805  0.12645  0.60344  1.0000
  Fe  Fe200     1.0  0.69445  0.12301  0.59221  1.0000
  S   S404      1.0  0.69429  0.12869  0.55791  1.0000
  Fe  Fe201     1.0  0.66071  0.06510  0.48176  1.0000
  S   S405      1.0  0.66774  0.07685  0.44773  1.0000
  S   S406      1.0  0.64397  0.06000  0.49499  1.0000
  Fe  Fe202     1.0  0.68050  0.06449  0.49594  1.0000
  S   S407      1.0  0.68934  0.07635  0.46301  1.0000
  S   S408      1.0  0.68730  0.05427  0.52512  1.0000
  Fe  Fe203     1.0  0.67368  0.09878  0.45945  1.0000
  S   S409      1.0  0.67150  0.13245  0.44055  1.0000
  Fe  Fe204     1.0  0.68268  0.05342  0.45409  1.0000
  S   S410      1.0  0.69233  0.03253  0.43134  1.0000
  S   S411      1.0  0.66536  0.08914  0.49320  1.0000
  S   S412      1.0  0.67514  0.03947  0.48736  1.0000
  H   H2384     1.0  0.61004  0.27601  0.56855  1.0000
  S   S413      1.0  0.66179  0.28777  0.58106  1.0000
  Fe  Fe205     1.0  0.63129  0.23315  0.47847  1.0000
  S   S414      1.0  0.63936  0.22424  0.50573  1.0000
  S   S415      1.0  0.61989  0.21053  0.48588  1.0000
  Fe  Fe206     1.0  0.64345  0.26969  0.45709  1.0000
  S   S416      1.0  0.65239  0.26261  0.48273  1.0000
  S   S417      1.0  0.64524  0.29884  0.43025  1.0000
  Fe  Fe207     1.0  0.65430  0.22838  0.48172  1.0000
  S   S418      1.0  0.66861  0.20309  0.48895  1.0000
  Fe  Fe208     1.0  0.63675  0.25906  0.50451  1.0000
  S   S419      1.0  0.63049  0.27128  0.53459  1.0000
  S   S420      1.0  0.64660  0.23525  0.45415  1.0000
  S   S421      1.0  0.62738  0.26824  0.47922  1.0000
  Fe  Fe209     1.0  0.69688  0.39410  0.35302  1.0000
  S   S422      1.0  0.69999  0.38547  0.38567  1.0000
  H   H2385     1.0  0.71411  0.42349  0.35006  1.0000
  Fe  Fe210     1.0  0.67533  0.42241  0.36512  1.0000
  S   S423      1.0  0.67619  0.41565  0.39913  1.0000
  H   H2386     1.0  0.61317  0.07653  0.57544  1.0000
  Fe  Fe211     1.0  0.69298  0.42028  0.38615  1.0000
  S   S424      1.0  0.69757  0.44557  0.39622  1.0000
  Fe  Fe212     1.0  0.68293  0.38144  0.39602  1.0000
  S   S425      1.0  0.67971  0.35205  0.42156  1.0000
  S   S426      1.0  0.69158  0.42914  0.35242  1.0000
  S   S427      1.0  0.68039  0.38781  0.36318  1.0000
  C   C1397     1.0  0.63397  0.10298  0.52425  1.0000
  H   H2387     1.0  0.71118  0.17417  0.65056  1.0000
  H   H2388     1.0  0.67743  0.24996  0.57810  1.0000
  H   H2389     1.0  0.54334  0.06592  0.59473  1.0000
  H   H2390     1.0  0.61782  0.19480  0.53988  1.0000
  C   C1398     1.0  0.65544  0.31274  0.42633  1.0000
  C   C1399     1.0  0.65494  0.33319  0.41293  1.0000
  C   C1400     1.0  0.66253  0.34522  0.41069  1.0000
  C   C1401     1.0  0.67067  0.33684  0.42187  1.0000
  C   C1402     1.0  0.67142  0.31608  0.43457  1.0000
  C   C1403     1.0  0.66387  0.30406  0.43673  1.0000
  H   H2391     1.0  0.64850  0.33995  0.40464  1.0000
  H   H2392     1.0  0.66188  0.36119  0.40080  1.0000
  H   H2393     1.0  0.67778  0.30935  0.44304  1.0000
  H   H2394     1.0  0.66454  0.28813  0.44660  1.0000
  C   C1404     1.0  0.65315  0.28275  0.56833  1.0000
  C   C1405     1.0  0.65692  0.27908  0.54781  1.0000
  C   C1406     1.0  0.65012  0.27501  0.53747  1.0000
  C   C1407     1.0  0.63945  0.27505  0.54745  1.0000
  C   C1408     1.0  0.63572  0.27858  0.56802  1.0000
  C   C1409     1.0  0.64257  0.28225  0.57849  1.0000
  H   H2395     1.0  0.66512  0.27934  0.53998  1.0000
  H   H2396     1.0  0.65312  0.27204  0.52174  1.0000
  H   H2397     1.0  0.62751  0.27851  0.57595  1.0000
  H   H2398     1.0  0.63958  0.28501  0.59434  1.0000
  H   H2399     1.0  0.68505  0.47818  0.35993  1.0000
  C   C1410     1.0  0.72415  0.45955  0.40128  1.0000
  C   C1411     1.0  0.71359  0.46063  0.40081  1.0000
  C   C1412     1.0  0.71057  0.44268  0.39913  1.0000
  C   C1413     1.0  0.71804  0.42329  0.39893  1.0000
  H   H2400     1.0  0.71017  0.37506  0.64485  1.0000
  H   H2401     1.0  0.71112  0.28767  0.36747  1.0000
  H   H2402     1.0  0.63891  0.04522  0.61184  1.0000
  H   H2403     1.0  0.55320  0.00003  0.40927  1.0000
  H   H2404     1.0  0.72098  0.37306  0.35319  1.0000
  C   C1414     1.0  0.67118  0.15158  0.45417  1.0000
  C   C1415     1.0  0.67332  0.14561  0.47442  1.0000
  C   C1416     1.0  0.67286  0.16144  0.48498  1.0000
  C   C1417     1.0  0.67011  0.18314  0.47537  1.0000
  C   C1418     1.0  0.66808  0.18898  0.45511  1.0000
  C   C1419     1.0  0.66863  0.17324  0.44451  1.0000
  H   H2405     1.0  0.67543  0.12886  0.48179  1.0000
  H   H2406     1.0  0.67452  0.15689  0.50060  1.0000
  H   H2407     1.0  0.66632  0.20566  0.44737  1.0000
  H   H2408     1.0  0.66711  0.17786  0.42876  1.0000
  C   C1420     1.0  0.69235  0.10786  0.54905  1.0000
  C   C1421     1.0  0.69410  0.08674  0.56063  1.0000
  C   C1422     1.0  0.69284  0.07029  0.55282  1.0000
  C   C1423     1.0  0.68948  0.07499  0.53380  1.0000
  C   C1424     1.0  0.68757  0.09614  0.52239  1.0000
  C   C1425     1.0  0.68914  0.11250  0.52987  1.0000
  H   H2409     1.0  0.69675  0.08302  0.57524  1.0000
  H   H2410     1.0  0.69451  0.05388  0.56149  1.0000
  H   H2411     1.0  0.68507  0.09982  0.50763  1.0000
  H   H2412     1.0  0.68794  0.12877  0.52068  1.0000
  C   C1426     1.0  0.70416  0.07072  0.36546  1.0000
  C   C1427     1.0  0.69791  0.08151  0.38137  1.0000
  C   C1428     1.0  0.69402  0.06989  0.40156  1.0000
  C   C1429     1.0  0.69617  0.04750  0.40572  1.0000
  C   C1430     1.0  0.70201  0.03680  0.38953  1.0000
  C   C1431     1.0  0.70613  0.04836  0.36955  1.0000
  H   H2413     1.0  0.69639  0.09881  0.37829  1.0000
  H   H2414     1.0  0.68953  0.07828  0.41398  1.0000
  H   H2415     1.0  0.70357  0.01951  0.39257  1.0000
  H   H2416     1.0  0.71086  0.03994  0.35734  1.0000
  H   H2417     1.0  0.62033  0.07872  0.35725  1.0000
  H   H2418     1.0  0.54524  0.09784  0.59230  1.0000
  C   C1432     1.0  0.57323  0.10953  0.62825  1.0000
  H   H2419     1.0  0.62951  0.11403  0.64098  1.0000
  H   H2420     1.0  0.66742  0.11657  0.60913  1.0000
  H   H2421     1.0  0.65605  0.11200  0.58792  1.0000
  H   H2422     1.0  0.65543  0.08412  0.57005  1.0000
  C   C1433     1.0  0.65914  0.11607  0.61609  1.0000
  C   C1434     1.0  0.68262  0.33194  0.35656  1.0000
  C   C1435     1.0  0.55890  0.09978  0.41528  1.0000
  C   C1436     1.0  0.55210  0.10598  0.40097  1.0000
  C   C1437     1.0  0.54777  0.09087  0.39661  1.0000
  C   C1438     1.0  0.55022  0.06916  0.40639  1.0000
  C   C1439     1.0  0.55706  0.06295  0.42066  1.0000
  C   C1440     1.0  0.56128  0.07810  0.42522  1.0000
  H   H2423     1.0  0.55013  0.12266  0.39321  1.0000
  H   H2424     1.0  0.54255  0.09606  0.38560  1.0000
  H   H2425     1.0  0.55899  0.04628  0.42849  1.0000
  H   H2426     1.0  0.56630  0.07303  0.43655  1.0000
  C   C1441     1.0  0.60431  0.18575  0.44696  1.0000
  C   C1442     1.0  0.60535  0.17472  0.46740  1.0000
  C   C1443     1.0  0.61032  0.18239  0.47883  1.0000
  C   C1444     1.0  0.61463  0.20075  0.46981  1.0000
  C   C1445     1.0  0.61396  0.21135  0.44906  1.0000
  C   C1446     1.0  0.60871  0.20401  0.43780  1.0000
  H   H2427     1.0  0.60195  0.16077  0.47470  1.0000
  H   H2428     1.0  0.61060  0.17438  0.49500  1.0000
  H   H2429     1.0  0.61718  0.22557  0.44194  1.0000
  H   H2430     1.0  0.60797  0.21267  0.42198  1.0000
  C   C1447     1.0  0.62281  0.07180  0.44844  1.0000
  C   C1448     1.0  0.61842  0.06997  0.47004  1.0000
  C   C1449     1.0  0.62506  0.06544  0.48424  1.0000
  C   C1450     1.0  0.63607  0.06357  0.47685  1.0000
  C   C1451     1.0  0.64048  0.06515  0.45526  1.0000
  C   C1452     1.0  0.63386  0.06905  0.44107  1.0000
  H   H2431     1.0  0.60990  0.07179  0.47586  1.0000
  H   H2432     1.0  0.62163  0.06383  0.50096  1.0000
  H   H2433     1.0  0.64899  0.06308  0.44950  1.0000
  H   H2434     1.0  0.63729  0.07026  0.42439  1.0000
  C   C1453     1.0  0.58967  0.15064  0.54244  1.0000
  C   C1454     1.0  0.58667  0.13207  0.55576  1.0000
  C   C1455     1.0  0.58321  0.11838  0.54771  1.0000
  C   C1456     1.0  0.58273  0.12324  0.52633  1.0000
  C   C1457     1.0  0.58576  0.14179  0.51310  1.0000
  C   C1458     1.0  0.58915  0.15546  0.52118  1.0000
  H   H2435     1.0  0.58700  0.12824  0.57225  1.0000
  H   H2436     1.0  0.58101  0.10398  0.55806  1.0000
  H   H2437     1.0  0.58536  0.14578  0.49666  1.0000
  H   H2438     1.0  0.59156  0.16965  0.51086  1.0000
  C   C1459     1.0  0.64570  0.31980  0.48677  1.0000
  C   C1460     1.0  0.65979  0.33712  0.48528  1.0000
  C   C1461     1.0  0.63463  0.32059  0.48341  1.0000
  C   C1462     1.0  0.66359  0.32104  0.50443  1.0000
  H   H2439     1.0  0.65167  0.31150  0.47483  1.0000
  H   H2440     1.0  0.64629  0.30881  0.50234  1.0000
  H   H2441     1.0  0.66236  0.35204  0.48377  1.0000
  H   H2442     1.0  0.66463  0.33117  0.47092  1.0000
  H   H2443     1.0  0.64804  0.34719  0.45247  1.0000
  H   H2444     1.0  0.63376  0.30394  0.48579  1.0000
  H   H2445     1.0  0.66337  0.30449  0.50447  1.0000
  H   H2446     1.0  0.67203  0.32105  0.50330  1.0000
  H   H2447     1.0  0.65896  0.32531  0.51964  1.0000
  N   N100      1.0  0.65086  0.17639  0.56081  1.0000
  C   C1463     1.0  0.64225  0.16664  0.57718  1.0000
  C   C1464     1.0  0.64775  0.20015  0.56003  1.0000
  C   C1465     1.0  0.66142  0.16647  0.56713  1.0000
  C   C1466     1.0  0.64096  0.16850  0.60010  1.0000
  C   C1467     1.0  0.65538  0.21381  0.54471  1.0000
  H   H2448     1.0  0.63437  0.17387  0.57288  1.0000
  H   H2449     1.0  0.64363  0.14928  0.57790  1.0000
  H   H2450     1.0  0.63975  0.20704  0.55613  1.0000
  H   H2451     1.0  0.64706  0.20351  0.57563  1.0000
  H   H2452     1.0  0.66211  0.17367  0.57964  1.0000
  H   H2453     1.0  0.64841  0.16144  0.60593  1.0000
  H   H2454     1.0  0.63788  0.18519  0.60216  1.0000
  H   H2455     1.0  0.63487  0.15952  0.61053  1.0000
  H   H2456     1.0  0.66302  0.20978  0.54965  1.0000
  H   H2457     1.0  0.65671  0.21259  0.52818  1.0000
  C   C1468     1.0  0.70562  0.31785  0.39949  1.0000
  C   C1469     1.0  0.68141  0.22980  0.64522  1.0000
  H   H2458     1.0  0.60100  0.28198  0.55165  1.0000
  H   H2459     1.0  0.59224  0.13469  0.36796  1.0000
  H   H2460     1.0  0.71689  0.03502  0.41385  1.0000
  H   H2461     1.0  0.49639  0.00113  0.38853  1.0000
  H   H2462     1.0  0.55632  0.02548  0.36805  1.0000
  H   H2463     1.0  0.58640  0.11857  0.35926  1.0000
  H   H2464     1.0  0.60990  0.23778  0.57789  1.0000
  S   S428      1.0  0.69039  0.09604  0.61936  1.0000
  C   C1470     1.0  0.55151  0.10199  0.57821  1.0000
  C   C1471     1.0  0.60718  0.24749  0.56336  1.0000
  H   H2465     1.0  0.56545  0.01645  0.38486  1.0000
  H   H2466     1.0  0.61002  0.25988  0.52105  1.0000
  H   H2467     1.0  0.71857  0.31632  0.36291  1.0000
  H   H2468     1.0  0.67797  0.34425  0.34572  1.0000
  H   H2469     1.0  0.57117  0.04473  0.35846  1.0000
  H   H2470     1.0  0.57661  0.09404  0.37661  1.0000
  H   H2471     1.0  0.72818  0.41616  0.34397  1.0000
  C   C1472     1.0  0.54184  0.08031  0.55263  1.0000
  N   N101      1.0  0.69223  0.41228  0.63902  1.0000
  C   C1473     1.0  0.69438  0.33367  0.34897  1.0000
  C   C1474     1.0  0.60333  0.27088  0.56601  1.0000
  C   C1475     1.0  0.60415  0.21543  0.55565  1.0000
  H   H2472     1.0  0.58929  0.26688  0.54391  1.0000
  C   C1476     1.0  0.73131  0.12620  0.62475  1.0000
  S   S429      1.0  0.52730  0.01395  0.40060  1.0000
  H   H2473     1.0  0.69589  0.34448  0.38219  1.0000
  H   H2474     1.0  0.55707  0.00443  0.34193  1.0000
  N   N102      1.0  0.59804  0.07847  0.38315  1.0000
  C   C1477     1.0  0.60883  0.06356  0.38334  1.0000
  C   C1478     1.0  0.59191  0.07687  0.40575  1.0000
  C   C1479     1.0  0.59985  0.10095  0.37428  1.0000
  H   H2475     1.0  0.66323  0.06000  0.63732  1.0000
  C   C1480     1.0  0.61686  0.06430  0.36188  1.0000
  C   C1481     1.0  0.59112  0.05401  0.41854  1.0000
  H   H2476     1.0  0.71754  0.30786  0.32845  1.0000
  C   C1482     1.0  0.72853  0.42202  0.40018  1.0000
  H   H2477     1.0  0.61274  0.06670  0.39446  1.0000
  H   H2478     1.0  0.60805  0.04658  0.38923  1.0000
  H   H2479     1.0  0.58369  0.08669  0.40692  1.0000
  H   H2480     1.0  0.59564  0.08361  0.41456  1.0000
  H   H2481     1.0  0.60430  0.10492  0.38397  1.0000
  H   H2482     1.0  0.60491  0.10251  0.35806  1.0000
  H   H2483     1.0  0.72421  0.03216  0.38798  1.0000
  C   C1483     1.0  0.72481  0.03528  0.40297  1.0000
  H   H2484     1.0  0.57013  0.03510  0.33722  1.0000
  H   H2485     1.0  0.61332  0.06354  0.34915  1.0000
  H   H2486     1.0  0.67678  0.47590  0.39902  1.0000
  H   H2487     1.0  0.58110  0.06516  0.55322  1.0000
  H   H2488     1.0  0.59867  0.04542  0.42369  1.0000
  H   H2489     1.0  0.58483  0.05497  0.43316  1.0000
  C   C1484     1.0  0.57218  0.02985  0.35298  1.0000
  C   C1485     1.0  0.73262  0.16490  0.63687  1.0000
  Fe  Fe213     1.0  0.72487  0.06446  0.32594  1.0000
  H   H2490     1.0  0.72645  0.47360  0.40216  1.0000
  C   C1486     1.0  0.68080  0.01402  0.59880  1.0000
  H   H2491     1.0  0.72950  0.13438  0.60901  1.0000
  C   C1487     1.0  0.58152  0.22570  0.57775  1.0000
  H   H2492     1.0  0.59343  0.22788  0.59262  1.0000
  C   C1488     1.0  0.57761  0.05359  0.54963  1.0000
  H   H2493     1.0  0.59901  0.27233  0.50952  1.0000
  H   H2494     1.0  0.69665  0.28361  0.39863  1.0000
  H   H2495     1.0  0.62364  0.05027  0.36339  1.0000
  H   H2496     1.0  0.68062  0.22518  0.59598  1.0000
  H   H2497     1.0  0.72280  0.44685  0.35860  1.0000
  C   C1489     1.0  0.66263  0.18589  0.63517  1.0000
  H   H2498     1.0  0.68669  0.29320  0.38303  1.0000
  H   H2499     1.0  0.58065  0.02147  0.35166  1.0000
  H   H2500     1.0  0.66448  0.49232  0.39195  1.0000
  C   C1490     1.0  0.56835  0.04691  0.56770  1.0000
  C   C1491     1.0  0.73164  0.44024  0.40099  1.0000
  H   H2501     1.0  0.67311  0.49521  0.35375  1.0000
  C   C1492     1.0  0.62563  0.24339  0.62375  1.0000
  C   C1493     1.0  0.72186  0.45025  0.34208  1.0000
  H   H2502     1.0  0.69082  0.43047  0.60764  1.0000
  C   C1494     1.0  0.68917  0.21808  0.63154  1.0000
  C   C1495     1.0  0.56455  0.01631  0.36898  1.0000
  C   C1496     1.0  0.73626  0.37852  0.33418  1.0000
  H   H2503     1.0  0.57144  0.04128  0.58251  1.0000
  H   H2504     1.0  0.64740  0.08136  0.53636  1.0000
  C   C1497     1.0  0.66393  0.47023  0.33688  1.0000
  H   H2505     1.0  0.56695  0.03249  0.56452  1.0000
  H   H2506     1.0  0.66977  0.41222  0.64823  1.0000
  C   C1498     1.0  0.48772  0.01127  0.41743  1.0000
  C   C1499     1.0  0.73066  0.99681  0.41491  1.0000
  H   H2507     1.0  0.55513  0.05507  0.54438  1.0000
  C   C1500     1.0  0.49672  0.06255  0.33004  1.0000
  H   H2508     1.0  0.72470  0.06406  0.41318  1.0000
  Fe  Fe214     1.0  0.64744  0.30894  0.65297  1.0000
  S   S430      1.0  0.66152  0.44540  0.35270  1.0000
  C   C1501     1.0  0.69786  0.32672  0.38439  1.0000
  H   H2509     1.0  0.68559  0.01982  0.60621  1.0000
  C   C1502     1.0  0.71255  0.32630  0.35362  1.0000
  N   N103      1.0  0.57113  0.22031  0.47466  1.0000
  C   C1503     1.0  0.58189  0.21174  0.48034  1.0000
  C   C1504     1.0  0.57157  0.21270  0.45524  1.0000
  C   C1505     1.0  0.56248  0.21227  0.49229  1.0000
  C   C1506     1.0  0.56868  0.24439  0.47072  1.0000
  C   C1507     1.0  0.58290  0.21604  0.50098  1.0000
  C   C1508     1.0  0.56426  0.18775  0.50006  1.0000
  H   H2510     1.0  0.58438  0.19414  0.48149  1.0000
  H   H2511     1.0  0.58813  0.21852  0.46759  1.0000
  H   H2512     1.0  0.56346  0.21348  0.45330  1.0000
  H   H2513     1.0  0.57549  0.19540  0.45679  1.0000
  H   H2514     1.0  0.56118  0.21932  0.50621  1.0000
  H   H2515     1.0  0.55471  0.21763  0.48738  1.0000
  H   H2516     1.0  0.56817  0.24969  0.48529  1.0000
  H   H2517     1.0  0.57530  0.25121  0.45917  1.0000
  H   H2518     1.0  0.57746  0.20872  0.51507  1.0000
  H   H2519     1.0  0.59114  0.20857  0.50334  1.0000
  H   H2520     1.0  0.58177  0.23334  0.50027  1.0000
  H   H2521     1.0  0.57096  0.18138  0.50823  1.0000
  H   H2522     1.0  0.56560  0.17940  0.48713  1.0000
  H   H2523     1.0  0.55706  0.18364  0.51181  1.0000
  H   H2524     1.0  0.65182  0.23087  0.54516  1.0000
  H   H2525     1.0  0.66807  0.19655  0.62522  1.0000
  S   S431      1.0  0.63914  0.30788  0.62821  1.0000
  H   H2526     1.0  0.49376  0.99785  0.64461  1.0000
  H   H2527     1.0  0.69730  0.48958  0.37136  1.0000
  H   H2528     1.0  0.64774  0.48677  0.34656  1.0000
  H   H2529     1.0  0.56479  0.07786  0.58776  1.0000
  S   S432      1.0  0.49619  0.02722  0.41795  1.0000
  H   H2530     1.0  0.73375  0.18763  0.60656  1.0000
  H   H2531     1.0  0.72123  0.19340  0.62428  1.0000
  H   H2532     1.0  0.54422  0.03673  0.57457  1.0000
  H   H2533     1.0  0.70781  0.47554  0.40137  1.0000
  C   C1509     1.0  0.69082  0.19576  0.63598  1.0000
  C   C1510     1.0  0.68259  0.42719  0.64908  1.0000
  H   H2534     1.0  0.66473  0.01547  0.59810  1.0000
  C   C1511     1.0  0.59257  0.07231  0.36956  1.0000
  Fe  Fe215     1.0  0.67958  0.12230  0.63499  1.0000
  C   C1512     1.0  0.70203  0.41946  0.63889  1.0000
  H   H2535     1.0  0.71768  0.48268  0.35981  1.0000
  N   N104      1.0  0.55813  0.06372  0.57051  1.0000
  H   H2536     1.0  0.54810  0.10980  0.56406  1.0000
  S   S433      1.0  0.61484  0.20056  0.60678  1.0000
  H   H2537     1.0  0.71209  0.34319  0.35402  1.0000
  C   C1513     1.0  0.48967  0.99965  0.40170  1.0000
  H   H2538     1.0  0.49761  0.05963  0.34611  1.0000
  C   C1514     1.0  0.72428  0.49000  0.34935  1.0000
  H   H2539     1.0  0.53745  0.06937  0.55050  1.0000
  C   C1515     1.0  0.69299  0.38979  0.65220  1.0000
  C   C1516     1.0  0.73353  0.47397  0.33875  1.0000
  H   H2540     1.0  0.73473  0.17504  0.64515  1.0000
  Fe  Fe216     1.0  0.65470  0.28698  0.61571  1.0000
  H   H2541     1.0  0.67477  0.15227  0.54408  1.0000
  C   C1517     1.0  0.66735  0.05341  0.57395  1.0000
  N   N105      1.0  0.66546  0.04776  0.59770  1.0000
  H   H2542     1.0  0.69976  0.21664  0.58292  1.0000
  H   H2543     1.0  0.64278  0.17974  0.53597  1.0000
  H   H2544     1.0  0.66900  0.08703  0.56565  1.0000
  C   C1518     1.0  0.60958  0.21982  0.64117  1.0000
  H   H2545     1.0  0.64253  0.06214  0.58705  1.0000
  H   H2546     1.0  0.64730  0.10862  0.53353  1.0000
  H   H2547     1.0  0.69558  0.45460  0.63407  1.0000
  H   H2548     1.0  0.68039  0.05583  0.59614  1.0000
  H   H2549     1.0  0.67663  0.06291  0.63127  1.0000
  H   H2550     1.0  0.66917  0.07672  0.59984  1.0000
  C   C1519     1.0  0.59024  0.23666  0.57821  1.0000
  H   H2551     1.0  0.64709  0.14024  0.54770  1.0000
  H   H2552     1.0  0.69229  0.25496  0.58374  1.0000
  C   C1520     1.0  0.66389  0.07734  0.56385  1.0000
  H   H2553     1.0  0.64972  0.38533  0.46805  1.0000
  H   H2554     1.0  0.62639  0.12366  0.55819  1.0000
  H   H2555     1.0  0.54092  0.09467  0.53957  1.0000
  H   H2556     1.0  0.69619  0.26877  0.38073  1.0000
  C   C1521     1.0  0.55072  0.05422  0.59002  1.0000
  H   H2557     1.0  0.71819  0.99807  0.44448  1.0000
  S   S434      1.0  0.66329  0.29021  0.63878  1.0000
  H   H2558     1.0  0.67593  0.04873  0.56694  1.0000
  N   N106      1.0  0.68821  0.22472  0.56328  1.0000
  C   C1522     1.0  0.68942  0.20108  0.56534  1.0000
  C   C1523     1.0  0.68722  0.23798  0.54146  1.0000
  C   C1524     1.0  0.69906  0.19049  0.55014  1.0000
  C   C1525     1.0  0.68042  0.23223  0.52948  1.0000
  H   H2559     1.0  0.70527  0.22313  0.55554  1.0000
  H   H2560     1.0  0.68226  0.19745  0.56325  1.0000
  H   H2561     1.0  0.69009  0.19222  0.58170  1.0000
  H   H2562     1.0  0.68391  0.25516  0.54208  1.0000
  H   H2563     1.0  0.69520  0.23813  0.53065  1.0000
  H   H2564     1.0  0.69822  0.17413  0.55075  1.0000
  H   H2565     1.0  0.69965  0.19948  0.53353  1.0000
  H   H2566     1.0  0.70661  0.18845  0.55504  1.0000
  H   H2567     1.0  0.66200  0.23495  0.59343  1.0000
  H   H2568     1.0  0.66815  0.21030  0.58540  1.0000
  H   H2569     1.0  0.67212  0.24164  0.53206  1.0000
  H   H2570     1.0  0.68048  0.21504  0.53253  1.0000
  H   H2571     1.0  0.68385  0.23631  0.51225  1.0000
  N   N107      1.0  0.63993  0.14068  0.42799  1.0000
  C   C1526     1.0  0.64226  0.14922  0.44444  1.0000
  C   C1527     1.0  0.64117  0.15737  0.40770  1.0000
  C   C1528     1.0  0.64808  0.12020  0.42540  1.0000
  C   C1529     1.0  0.62881  0.13651  0.43585  1.0000
  C   C1530     1.0  0.64344  0.13318  0.46549  1.0000
  C   C1531     1.0  0.63311  0.17898  0.40800  1.0000
  C   C1532     1.0  0.64958  0.11199  0.40531  1.0000
  C   C1533     1.0  0.62368  0.13210  0.42004  1.0000
  H   H2572     1.0  0.64975  0.15536  0.43824  1.0000
  H   H2573     1.0  0.63589  0.16315  0.44862  1.0000
  H   H2574     1.0  0.64058  0.15177  0.39415  1.0000
  H   H2575     1.0  0.64934  0.16065  0.40324  1.0000
  H   H2576     1.0  0.65612  0.12206  0.42532  1.0000
  H   H2577     1.0  0.64626  0.10687  0.43906  1.0000
  H   H2578     1.0  0.62859  0.12241  0.44933  1.0000
  H   H2579     1.0  0.62316  0.14984  0.44275  1.0000
  H   H2580     1.0  0.63641  0.12598  0.47277  1.0000
  H   H2581     1.0  0.65070  0.12028  0.46348  1.0000
  H   H2582     1.0  0.64435  0.14175  0.47667  1.0000
  H   H2583     1.0  0.63447  0.18957  0.39203  1.0000
  H   H2584     1.0  0.62478  0.17702  0.41182  1.0000
  H   H2585     1.0  0.63414  0.18751  0.41906  1.0000
  H   H2586     1.0  0.65490  0.09578  0.40691  1.0000
  H   H2587     1.0  0.65365  0.12222  0.39114  1.0000
  H   H2588     1.0  0.64208  0.11033  0.40274  1.0000
  H   H2589     1.0  0.62493  0.11464  0.42135  1.0000
  H   H2590     1.0  0.62638  0.13983  0.40342  1.0000
  H   H2591     1.0  0.61495  0.13870  0.42377  1.0000
  H   H2592     1.0  0.73349  0.06159  0.38750  1.0000
  C   C1534     1.0  0.55382  0.06959  0.55074  1.0000
  S   S435      1.0  0.55182  0.07371  0.63385  1.0000
  H   H2593     1.0  0.57735  0.07493  0.36208  1.0000
  C   C1535     1.0  0.61880  0.24615  0.64312  1.0000
  H   H2594     1.0  0.72540  0.02597  0.44257  1.0000
  H   H2595     1.0  0.69452  0.35094  0.34590  1.0000
  H   H2596     1.0  0.63856  0.09506  0.55569  1.0000
  H   H2597     1.0  0.69990  0.40593  0.60773  1.0000
  H   H2598     1.0  0.66752  0.17242  0.64460  1.0000
  H   H2599     1.0  0.55467  0.11432  0.58140  1.0000
  H   H2600     1.0  0.67591  0.41697  0.61208  1.0000
  H   H2601     1.0  0.55393  0.01993  0.58970  1.0000
  C   C1536     1.0  0.64203  0.09700  0.53862  1.0000
  H   H2602     1.0  0.70156  0.35676  0.65434  1.0000
  C   C1537     1.0  0.57388  0.10737  0.64910  1.0000
  H   H2603     1.0  0.66991  0.46692  0.38512  1.0000
  H   H2604     1.0  0.71184  0.32739  0.39506  1.0000
  C   C1538     1.0  0.69512  0.28528  0.38286  1.0000
  C   C1539     1.0  0.56034  0.08635  0.64014  1.0000
  C   C1540     1.0  0.67136  0.05418  0.62840  1.0000
  C   C1541     1.0  0.62428  0.22931  0.61296  1.0000
  H   H2605     1.0  0.62940  0.15809  0.54240  1.0000
  H   H2606     1.0  0.57682  0.23529  0.56582  1.0000
  H   H2607     1.0  0.66498  0.07905  0.54658  1.0000
  C   C1542     1.0  0.61795  0.12735  0.51366  1.0000
  C   C1543     1.0  0.61640  0.11401  0.49984  1.0000
  H   H2608     1.0  0.61007  0.13758  0.51897  1.0000
  H   H2609     1.0  0.62290  0.13853  0.50268  1.0000
  H   H2610     1.0  0.60762  0.10874  0.55082  1.0000
  H   H2611     1.0  0.61540  0.08840  0.53704  1.0000
  H   H2612     1.0  0.63357  0.08793  0.52070  1.0000
  H   H2613     1.0  0.63775  0.11248  0.50910  1.0000
  H   H2614     1.0  0.62378  0.10230  0.49510  1.0000
  H   H2615     1.0  0.60966  0.10588  0.50765  1.0000
  H   H2616     1.0  0.61441  0.12495  0.48512  1.0000
  C   C1544     1.0  0.69203  0.41351  0.61649  1.0000
  C   C1545     1.0  0.65483  0.11824  0.63697  1.0000
  H   H2617     1.0  0.69702  0.32941  0.33323  1.0000
  H   H2618     1.0  0.58569  0.22476  0.43482  1.0000
  H   H2619     1.0  0.71574  0.40931  0.39786  1.0000
  H   H2620     1.0  0.64133  0.33663  0.51955  1.0000
  H   H2621     1.0  0.63373  0.32866  0.46706  1.0000
  H   H2622     1.0  0.65979  0.37002  0.45055  1.0000
  Fe  Fe217     1.0  0.59896  0.15554  0.58318  1.0000
  N   N108      1.0  0.73056  0.46088  0.32710  1.0000
  H   H2623     1.0  0.51040  0.00800  0.64405  1.0000
  C   C1546     1.0  0.69811  0.22759  0.56789  1.0000
  H   H2624     1.0  0.70117  0.31932  0.41576  1.0000
  S   S436      1.0  0.59032  0.17081  0.61065  1.0000
  H   H2625     1.0  0.66188  0.14909  0.57428  1.0000
  H   H2626     1.0  0.61457  0.24704  0.55092  1.0000
  H   H2627     1.0  0.69370  0.22640  0.61732  1.0000
  N   N109      1.0  0.62288  0.11501  0.53228  1.0000
  C   C1547     1.0  0.61592  0.09976  0.54594  1.0000
  N   N110      1.0  0.64809  0.34105  0.48568  1.0000
  Fe  Fe218     1.0  0.69593  0.15004  0.62050  1.0000
  S   S437      1.0  0.69980  0.18158  0.61769  1.0000
  H   H2628     1.0  0.70254  0.29378  0.34991  1.0000
  C   C1548     1.0  0.67187  0.05908  0.60448  1.0000
  H   H2629     1.0  0.55551  0.24709  0.45517  1.0000
  C   C1549     1.0  0.57754  0.22454  0.43417  1.0000
  C   C1550     1.0  0.55806  0.25598  0.46385  1.0000
  H   H2630     1.0  0.55156  0.25896  0.47778  1.0000
  S   S438      1.0  0.60208  0.12160  0.60142  1.0000
  H   H2631     1.0  0.56596  0.10129  0.60769  1.0000
  H   H2632     1.0  0.71578  0.14479  0.63518  1.0000
  H   H2633     1.0  0.71386  0.46103  0.34182  1.0000
  C   C1551     1.0  0.72592  0.05865  0.39838  1.0000
  H   H2634     1.0  0.68049  0.44237  0.63750  1.0000
  H   H2635     1.0  0.70940  0.40947  0.63109  1.0000
  C   C1552     1.0  0.65074  0.17244  0.53989  1.0000
  C   C1553     1.0  0.64294  0.36962  0.50869  1.0000
  S   S439      1.0  0.61455  0.16021  0.58460  1.0000
  C   C1554     1.0  0.68336  0.40451  0.61288  1.0000
  C   C1555     1.0  0.73365  0.02095  0.43345  1.0000
  C   C1556     1.0  0.64563  0.35606  0.46545  1.0000
  H   H2636     1.0  0.66103  0.13956  0.54318  1.0000
  H   H2637     1.0  0.67795  0.16952  0.55570  1.0000
  H   H2638     1.0  0.66348  0.04415  0.56796  1.0000
  H   H2639     1.0  0.68160  0.31626  0.35564  1.0000
  S   S440      1.0  0.60939  0.14057  0.63497  1.0000
  H   H2640     1.0  0.57587  0.22432  0.59337  1.0000
  H   H2641     1.0  0.67422  0.03695  0.63490  1.0000
  C   C1557     1.0  0.65110  0.37530  0.45657  1.0000
  H   H2642     1.0  0.62802  0.32802  0.49499  1.0000
  C   C1558     1.0  0.67156  0.16766  0.54928  1.0000
  H   H2643     1.0  0.65627  0.18048  0.52663  1.0000
  H   H2644     1.0  0.68392  0.01688  0.58147  1.0000
  H   H2645     1.0  0.68625  0.39917  0.59767  1.0000
  N   N111      1.0  0.70182  0.32045  0.36328  1.0000
  C   C1559     1.0  0.65272  0.11336  0.60413  1.0000
  H   H2646     1.0  0.67074  0.18074  0.53524  1.0000
  H   H2647     1.0  0.63179  0.25249  0.61687  1.0000
  C   C1560     1.0  0.66808  0.22766  0.58094  1.0000
  H   H2648     1.0  0.57310  0.24115  0.42923  1.0000
  H   H2649     1.0  0.61433  0.13818  0.55137  1.0000
  C   C1561     1.0  0.65353  0.14867  0.53830  1.0000
  S   S441      1.0  0.63399  0.10968  0.59763  1.0000
  H   H2650     1.0  0.59681  0.27271  0.58009  1.0000
  C   C1562     1.0  0.62804  0.14988  0.53146  1.0000
  C   C1563     1.0  0.61946  0.08545  0.56605  1.0000
  C   C1564     1.0  0.62270  0.13109  0.54440  1.0000
  H   H2651     1.0  0.59510  0.08009  0.35267  1.0000
  H   H2652     1.0  0.57837  0.21601  0.42157  1.0000
  H   H2653     1.0  0.55898  0.27157  0.45288  1.0000
  H   H2654     1.0  0.64787  0.38570  0.44278  1.0000
  H   H2655     1.0  0.65456  0.14795  0.52158  1.0000
  H   H2656     1.0  0.67991  0.24711  0.64140  1.0000
  H   H2657     1.0  0.62275  0.16207  0.52177  1.0000
  H   H2658     1.0  0.62941  0.22785  0.59769  1.0000
  H   H2659     1.0  0.65135  0.37094  0.50433  1.0000
  H   H2660     1.0  0.73422  0.40692  0.40042  1.0000
  C   C1565     1.0  0.64586  0.04844  0.59883  1.0000
  H   H2661     1.0  0.72423  0.17169  0.61085  1.0000
  H   H2662     1.0  0.70260  0.37171  0.62774  1.0000
  C   C1566     1.0  0.61628  0.21741  0.62162  1.0000
  C   C1567     1.0  0.64109  0.34927  0.50478  1.0000
  H   H2663     1.0  0.63690  0.36257  0.46718  1.0000
  Fe  Fe219     1.0  0.61697  0.12793  0.60559  1.0000
  H   H2664     1.0  0.62128  0.21059  0.55349  1.0000
  C   C1568     1.0  0.64196  0.11289  0.61295  1.0000
  H   H2665     1.0  0.63580  0.14447  0.52110  1.0000
  H   H2666     1.0  0.65168  0.07232  0.60563  1.0000
  C   C1569     1.0  0.71746  0.32382  0.33065  1.0000
  H   H2667     1.0  0.65227  0.04816  0.62496  1.0000
  C   C1570     1.0  0.56647  0.09917  0.62383  1.0000
  H   H2668     1.0  0.64684  0.16228  0.64735  1.0000
  H   H2669     1.0  0.63258  0.35313  0.50387  1.0000
  H   H2670     1.0  0.64052  0.36921  0.52591  1.0000
  H   H2671     1.0  0.64940  0.21268  0.63824  1.0000
  H   H2672     1.0  0.58926  0.24358  0.53672  1.0000
  H   H2673     1.0  0.63807  0.38425  0.50046  1.0000
  C   C1571     1.0  0.56078  0.08283  0.57419  1.0000
  C   C1572     1.0  0.63770  0.11496  0.63384  1.0000
  C   C1573     1.0  0.59463  0.25164  0.54027  1.0000
  Fe  Fe220     1.0  0.59409  0.13675  0.62937  1.0000
  C   C1574     1.0  0.67887  0.23235  0.57998  1.0000
  C   C1575     1.0  0.66876  0.02378  0.60480  1.0000
  C   C1576     1.0  0.69799  0.25041  0.56944  1.0000
  H   H2674     1.0  0.57098  0.00309  0.33245  1.0000
  H   H2675     1.0  0.70600  0.25084  0.57092  1.0000
  H   H2676     1.0  0.66531  0.23523  0.56616  1.0000
  H   H2677     1.0  0.69621  0.26261  0.55522  1.0000
  Fe  Fe221     1.0  0.60639  0.17318  0.61363  1.0000
  H   H2678     1.0  0.64908  0.03397  0.59208  1.0000
  C   C1577     1.0  0.54732  0.03428  0.58885  1.0000
  C   C1578     1.0  0.61583  0.21088  0.54360  1.0000
  H   H2679     1.0  0.58476  0.20920  0.57506  1.0000
  C   C1579     1.0  0.65385  0.05468  0.60760  1.0000
  H   H2680     1.0  0.69028  0.32176  0.39306  1.0000
  H   H2681     1.0  0.49080  0.00976  0.34240  1.0000
  H   H2682     1.0  0.59947  0.21036  0.54728  1.0000
  H   H2683     1.0  0.55838  0.08048  0.53801  1.0000
  H   H2684     1.0  0.62681  0.07326  0.56212  1.0000
  H   H2685     1.0  0.70947  0.30075  0.39986  1.0000
  H   H2686     1.0  0.68044  0.45850  0.32383  1.0000
  H   H2687     1.0  0.58412  0.03925  0.54774  1.0000
  S   S442      1.0  0.65040  0.25615  0.63506  1.0000
  N   N112      1.0  0.59922  0.23798  0.55888  1.0000
  C   C1580     1.0  0.60260  0.25702  0.51921  1.0000
  Fe  Fe222     1.0  0.53091  0.00791  0.36809  1.0000
  H   H2688     1.0  0.58600  0.25284  0.58105  1.0000
  H   H2689     1.0  0.60461  0.24424  0.51017  1.0000
  C   C1581     1.0  0.72553  0.37769  0.33738  1.0000
  H   H2690     1.0  0.60394  0.20383  0.57113  1.0000
  H   H2691     1.0  0.55451  0.04946  0.60387  1.0000
  H   H2692     1.0  0.57782  0.11947  0.61554  1.0000
  C   C1582     1.0  0.58026  0.07736  0.37496  1.0000
  C   C1583     1.0  0.72132  0.42848  0.33919  1.0000
  H   H2693     1.0  0.69621  0.49104  0.33006  1.0000
  H   H2694     1.0  0.56647  0.08969  0.56025  1.0000
  H   H2695     1.0  0.71948  0.06910  0.39040  1.0000
  C   C1584     1.0  0.70305  0.29677  0.36501  1.0000
  C   C1585     1.0  0.58989  0.11900  0.37221  1.0000
  H   H2696     1.0  0.53775  0.08575  0.56744  1.0000
  H   H2697     1.0  0.57522  0.06023  0.53424  1.0000
  H   H2698     1.0  0.57711  0.06637  0.38957  1.0000
  H   H2699     1.0  0.54083  0.03060  0.60279  1.0000
  Fe  Fe223     1.0  0.70295  0.10192  0.63236  1.0000
  H   H2700     1.0  0.58377  0.11889  0.38707  1.0000
  H   H2701     1.0  0.59503  0.05479  0.37001  1.0000
  H   H2702     1.0  0.62051  0.09468  0.57641  1.0000
  C   C1586     1.0  0.70253  0.44288  0.62756  1.0000
  Fe  Fe224     1.0  0.63529  0.27675  0.64889  1.0000
  C   C1587     1.0  0.65556  0.48827  0.33696  1.0000
  H   H2703     1.0  0.65984  0.17983  0.62436  1.0000
  H   H2704     1.0  0.70340  0.44549  0.61028  1.0000
  H   H2705     1.0  0.70968  0.44652  0.63001  1.0000
  C   C1588     1.0  0.72275  0.13590  0.64234  1.0000
  C   C1589     1.0  0.70244  0.37265  0.64396  1.0000
  H   H2706     1.0  0.66615  0.01862  0.62222  1.0000
  N   N113      1.0  0.72585  0.15022  0.65248  1.0000
  C   C1590     1.0  0.64104  0.17686  0.65149  1.0000
  H   H2707     1.0  0.68213  0.99637  0.60468  1.0000
  C   C1591     1.0  0.64411  0.11767  0.64581  1.0000
  H   H2708     1.0  0.72585  0.32571  0.32643  1.0000
  H   H2709     1.0  0.73088  0.10924  0.62686  1.0000
  C   C1592     1.0  0.72756  0.18014  0.61872  1.0000
  H   H2710     1.0  0.71315  0.00286  0.42093  1.0000
  S   S443      1.0  0.66262  0.12212  0.65214  1.0000
  C   C1593     1.0  0.67207  0.48134  0.38665  1.0000
  S   S444      1.0  0.70718  0.38352  0.32367  1.0000
  H   H2711     1.0  0.60335  0.21086  0.64795  1.0000
  H   H2712     1.0  0.64002  0.18819  0.63621  1.0000
  C   C1594     1.0  0.67839  0.49128  0.36500  1.0000
  H   H2713     1.0  0.72100  0.42860  0.32297  1.0000
  S   S445      1.0  0.71584  0.07628  0.64599  1.0000
  C   C1595     1.0  0.65336  0.19887  0.64916  1.0000
  C   C1596     1.0  0.67401  0.47234  0.32429  1.0000
  C   C1597     1.0  0.61080  0.23426  0.65179  1.0000
  H   H2714     1.0  0.62856  0.16224  0.65056  1.0000
  S   S446      1.0  0.69173  0.12601  0.65028  1.0000
  H   H2715     1.0  0.53723  0.01267  0.32623  1.0000
  C   C1598     1.0  0.68515  0.18505  0.65473  1.0000
  H   H2716     1.0  0.73707  0.00528  0.44301  1.0000
  H   H2717     1.0  0.72000  0.12239  0.65453  1.0000
  H   H2718     1.0  0.71810  0.42135  0.89579  1.0000
  C   C1599     1.0  0.49695  0.04416  0.78139  1.0000
  H   H2719     1.0  0.72620  0.44104  0.72141  1.0000
  H   H2720     1.0  0.71343  0.48106  0.88324  1.0000
  S   S447      1.0  0.50679  0.06621  0.70983  1.0000
  C   C1600     1.0  0.56776  0.09457  0.66543  1.0000
  H   H2721     1.0  0.70374  0.09722  0.68055  1.0000
  H   H2722     1.0  0.63575  0.16600  0.70412  1.0000
  C   C1601     1.0  0.71489  0.09423  0.69951  1.0000
  H   H2723     1.0  0.51761  0.03409  0.74005  1.0000
  C   C1602     1.0  0.73161  0.13731  0.66980  1.0000
  H   H2724     1.0  0.71463  0.44129  0.75503  1.0000
  H   H2725     1.0  0.68412  0.43628  0.81409  1.0000
  H   H2726     1.0  0.55616  0.02570  0.77706  1.0000
  C   C1603     1.0  0.53149  0.05068  0.76628  1.0000
  C   C1604     1.0  0.66664  0.33608  0.66829  1.0000
  H   H2727     1.0  0.69725  0.46984  0.87079  1.0000
  H   H2728     1.0  0.70434  0.05141  0.80168  1.0000
  S   S448      1.0  0.53822  0.05346  0.69343  1.0000
  H   H2729     1.0  0.72464  0.03816  0.82301  1.0000
  C   C1605     1.0  0.54807  0.02607  0.77528  1.0000
  S   S449      1.0  0.52704  0.01209  0.70369  1.0000
  H   H2730     1.0  0.49314  0.02868  0.67319  1.0000
  H   H2731     1.0  0.68860  0.43924  0.90614  1.0000
  H   H2732     1.0  0.71381  0.46233  0.83085  1.0000
  C   C1606     1.0  0.67430  0.34173  0.67534  1.0000
  C   C1607     1.0  0.63017  0.17052  0.66122  1.0000
  H   H2733     1.0  0.64076  0.11917  0.66201  1.0000
  S   S450      1.0  0.71699  0.38725  0.83771  1.0000
  C   C1608     1.0  0.72944  0.46850  0.67262  1.0000
  H   H2734     1.0  0.52749  0.08613  0.75678  1.0000
  H   H2735     1.0  0.64756  0.15204  0.71261  1.0000
  H   H2736     1.0  0.67724  0.45676  0.89635  1.0000
  C   C1609     1.0  0.50693  0.03490  0.77048  1.0000
  H   H2737     1.0  0.51221  0.02241  0.77907  1.0000
  H   H2738     1.0  0.72004  0.44750  0.78606  1.0000
  C   C1610     1.0  0.72087  0.48497  0.66750  1.0000
  C   C1611     1.0  0.64386  0.15692  0.69868  1.0000
  H   H2739     1.0  0.54497  0.08079  0.75616  1.0000
  C   C1612     1.0  0.65080  0.16987  0.68013  1.0000
  S   S451      1.0  0.69735  0.45350  0.67764  1.0000
  H   H2740     1.0  0.53352  0.06813  0.79650  1.0000
  Fe  Fe225     1.0  0.69302  0.42551  0.70342  1.0000
  S   S452      1.0  0.67622  0.42156  0.71011  1.0000
  H   H2741     1.0  0.73180  0.48212  0.74321  1.0000
  Fe  Fe226     1.0  0.69838  0.38856  0.73978  1.0000
  S   S453      1.0  0.68191  0.38195  0.74968  1.0000
  S   S454      1.0  0.71248  0.36916  0.75363  1.0000
  Fe  Fe227     1.0  0.68292  0.38599  0.71480  1.0000
  S   S455      1.0  0.68120  0.36120  0.69858  1.0000
  Fe  Fe228     1.0  0.67672  0.41807  0.74401  1.0000
  S   S456      1.0  0.66367  0.44001  0.76239  1.0000
  S   S457      1.0  0.69986  0.39053  0.70541  1.0000
  S   S458      1.0  0.69315  0.42407  0.73682  1.0000
  H   H2742     1.0  0.71981  0.41071  0.72697  1.0000
  C   C1613     1.0  0.71116  0.48013  0.66836  1.0000
  H   H2743     1.0  0.70865  0.06412  0.76035  1.0000
  C   C1614     1.0  0.66702  0.44954  0.78117  1.0000
  C   C1615     1.0  0.67541  0.43791  0.79104  1.0000
  S   S459      1.0  0.64174  0.28011  0.67497  1.0000
  H   H2744     1.0  0.54685  0.05926  0.80140  1.0000
  H   H2745     1.0  0.69344  0.38962  0.66845  1.0000
  H   H2746     1.0  0.67992  0.42271  0.78731  1.0000
  H   H2747     1.0  0.70919  0.10369  0.71011  1.0000
  H   H2748     1.0  0.70046  0.47887  0.83434  1.0000
  C   C1616     1.0  0.72252  0.06606  0.78549  1.0000
  C   C1617     1.0  0.72830  0.44720  0.67827  1.0000
  C   C1618     1.0  0.67126  0.35663  0.68840  1.0000
  C   C1619     1.0  0.66048  0.36641  0.69370  1.0000
  C   C1620     1.0  0.65284  0.36086  0.68652  1.0000
  H   H2749     1.0  0.73378  0.03637  0.78164  1.0000
  C   C1621     1.0  0.69156  0.47725  0.76321  1.0000
  H   H2750     1.0  0.65800  0.37789  0.70372  1.0000
  H   H2751     1.0  0.64450  0.36829  0.69100  1.0000
  H   H2752     1.0  0.66240  0.30717  0.75685  1.0000
  H   H2753     1.0  0.70015  0.47526  0.75575  1.0000
  H   H2754     1.0  0.66552  0.32963  0.73662  1.0000
  H   H2755     1.0  0.72013  0.47146  0.75291  1.0000
  C   C1622     1.0  0.66116  0.46916  0.78631  1.0000
  H   H2756     1.0  0.55648  0.07418  0.67371  1.0000
  H   H2757     1.0  0.50449  0.02646  0.68411  1.0000
  H   H2758     1.0  0.68064  0.46706  0.73707  1.0000
  H   H2759     1.0  0.64337  0.14216  0.69460  1.0000
  H   H2760     1.0  0.69072  0.47776  0.77992  1.0000
  C   C1623     1.0  0.71563  0.38140  0.81483  1.0000
  C   C1624     1.0  0.72427  0.36991  0.80244  1.0000
  C   C1625     1.0  0.72305  0.36548  0.78416  1.0000
  C   C1626     1.0  0.71333  0.37325  0.77772  1.0000
  C   C1627     1.0  0.70468  0.38485  0.79007  1.0000
  C   C1628     1.0  0.70579  0.38860  0.80879  1.0000
  S   S460      1.0  0.72923  0.09326  0.72194  1.0000
  C   C1629     1.0  0.72571  0.04434  0.77864  1.0000
  H   H2761     1.0  0.69714  0.39079  0.78525  1.0000
  H   H2762     1.0  0.69906  0.39742  0.81839  1.0000
  C   C1630     1.0  0.72535  0.08601  0.70239  1.0000
  C   C1631     1.0  0.54156  0.01809  0.79749  1.0000
  H   H2763     1.0  0.65458  0.47812  0.77890  1.0000
  H   H2764     1.0  0.71963  0.07927  0.77281  1.0000
  C   C1632     1.0  0.49016  0.06059  0.77033  1.0000
  H   H2765     1.0  0.62991  0.15932  0.67673  1.0000
  C   C1633     1.0  0.54657  0.06541  0.76783  1.0000
  H   H2766     1.0  0.54537  0.06390  0.72963  1.0000
  H   H2767     1.0  0.62969  0.19574  0.68474  1.0000
  C   C1634     1.0  0.71840  0.44245  0.68032  1.0000
  H   H2768     1.0  0.63591  0.30557  0.71713  1.0000
  C   C1635     1.0  0.63954  0.21455  0.68789  1.0000
  C   C1636     1.0  0.67776  0.44565  0.80627  1.0000
  H   H2769     1.0  0.63285  0.21539  0.66208  1.0000
  H   H2770     1.0  0.53422  0.01394  0.79659  1.0000
  H   H2771     1.0  0.48810  0.08044  0.73989  1.0000
  H   H2772     1.0  0.66800  0.47361  0.71567  1.0000
  H   H2773     1.0  0.73037  0.39272  0.73866  1.0000
  H   H2774     1.0  0.71669  0.06679  0.80057  1.0000
  C   C1637     1.0  0.67197  0.46538  0.81126  1.0000
  C   C1638     1.0  0.72030  0.01375  0.77414  1.0000
  Fe  Fe229     1.0  0.52234  0.04779  0.69409  1.0000
  H   H2775     1.0  0.56401  0.05381  0.73509  1.0000
  H   H2776     1.0  0.49079  0.02257  0.75503  1.0000
  C   C1639     1.0  0.49336  0.06766  0.74840  1.0000
  C   C1640     1.0  0.72954  0.07014  0.67188  1.0000
  C   C1641     1.0  0.73544  0.44756  0.74957  1.0000
  C   C1642     1.0  0.67573  0.21910  0.66393  1.0000
  H   H2777     1.0  0.56821  0.09280  0.68160  1.0000
  H   H2778     1.0  0.72976  0.06988  0.78731  1.0000
  S   S461      1.0  0.64577  0.33804  0.66657  1.0000
  C   C1643     1.0  0.63641  0.20289  0.67443  1.0000
  H   H2779     1.0  0.71749  0.42602  0.68533  1.0000
  C   C1644     1.0  0.50321  0.05793  0.73740  1.0000
  H   H2780     1.0  0.65298  0.32310  0.74070  1.0000
  C   C1645     1.0  0.65583  0.34542  0.67406  1.0000
  H   H2781     1.0  0.72752  0.47179  0.72589  1.0000
  S   S462      1.0  0.67457  0.47388  0.83159  1.0000
  C   C1646     1.0  0.71919  0.07909  0.66849  1.0000
  H   H2782     1.0  0.66570  0.43191  0.66389  1.0000
  H   H2783     1.0  0.64319  0.20328  0.70074  1.0000
  H   H2784     1.0  0.71798  0.41355  0.76488  1.0000
  H   H2785     1.0  0.65685  0.15770  0.67226  1.0000
  H   H2786     1.0  0.72668  0.04852  0.76115  1.0000
  H   H2787     1.0  0.70641  0.44141  0.90075  1.0000
  H   H2788     1.0  0.62356  0.18480  0.66240  1.0000
  C   C1647     1.0  0.70669  0.04034  0.79081  1.0000
  N   N114      1.0  0.54341  0.04763  0.76276  1.0000
  C   C1648     1.0  0.67665  0.48411  0.73242  1.0000
  C   C1649     1.0  0.71684  0.48608  0.86664  1.0000
  C   C1650     1.0  0.66147  0.31602  0.74070  1.0000
  H   H2789     1.0  0.70998  0.43221  0.79369  1.0000
  S   S463      1.0  0.52568  0.04856  0.65936  1.0000
  C   C1651     1.0  0.73263  0.07361  0.68877  1.0000
  C   C1652     1.0  0.72849  0.40719  0.72636  1.0000
  H   H2790     1.0  0.70270  0.04271  0.76052  1.0000
  H   H2791     1.0  0.67336  0.18844  0.68346  1.0000
  H   H2792     1.0  0.70151  0.02849  0.79835  1.0000
  C   C1653     1.0  0.67775  0.19671  0.66894  1.0000
  H   H2793     1.0  0.71106  0.49374  0.70694  1.0000
  H   H2794     1.0  0.49087  0.04296  0.71399  1.0000
  N   N115      1.0  0.48949  0.00997  0.71978  1.0000
  H   H2795     1.0  0.65562  0.17663  0.68669  1.0000
  C   C1654     1.0  0.66376  0.47728  0.80097  1.0000
  H   H2796     1.0  0.55536  0.06204  0.76601  1.0000
  H   H2797     1.0  0.49242  0.99597  0.69283  1.0000
  C   C1655     1.0  0.67265  0.48612  0.71247  1.0000
  H   H2798     1.0  0.63223  0.22491  0.69540  1.0000
  H   H2799     1.0  0.67925  0.48342  0.69873  1.0000
  H   H2800     1.0  0.52960  0.03736  0.76196  1.0000
  N   N116      1.0  0.66170  0.28393  0.72515  1.0000
  C   C1656     1.0  0.67012  0.26754  0.71444  1.0000
  C   C1657     1.0  0.65795  0.27289  0.74771  1.0000
  C   C1658     1.0  0.66685  0.30178  0.72445  1.0000
  C   C1659     1.0  0.65290  0.29208  0.71314  1.0000
  C   C1660     1.0  0.67597  0.27603  0.69169  1.0000
  C   C1661     1.0  0.65241  0.25438  0.75079  1.0000
  H   H2801     1.0  0.71045  0.03791  0.83061  1.0000
  C   C1662     1.0  0.64275  0.30723  0.72242  1.0000
  H   H2802     1.0  0.67635  0.25949  0.72385  1.0000
  H   H2803     1.0  0.66666  0.25459  0.71333  1.0000
  H   H2804     1.0  0.65228  0.28417  0.75714  1.0000
  H   H2805     1.0  0.66479  0.26640  0.75572  1.0000
  C   C1663     1.0  0.50999  0.04150  0.74846  1.0000
  H   H2806     1.0  0.66749  0.31271  0.70870  1.0000
  H   H2807     1.0  0.65581  0.30111  0.69698  1.0000
  H   H2808     1.0  0.65048  0.27866  0.71012  1.0000
  H   H2809     1.0  0.68033  0.28833  0.69081  1.0000
  H   H2810     1.0  0.50390  0.01438  0.72492  1.0000
  H   H2811     1.0  0.67049  0.28235  0.68066  1.0000
  H   H2812     1.0  0.65795  0.24056  0.74466  1.0000
  H   H2813     1.0  0.64952  0.24840  0.76797  1.0000
  H   H2814     1.0  0.64535  0.25969  0.74357  1.0000
  C   C1664     1.0  0.70981  0.45895  0.67539  1.0000
  C   C1665     1.0  0.56021  0.04210  0.73268  1.0000
  H   H2815     1.0  0.68627  0.46742  0.90314  1.0000
  H   H2816     1.0  0.73527  0.06095  0.66108  1.0000
  H   H2817     1.0  0.64046  0.30349  0.73982  1.0000
  Fe  Fe230     1.0  0.54331  0.01767  0.69943  1.0000
  N   N117      1.0  0.69894  0.43872  0.86455  1.0000
  C   C1666     1.0  0.70100  0.44400  0.84070  1.0000
  C   C1667     1.0  0.69370  0.41974  0.87232  1.0000
  C   C1668     1.0  0.70966  0.43217  0.87033  1.0000
  C   C1669     1.0  0.69223  0.45828  0.87269  1.0000
  C   C1670     1.0  0.70558  0.46419  0.82922  1.0000
  C   C1671     1.0  0.68271  0.42333  0.86719  1.0000
  C   C1672     1.0  0.70971  0.42692  0.89399  1.0000
  C   C1673     1.0  0.68583  0.45470  0.89584  1.0000
  H   H2818     1.0  0.70647  0.43031  0.83415  1.0000
  H   H2819     1.0  0.69361  0.44656  0.83522  1.0000
  H   H2820     1.0  0.69269  0.41367  0.88956  1.0000
  H   H2821     1.0  0.69892  0.40589  0.86563  1.0000
  H   H2822     1.0  0.71455  0.41795  0.86390  1.0000
  H   H2823     1.0  0.71420  0.44494  0.86303  1.0000
  S   S464      1.0  0.73438  0.42842  0.82299  1.0000
  H   H2824     1.0  0.68624  0.46690  0.86289  1.0000
  H   H2825     1.0  0.70592  0.46701  0.81208  1.0000
  H   H2826     1.0  0.64353  0.32418  0.71664  1.0000
  H   H2827     1.0  0.67870  0.41026  0.87723  1.0000
  H   H2828     1.0  0.67737  0.43869  0.87011  1.0000
  H   H2829     1.0  0.68353  0.42251  0.85062  1.0000
  H   H2830     1.0  0.64487  0.22542  0.67816  1.0000
  H   H2831     1.0  0.69517  0.06356  0.77393  1.0000
  H   H2832     1.0  0.70565  0.41376  0.90322  1.0000
  C   C1674     1.0  0.73097  0.48070  0.83594  1.0000
  H   H2833     1.0  0.51697  0.07330  0.75970  1.0000
  H   H2834     1.0  0.67518  0.29528  0.72668  1.0000
  H   H2835     1.0  0.54163  0.08673  0.78970  1.0000
  H   H2836     1.0  0.72335  0.41880  0.79539  1.0000
  C   C1675     1.0  0.49607  0.03458  0.68393  1.0000
  H   H2837     1.0  0.66950  0.48638  0.74533  1.0000
  H   H2838     1.0  0.68197  0.26248  0.68583  1.0000
  S   S465      1.0  0.54824  0.01609  0.66539  1.0000
  C   C1676     1.0  0.72660  0.47434  0.85740  1.0000
  Fe  Fe231     1.0  0.53145  0.01285  0.66914  1.0000
  C   C1677     1.0  0.54186  0.06976  0.79021  1.0000
  C   C1678     1.0  0.71180  0.09074  0.68267  1.0000
  C   C1679     1.0  0.72030  0.01594  0.80961  1.0000
  C   C1680     1.0  0.71863  0.02821  0.82695  1.0000
  H   H2839     1.0  0.72867  0.00675  0.80814  1.0000
  C   C1681     1.0  0.71847  0.43208  0.78584  1.0000
  S   S466      1.0  0.49308  0.03500  0.80879  1.0000
  H   H2840     1.0  0.52749  0.07239  0.73690  1.0000
  H   H2841     1.0  0.56238  0.04249  0.71545  1.0000
  C   C1682     1.0  0.52571  0.07192  0.75407  1.0000
  H   H2842     1.0  0.68881  0.46301  0.76320  1.0000
  H   H2843     1.0  0.73686  0.44744  0.76511  1.0000
  N   N118      1.0  0.64525  0.18676  0.66430  1.0000
  H   H2844     1.0  0.53947  0.02963  0.80779  1.0000
  H   H2845     1.0  0.52747  0.04961  0.78313  1.0000
  H   H2846     1.0  0.73318  0.14810  0.67811  1.0000
  H   H2847     1.0  0.49043  0.99664  0.86926  1.0000
  C   C1683     1.0  0.54794  0.04786  0.73958  1.0000
  H   H2848     1.0  0.73185  0.36414  0.80711  1.0000
  H   H2849     1.0  0.69768  0.47351  0.72276  1.0000
  S   S467      1.0  0.66565  0.23374  0.68037  1.0000
  N   N119      1.0  0.71827  0.02910  0.78842  1.0000
  H   H2850     1.0  0.66910  0.32435  0.65855  1.0000
  H   H2851     1.0  0.49599  0.05183  0.67697  1.0000
  H   H2852     1.0  0.70044  0.16451  0.68435  1.0000
  S   S468      1.0  0.73650  0.39366  0.86751  1.0000
  H   H2853     1.0  0.54484  0.03651  0.73463  1.0000
  H   H2854     1.0  0.70567  0.14030  0.67500  1.0000
  H   H2855     1.0  0.72974  0.35641  0.77471  1.0000
  C   C1684     1.0  0.72041  0.42870  0.76330  1.0000
  C   C1685     1.0  0.73138  0.99844  0.77144  1.0000
  C   C1686     1.0  0.56108  0.08401  0.66098  1.0000
  H   H2856     1.0  0.50668  0.00061  0.87518  1.0000
  H   H2857     1.0  0.71947  0.02264  0.75788  1.0000
  C   C1687     1.0  0.72816  0.46929  0.74246  1.0000
  C   C1688     1.0  0.70325  0.05336  0.77009  1.0000
  Fe  Fe232     1.0  0.65711  0.26159  0.65953  1.0000
  S   S469      1.0  0.62022  0.26382  0.65714  1.0000
  H   H2858     1.0  0.60551  0.23624  0.66680  1.0000
  H   H2859     1.0  0.65713  0.20578  0.65773  1.0000
  H   H2860     1.0  0.71094  0.14542  0.69481  1.0000
  C   C1689     1.0  0.70790  0.15262  0.68013  1.0000
  H   H2861     1.0  0.73503  0.43440  0.68152  1.0000
  C   C1690     1.0  0.73180  0.42691  0.72846  1.0000
  S   S470      1.0  0.73297  0.45092  0.87238  1.0000
  H   H2862     1.0  0.65914  0.49231  0.80495  1.0000
  H   H2863     1.0  0.71526  0.00376  0.81598  1.0000
  Fe  Fe233     1.0  0.73263  0.39452  0.83699  1.0000
  N   N120      1.0  0.73164  0.42793  0.75055  1.0000
  C   C1691     1.0  0.50071  0.00127  0.72320  1.0000
  H   H2864     1.0  0.68261  0.33408  0.67109  1.0000
  H   H2865     1.0  0.56366  0.02563  0.74053  1.0000
  H   H2866     1.0  0.73293  0.40271  0.71113  1.0000
  H   H2867     1.0  0.71996  0.01638  0.84174  1.0000
  H   H2868     1.0  0.68649  0.16782  0.65841  1.0000
  H   H2869     1.0  0.71428  0.00353  0.77981  1.0000
  H   H2870     1.0  0.69365  0.49202  0.70067  1.0000
  Fe  Fe234     1.0  0.54212  0.05173  0.65937  1.0000
  C   C1692     1.0  0.67228  0.41863  0.65908  1.0000
  C   C1693     1.0  0.71583  0.16427  0.66252  1.0000
  H   H2871     1.0  0.68437  0.43207  0.66207  1.0000
  C   C1694     1.0  0.69453  0.49087  0.71685  1.0000
  H   H2872     1.0  0.54929  0.01324  0.76668  1.0000
  H   H2873     1.0  0.67310  0.40615  0.67370  1.0000
  H   H2874     1.0  0.72661  0.12711  0.68202  1.0000
  H   H2875     1.0  0.71782  0.17584  0.66928  1.0000
  S   S471      1.0  0.55476  0.99771  0.71970  1.0000
  H   H2876     1.0  0.54637  0.00302  0.80528  1.0000
  H   H2877     1.0  0.53296  0.00591  0.74250  1.0000
  H   H2878     1.0  0.73538  0.39439  0.76632  1.0000
  H   H2879     1.0  0.50477  0.00492  0.83966  1.0000
  C   C1695     1.0  0.48879  0.03239  0.70625  1.0000
  H   H2880     1.0  0.70460  0.49292  0.66408  1.0000
  H   H2881     1.0  0.70289  0.41739  0.65537  1.0000
  H   H2882     1.0  0.50609  0.99557  0.70904  1.0000
  S   S472      1.0  0.58206  0.12072  0.65537  1.0000
  H   H2883     1.0  0.50568  0.94949  0.19970  1.0000
  Fe  Fe235     1.0  0.61768  0.84761  0.10806  1.0000
  S   S473      1.0  0.60700  0.84770  0.14003  1.0000
  S   S474      1.0  0.63071  0.86587  0.09474  1.0000
  Fe  Fe236     1.0  0.60729  0.81746  0.09832  1.0000
  S   S475      1.0  0.59576  0.81460  0.12977  1.0000
  S   S476      1.0  0.60729  0.79810  0.07559  1.0000
  Fe  Fe237     1.0  0.59389  0.85014  0.12440  1.0000
  S   S477      1.0  0.57818  0.87377  0.12976  1.0000
  Fe  Fe238     1.0  0.60990  0.81239  0.14267  1.0000
  S   S478      1.0  0.61266  0.79054  0.17342  1.0000
  S   S479      1.0  0.60433  0.85329  0.09187  1.0000
  S   S480      1.0  0.62161  0.81202  0.11177  1.0000
  H   H2884     1.0  0.60550  0.86112  0.20220  1.0000
  Fe  Fe239     1.0  0.55256  0.92569  0.22523  1.0000
  S   S481      1.0  0.56639  0.89815  0.21896  1.0000
  S   S482      1.0  0.54520  0.92748  0.25922  1.0000
  Fe  Fe240     1.0  0.67340  0.85741  0.14769  1.0000
  S   S483      1.0  0.67952  0.84035  0.12111  1.0000
  S   S484      1.0  0.65595  0.86160  0.16264  1.0000
  Fe  Fe241     1.0  0.69560  0.85989  0.14947  1.0000
  S   S485      1.0  0.70371  0.84268  0.12283  1.0000
  S   S486      1.0  0.70312  0.86793  0.17187  1.0000
  Fe  Fe242     1.0  0.69026  0.86361  0.10757  1.0000
  S   S487      1.0  0.69152  0.87910  0.07300  1.0000
  Fe  Fe243     1.0  0.69223  0.82085  0.13843  1.0000
  S   S488      1.0  0.69588  0.78475  0.14526  1.0000
  S   S489      1.0  0.68301  0.88267  0.13292  1.0000
  S   S490      1.0  0.68525  0.83610  0.16627  1.0000
  H   H2885     1.0  0.50518  0.96892  0.26816  1.0000
  C   C1696     1.0  0.68084  0.73733  0.02012  1.0000
  H   H2886     1.0  0.62271  0.81533  0.00952  1.0000
  H   H2887     1.0  0.64912  0.77422  0.19688  1.0000
  C   C1697     1.0  0.63945  0.79822  0.17752  1.0000
  H   H2888     1.0  0.51792  0.97333  0.28725  1.0000
  H   H2889     1.0  0.60041  0.86370  0.17977  1.0000
  H   H2890     1.0  0.56867  0.83538  0.03864  1.0000
  Fe  Fe244     1.0  0.69919  0.52400  0.23638  1.0000
  H   H2891     1.0  0.62663  0.90819  0.12014  1.0000
  H   H2892     1.0  0.53581  0.89111  0.26353  1.0000
  Fe  Fe245     1.0  0.69432  0.57113  0.23711  1.0000
  S   S491      1.0  0.69196  0.60569  0.21933  1.0000
  H   H2893     1.0  0.55921  0.88818  0.10039  1.0000
  S   S492      1.0  0.70962  0.54714  0.23042  1.0000
  H   H2894     1.0  0.71271  0.72697  0.04231  1.0000
  H   H2895     1.0  0.72234  0.90750  0.04496  1.0000
  H   H2896     1.0  0.51884  0.84769  0.27429  1.0000
  Fe  Fe246     1.0  0.65584  0.69905  0.13497  1.0000
  S   S493      1.0  0.65639  0.72327  0.10470  1.0000
  S   S494      1.0  0.64351  0.70130  0.16504  1.0000
  Fe  Fe247     1.0  0.67509  0.66835  0.11694  1.0000
  S   S495      1.0  0.67740  0.68993  0.08437  1.0000
  S   S496      1.0  0.68461  0.63457  0.12588  1.0000
  Fe  Fe248     1.0  0.67391  0.71605  0.10202  1.0000
  S   S497      1.0  0.67994  0.74620  0.08699  1.0000
  Fe  Fe249     1.0  0.65967  0.69602  0.08875  1.0000
  S   S498      1.0  0.65023  0.70428  0.06333  1.0000
  S   S499      1.0  0.67317  0.69417  0.13418  1.0000
  S   S500      1.0  0.65755  0.67211  0.11958  1.0000
  H   H2897     1.0  0.62961  0.73613  0.00801  1.0000
  C   C1698     1.0  0.71249  0.89895  0.02863  1.0000
  S   S501      1.0  0.72639  0.96729  0.23597  1.0000
  C   C1699     1.0  0.65494  0.69044  0.04262  1.0000
  C   C1700     1.0  0.66421  0.67434  0.04177  1.0000
  C   C1701     1.0  0.66766  0.66342  0.02514  1.0000
  H   H2898     1.0  0.64817  0.68900  0.99788  1.0000
  H   H2899     1.0  0.71263  0.71248  0.01467  1.0000
  H   H2900     1.0  0.66866  0.67009  0.05404  1.0000
  H   H2901     1.0  0.67476  0.65075  0.02470  1.0000
  C   C1702     1.0  0.69161  0.61252  0.19230  1.0000
  C   C1703     1.0  0.69112  0.59751  0.18175  1.0000
  C   C1704     1.0  0.68937  0.60429  0.16103  1.0000
  C   C1705     1.0  0.68796  0.62608  0.15091  1.0000
  C   C1706     1.0  0.68894  0.64083  0.16117  1.0000
  C   C1707     1.0  0.69087  0.63402  0.18168  1.0000
  H   H2902     1.0  0.69175  0.58085  0.18975  1.0000
  H   H2903     1.0  0.68875  0.59274  0.15309  1.0000
  H   H2904     1.0  0.68820  0.65751  0.15332  1.0000
  H   H2905     1.0  0.69143  0.64563  0.18962  1.0000
  H   H2906     1.0  0.58741  0.83105  0.08467  1.0000
  H   H2907     1.0  0.49691  0.95800  0.17006  1.0000
  C   C1708     1.0  0.50030  0.91655  0.30165  1.0000
  H   H2908     1.0  0.54736  0.94871  0.29503  1.0000
  H   H2909     1.0  0.63762  0.80241  0.16170  1.0000
  H   H2910     1.0  0.64701  0.78097  0.02515  1.0000
  H   H2911     1.0  0.64084  0.81222  0.18137  1.0000
  H   H2912     1.0  0.72769  0.91122  0.12168  1.0000
  C   C1709     1.0  0.69218  0.77376  0.12821  1.0000
  C   C1710     1.0  0.69173  0.75204  0.13375  1.0000
  C   C1711     1.0  0.68794  0.74339  0.12122  1.0000
  C   C1712     1.0  0.68487  0.75634  0.10281  1.0000
  C   C1713     1.0  0.68570  0.77781  0.09684  1.0000
  C   C1714     1.0  0.68926  0.78655  0.10960  1.0000
  H   H2913     1.0  0.69414  0.74201  0.14799  1.0000
  H   H2914     1.0  0.68749  0.72670  0.12570  1.0000
  H   H2915     1.0  0.68353  0.78775  0.08238  1.0000
  H   H2916     1.0  0.68991  0.80309  0.10487  1.0000
  C   C1715     1.0  0.71139  0.88654  0.16423  1.0000
  C   C1716     1.0  0.71634  0.89324  0.14314  1.0000
  C   C1717     1.0  0.72369  0.90649  0.13796  1.0000
  C   C1718     1.0  0.72610  0.91316  0.15381  1.0000
  C   C1719     1.0  0.72088  0.90706  0.17480  1.0000
  C   C1720     1.0  0.71361  0.89366  0.17999  1.0000
  H   H2917     1.0  0.71469  0.88779  0.13091  1.0000
  C   C1721     1.0  0.62998  0.80239  0.01033  1.0000
  C   C1722     1.0  0.49657  0.97509  0.16947  1.0000
  C   C1723     1.0  0.72487  0.53547  0.29965  1.0000
  C   C1724     1.0  0.69778  0.82312  0.05474  1.0000
  C   C1725     1.0  0.69664  0.83836  0.06644  1.0000
  C   C1726     1.0  0.69287  0.86003  0.05836  1.0000
  C   C1727     1.0  0.69027  0.86647  0.03845  1.0000
  H   H2918     1.0  0.70066  0.80634  0.06117  1.0000
  H   H2919     1.0  0.69876  0.83331  0.08168  1.0000
  H   H2920     1.0  0.68731  0.88325  0.03220  1.0000
  C   C1728     1.0  0.51099  0.91690  0.29217  1.0000
  H   H2921     1.0  0.50878  0.95743  0.30250  1.0000
  C   C1729     1.0  0.64874  0.77872  0.17991  1.0000
  C   C1730     1.0  0.72839  0.93908  0.29068  1.0000
  C   C1731     1.0  0.66245  0.66157  0.19434  1.0000
  C   C1732     1.0  0.57437  0.87977  0.15499  1.0000
  C   C1733     1.0  0.57929  0.86673  0.17128  1.0000
  C   C1734     1.0  0.57669  0.87243  0.19092  1.0000
  C   C1735     1.0  0.56912  0.89112  0.19443  1.0000
  C   C1736     1.0  0.56398  0.90390  0.17834  1.0000
  C   C1737     1.0  0.56660  0.89821  0.15865  1.0000
  H   H2922     1.0  0.58515  0.85228  0.16873  1.0000
  H   H2923     1.0  0.58061  0.86238  0.20339  1.0000
  H   H2924     1.0  0.55813  0.91837  0.18092  1.0000
  H   H2925     1.0  0.56276  0.90835  0.14611  1.0000
  C   C1738     1.0  0.62200  0.76646  0.17136  1.0000
  C   C1739     1.0  0.62072  0.74831  0.18742  1.0000
  C   C1740     1.0  0.62756  0.72848  0.18551  1.0000
  C   C1741     1.0  0.63581  0.72676  0.16768  1.0000
  C   C1742     1.0  0.63749  0.74510  0.15210  1.0000
  C   C1743     1.0  0.63053  0.76497  0.15387  1.0000
  H   H2926     1.0  0.61420  0.74945  0.20105  1.0000
  H   H2927     1.0  0.62628  0.71436  0.19767  1.0000
  H   H2928     1.0  0.64403  0.74396  0.13858  1.0000
  H   H2929     1.0  0.63177  0.77907  0.14176  1.0000
  C   C1744     1.0  0.63780  0.86450  0.11358  1.0000
  C   C1745     1.0  0.63421  0.85552  0.13486  1.0000
  C   C1746     1.0  0.63957  0.85553  0.14998  1.0000
  C   C1747     1.0  0.64892  0.86329  0.14371  1.0000
  C   C1748     1.0  0.65271  0.87175  0.12236  1.0000
  C   C1749     1.0  0.64703  0.87274  0.10735  1.0000
  H   H2930     1.0  0.62730  0.84864  0.13979  1.0000
  H   H2931     1.0  0.63661  0.84914  0.16649  1.0000
  H   H2932     1.0  0.65990  0.87793  0.11747  1.0000
  H   H2933     1.0  0.64984  0.87981  0.09093  1.0000
  C   C1750     1.0  0.59920  0.83988  0.01400  1.0000
  C   C1751     1.0  0.60365  0.84772  0.02602  1.0000
  C   C1752     1.0  0.60678  0.83445  0.04430  1.0000
  C   C1753     1.0  0.60520  0.81353  0.05090  1.0000
  C   C1754     1.0  0.60134  0.80525  0.03821  1.0000
  C   C1755     1.0  0.59837  0.81842  0.01967  1.0000
  H   H2934     1.0  0.60449  0.86420  0.02139  1.0000
  H   H2935     1.0  0.61025  0.84059  0.05342  1.0000
  H   H2936     1.0  0.60021  0.78896  0.04316  1.0000
  H   H2937     1.0  0.59490  0.81236  0.01041  1.0000
  C   C1756     1.0  0.58270  0.87532  0.06523  1.0000
  C   C1757     1.0  0.58508  0.89434  0.04680  1.0000
  H   H2938     1.0  0.58248  0.87982  0.08009  1.0000
  H   H2939     1.0  0.58985  0.86220  0.06333  1.0000
  H   H2940     1.0  0.58654  0.89042  0.03116  1.0000
  H   H2941     1.0  0.57873  0.90901  0.04784  1.0000
  H   H2942     1.0  0.59252  0.89824  0.04749  1.0000
  H   H2943     1.0  0.57831  0.82050  0.07685  1.0000
  N   N121      1.0  0.65697  0.83923  0.04629  1.0000
  C   C1758     1.0  0.65926  0.86125  0.03606  1.0000
  C   C1759     1.0  0.65803  0.83456  0.06888  1.0000
  C   C1760     1.0  0.64563  0.84026  0.04578  1.0000
  C   C1761     1.0  0.66469  0.82332  0.03399  1.0000
  C   C1762     1.0  0.65721  0.87083  0.01360  1.0000
  C   C1763     1.0  0.66903  0.83464  0.07188  1.0000
  C   C1764     1.0  0.64121  0.81994  0.05673  1.0000
  C   C1765     1.0  0.66679  0.79945  0.04569  1.0000
  H   H2944     1.0  0.65446  0.87303  0.04596  1.0000
  H   H2945     1.0  0.66774  0.86119  0.03478  1.0000
  H   H2946     1.0  0.65616  0.81902  0.07797  1.0000
  H   H2947     1.0  0.65208  0.84645  0.07729  1.0000
  H   H2948     1.0  0.64013  0.85363  0.05294  1.0000
  H   H2949     1.0  0.64465  0.84384  0.02922  1.0000
  H   H2950     1.0  0.66206  0.82421  0.01943  1.0000
  H   H2951     1.0  0.67263  0.82766  0.02829  1.0000
  H   H2952     1.0  0.72938  0.83617  0.16485  1.0000
  H   H2953     1.0  0.55230  0.85273  0.28214  1.0000
  H   H2954     1.0  0.70545  0.68056  0.02844  1.0000
  H   H2955     1.0  0.66945  0.82812  0.08869  1.0000
  H   H2956     1.0  0.67556  0.82451  0.06251  1.0000
  H   H2957     1.0  0.67042  0.85112  0.06793  1.0000
  H   H2958     1.0  0.63270  0.82347  0.05584  1.0000
  H   H2959     1.0  0.64136  0.81489  0.07372  1.0000
  H   H2960     1.0  0.64534  0.80670  0.04846  1.0000
  H   H2961     1.0  0.66712  0.78926  0.03487  1.0000
  H   H2962     1.0  0.66080  0.79494  0.06004  1.0000
  H   H2963     1.0  0.67478  0.79458  0.04964  1.0000
  C   C1766     1.0  0.65982  0.67955  0.20656  1.0000
  H   H2964     1.0  0.65684  0.64165  0.23853  1.0000
  H   H2965     1.0  0.64312  0.66009  0.22120  1.0000
  H   H2966     1.0  0.66232  0.67383  0.22187  1.0000
  H   H2967     1.0  0.64856  0.87625  0.01381  1.0000
  H   H2968     1.0  0.58989  0.93163  0.19309  1.0000
  H   H2969     1.0  0.66889  0.59885  0.22580  1.0000
  H   H2970     1.0  0.63832  0.62735  0.23744  1.0000
  H   H2971     1.0  0.52618  0.88677  0.24147  1.0000
  N   N122      1.0  0.62205  0.73787  0.10419  1.0000
  C   C1767     1.0  0.62682  0.75707  0.10077  1.0000
  C   C1768     1.0  0.61131  0.74179  0.11903  1.0000
  C   C1769     1.0  0.62054  0.73671  0.08320  1.0000
  C   C1770     1.0  0.62964  0.71811  0.11303  1.0000
  C   C1771     1.0  0.63596  0.76045  0.08124  1.0000
  C   C1772     1.0  0.61146  0.74568  0.14041  1.0000
  C   C1773     1.0  0.61543  0.71866  0.08308  1.0000
  C   C1774     1.0  0.62507  0.69801  0.12510  1.0000
  H   H2972     1.0  0.62068  0.77213  0.09953  1.0000
  H   H2973     1.0  0.62987  0.75653  0.11468  1.0000
  H   H2974     1.0  0.60717  0.72853  0.12258  1.0000
  H   H2975     1.0  0.60588  0.75604  0.11146  1.0000
  H   H2976     1.0  0.61567  0.75216  0.07611  1.0000
  H   H2977     1.0  0.62831  0.73426  0.07172  1.0000
  H   H2978     1.0  0.63646  0.71341  0.10028  1.0000
  H   H2979     1.0  0.63322  0.72161  0.12443  1.0000
  H   H2980     1.0  0.63275  0.76789  0.06675  1.0000
  H   H2981     1.0  0.64033  0.77161  0.08305  1.0000
  H   H2982     1.0  0.64173  0.74530  0.07908  1.0000
  H   H2983     1.0  0.61316  0.76161  0.13849  1.0000
  H   H2984     1.0  0.60346  0.74575  0.15105  1.0000
  H   H2985     1.0  0.61727  0.73302  0.14841  1.0000
  H   H2986     1.0  0.62087  0.70278  0.08634  1.0000
  H   H2987     1.0  0.61420  0.72083  0.06693  1.0000
  H   H2988     1.0  0.60751  0.71892  0.09387  1.0000
  H   H2989     1.0  0.61747  0.69754  0.12205  1.0000
  H   H2990     1.0  0.62424  0.69582  0.14238  1.0000
  C   C1775     1.0  0.64918  0.69567  0.02673  1.0000
  N   N123      1.0  0.64027  0.77041  0.99246  1.0000
  C   C1776     1.0  0.71655  0.54628  0.31330  1.0000
  H   H2991     1.0  0.55086  0.83963  0.21897  1.0000
  H   H2992     1.0  0.73469  0.49549  0.25768  1.0000
  H   H2993     1.0  0.72256  0.91236  0.18707  1.0000
  H   H2994     1.0  0.72654  0.87987  0.04224  1.0000
  H   H2995     1.0  0.53526  0.82969  0.23847  1.0000
  S   S502      1.0  0.52835  0.96993  0.24082  1.0000
  S   S503      1.0  0.69351  0.56417  0.27210  1.0000
  C   C1777     1.0  0.70379  0.71515  0.01944  1.0000
  C   C1778     1.0  0.73204  0.83750  0.17858  1.0000
  C   C1779     1.0  0.70120  0.69470  0.03546  1.0000
  H   H2996     1.0  0.71493  0.88746  0.06068  1.0000
  N   N124      1.0  0.71789  0.89801  0.00604  1.0000
  S   S504      1.0  0.69896  0.51288  0.27085  1.0000
  H   H2997     1.0  0.70871  0.55205  0.30975  1.0000
  H   H2998     1.0  0.51081  0.97310  0.19264  1.0000
  H   H2999     1.0  0.73005  0.52591  0.16814  1.0000
  C   C1780     1.0  0.62924  0.74425  0.99145  1.0000
  S   S505      1.0  0.59324  0.85785  0.99408  1.0000
  C   C1781     1.0  0.71991  0.85693  0.01329  1.0000
  C   C1782     1.0  0.51799  0.86483  0.26636  1.0000
  H   H3000     1.0  0.72184  0.95343  0.28981  1.0000
  H   H3001     1.0  0.70433  0.88936  0.00114  1.0000
  H   H3002     1.0  0.51652  0.87458  0.27823  1.0000
  H   H3003     1.0  0.71867  0.74512  0.00991  1.0000
  H   H3004     1.0  0.62343  0.77817  0.00721  1.0000
  C   C1783     1.0  0.69131  0.85116  0.02679  1.0000
  H   H3005     1.0  0.56376  0.89719  0.05139  1.0000
  H   H3006     1.0  0.73489  0.94151  0.27647  1.0000
  C   C1784     1.0  0.69504  0.82944  0.03502  1.0000
  C   C1785     1.0  0.63942  0.63149  0.21998  1.0000
  S   S506      1.0  0.69601  0.80954  0.02168  1.0000
  C   C1786     1.0  0.71963  0.89325  0.04468  1.0000
  S   S507      1.0  0.53225  0.98790  0.17896  1.0000
  H   H3007     1.0  0.67125  0.65696  0.18974  1.0000
  C   C1787     1.0  0.50934  0.97433  0.29497  1.0000
  H   H3008     1.0  0.64625  0.76530  0.17709  1.0000
  N   N125      1.0  0.49414  0.97889  0.19149  1.0000
  Fe  Fe250     1.0  0.69054  0.81776  0.99127  1.0000
  C   C1788     1.0  0.57449  0.85811  0.04803  1.0000
  H   H3009     1.0  0.55592  0.87957  0.06910  1.0000
  H   H3010     1.0  0.59478  0.89707  0.19335  1.0000
  N   N126      1.0  0.57286  0.86756  0.06686  1.0000
  H   H3011     1.0  0.71422  0.85668  0.00415  1.0000
  H   H3012     1.0  0.59090  0.95689  0.17577  1.0000
  H   H3013     1.0  0.73618  0.90518  0.01540  1.0000
  H   H3014     1.0  0.52707  0.86238  0.23533  1.0000
  H   H3015     1.0  0.59488  0.93460  0.12775  1.0000
  C   C1789     1.0  0.53833  0.87357  0.26966  1.0000
  H   H3016     1.0  0.72465  0.84326  0.18978  1.0000
  H   H3017     1.0  0.66074  0.88518  0.00657  1.0000
  H   H3018     1.0  0.63679  0.81039  0.00401  1.0000
  H   H3019     1.0  0.61367  0.92372  0.11803  1.0000
  C   C1790     1.0  0.64380  0.75648  0.01221  1.0000
  C   C1791     1.0  0.50240  0.96637  0.22459  1.0000
  H   H3020     1.0  0.55494  0.86131  0.23846  1.0000
  S   S508      1.0  0.67938  0.79898  0.98958  1.0000
  C   C1792     1.0  0.60210  0.93038  0.16327  1.0000
  H   H3021     1.0  0.70643  0.88896  0.03486  1.0000
  H   H3022     1.0  0.71591  0.85589  0.03017  1.0000
  H   H3023     1.0  0.58557  0.91983  0.12912  1.0000
  C   C1793     1.0  0.54463  0.98312  0.28880  1.0000
  C   C1794     1.0  0.66196  0.66880  0.00912  1.0000
  C   C1795     1.0  0.64589  0.64910  0.21006  1.0000
  H   H3024     1.0  0.64305  0.65919  0.19569  1.0000
  H   H3025     1.0  0.51030  0.95978  0.22875  1.0000
  H   H3026     1.0  0.53652  0.83479  0.28067  1.0000
  C   C1796     1.0  0.72514  0.87650  0.00401  1.0000
  H   H3027     1.0  0.72618  0.84207  0.01237  1.0000
  H   H3028     1.0  0.66427  0.69210  0.19693  1.0000
  C   C1797     1.0  0.66179  0.63289  0.22603  1.0000
  H   H3029     1.0  0.65481  0.60392  0.23797  1.0000
  H   H3030     1.0  0.63094  0.68361  0.12069  1.0000
  C   C1798     1.0  0.70142  0.75405  0.00909  1.0000
  C   C1799     1.0  0.73253  0.93314  0.31121  1.0000
  H   H3031     1.0  0.69737  0.76971  0.01340  1.0000
  C   C1800     1.0  0.66239  0.60876  0.23561  1.0000
  H   H3032     1.0  0.63146  0.63744  0.21594  1.0000
  H   H3033     1.0  0.70976  0.88861  0.19632  1.0000
  H   H3034     1.0  0.64285  0.61680  0.21369  1.0000
  N   N127      1.0  0.65785  0.64206  0.20571  1.0000
  H   H3035     1.0  0.65979  0.66920  0.17933  1.0000
  H   H3036     1.0  0.67005  0.63503  0.22374  1.0000
  S   S509      1.0  0.53708  0.93032  0.21602  1.0000
  C   C1801     1.0  0.50716  0.98037  0.15516  1.0000
  H   H3037     1.0  0.65125  0.68749  0.20892  1.0000
  H   H3038     1.0  0.49465  0.91917  0.29191  1.0000
  H   H3039     1.0  0.55955  0.86110  0.03874  1.0000
  C   C1802     1.0  0.57114  0.85112  0.08727  1.0000
  H   H3040     1.0  0.54751  0.87807  0.28949  1.0000
  H   H3041     1.0  0.58199  0.84573  0.04626  1.0000
  S   S510      1.0  0.51501  0.92140  0.26457  1.0000
  H   H3042     1.0  0.49425  0.98377  0.28389  1.0000
  H   H3043     1.0  0.62952  0.79465  0.02728  1.0000
  C   C1803     1.0  0.59513  0.90459  0.15266  1.0000
  H   H3044     1.0  0.57742  0.81910  0.10404  1.0000
  H   H3045     1.0  0.58449  0.93996  0.16949  1.0000
  C   C1804     1.0  0.72987  0.98835  0.24163  1.0000
  H   H3046     1.0  0.66445  0.60482  0.25130  1.0000
  S   S511      1.0  0.54746  0.98710  0.26126  1.0000
  H   H3047     1.0  0.73375  0.52816  0.22744  1.0000
  Fe  Fe251     1.0  0.54456  0.96274  0.24741  1.0000
  H   H3048     1.0  0.65869  0.76550  0.01120  1.0000
  C   C1805     1.0  0.54521  0.96263  0.30189  1.0000
  C   C1806     1.0  0.65071  0.76498  0.02165  1.0000
  S   S512      1.0  0.72309  0.52918  0.27739  1.0000
  S   S513      1.0  0.66934  0.53632  0.29898  1.0000
  H   H3049     1.0  0.68337  0.72183  0.01514  1.0000
  H   H3050     1.0  0.51069  0.86969  0.25989  1.0000
  H   H3051     1.0  0.59658  0.88776  0.15131  1.0000
  C   C1807     1.0  0.57908  0.82930  0.08794  1.0000
  H   H3052     1.0  0.57569  0.87036  0.03309  1.0000
  H   H3053     1.0  0.56096  0.84160  0.06291  1.0000
  H   H3054     1.0  0.57166  0.85720  0.10068  1.0000
  H   H3055     1.0  0.65203  0.75378  0.03677  1.0000
  S   S514      1.0  0.68391  0.54868  0.24012  1.0000
  H   H3056     1.0  0.55494  0.87717  0.26338  1.0000
  C   C1808     1.0  0.54804  0.85726  0.21548  1.0000
  C   C1809     1.0  0.66196  0.62615  0.19159  1.0000
  C   C1810     1.0  0.60301  0.89375  0.18357  1.0000
  H   H3057     1.0  0.70124  0.71614  0.00475  1.0000
  C   C1811     1.0  0.70151  0.92345  0.99243  1.0000
  H   H3058     1.0  0.69648  0.92575  0.00807  1.0000
  Fe  Fe252     1.0  0.68447  0.53940  0.27441  1.0000
  C   C1812     1.0  0.56319  0.88568  0.06696  1.0000
  H   H3059     1.0  0.54572  0.88445  0.22885  1.0000
  H   H3060     1.0  0.72529  0.92560  0.28966  1.0000
  H   H3061     1.0  0.65930  0.61091  0.19900  1.0000
  H   H3062     1.0  0.66362  0.64590  0.15930  1.0000
  H   H3063     1.0  0.52658  0.91332  0.29759  1.0000
  N   N128      1.0  0.60369  0.90754  0.16149  1.0000
  H   H3064     1.0  0.55430  0.86355  0.20241  1.0000
  C   C1813     1.0  0.54693  0.86676  0.23457  1.0000
  H   H3065     1.0  0.73198  0.87309  0.01152  1.0000
  C   C1814     1.0  0.61464  0.90019  0.14844  1.0000
  H   H3066     1.0  0.69486  0.76627  0.05184  1.0000
  H   H3067     1.0  0.71962  0.93059  0.00170  1.0000
  C   C1815     1.0  0.65916  0.63369  0.16967  1.0000
  H   H3068     1.0  0.67075  0.62140  0.18894  1.0000
  H   H3069     1.0  0.68921  0.85611  0.01154  1.0000
  H   H3070     1.0  0.64187  0.70772  0.02763  1.0000
  C   C1816     1.0  0.68728  0.73868  0.03534  1.0000
  C   C1817     1.0  0.51831  0.91318  0.30480  1.0000
  H   H3071     1.0  0.70769  0.91531  0.02973  1.0000
  H   H3072     1.0  0.68529  0.72676  0.05021  1.0000
  C   C1818     1.0  0.56531  0.84868  0.04719  1.0000
  N   N129      1.0  0.69918  0.73564  0.02724  1.0000
  H   H3073     1.0  0.66176  0.61992  0.16176  1.0000
  H   H3074     1.0  0.53240  0.86971  0.28457  1.0000
  H   H3075     1.0  0.56297  0.84804  0.09161  1.0000
  C   C1819     1.0  0.61906  0.91654  0.12910  1.0000
  S   S515      1.0  0.55320  0.96045  0.21424  1.0000
  H   H3076     1.0  0.69259  0.69472  0.03926  1.0000
  C   C1820     1.0  0.54895  0.86990  0.27633  1.0000
  H   H3077     1.0  0.59941  0.91000  0.11807  1.0000
  H   H3078     1.0  0.51405  0.96731  0.15891  1.0000
  H   H3079     1.0  0.58722  0.90688  0.16369  1.0000
  C   C1821     1.0  0.56086  0.89840  0.08432  1.0000
  H   H3080     1.0  0.49712  0.95571  0.23526  1.0000
  H   H3081     1.0  0.64924  0.81425  0.13545  1.0000
  C   C1822     1.0  0.66736  0.51055  0.31250  1.0000
  H   H3082     1.0  0.66092  0.85946  0.00302  1.0000
  H   H3083     1.0  0.67584  0.76418  0.16574  1.0000
  H   H3084     1.0  0.64862  0.74058  0.00931  1.0000
  H   H3085     1.0  0.70049  0.72450  0.06004  1.0000
  C   C1823     1.0  0.70309  0.75650  0.05044  1.0000
  H   H3086     1.0  0.55362  0.91131  0.08280  1.0000
  H   H3087     1.0  0.56741  0.90626  0.08290  1.0000
  C   C1824     1.0  0.70410  0.73477  0.04519  1.0000
  C   C1825     1.0  0.65274  0.68507  0.00989  1.0000
  H   H3088     1.0  0.70858  0.76589  0.03844  1.0000
  C   C1826     1.0  0.52761  0.86915  0.24812  1.0000
  H   H3089     1.0  0.67059  0.80230  0.15714  1.0000
  H   H3090     1.0  0.66804  0.77533  0.13516  1.0000
  H   H3091     1.0  0.66760  0.74034  0.15360  1.0000
  H   H3092     1.0  0.67331  0.72751  0.17597  1.0000
  H   H3093     1.0  0.65050  0.63976  0.17055  1.0000
  H   H3094     1.0  0.54073  0.86210  0.20918  1.0000
  H   H3095     1.0  0.68389  0.75453  0.03971  1.0000
  H   H3096     1.0  0.60839  0.93182  0.17044  1.0000
  H   H3097     1.0  0.53117  0.81503  0.26485  1.0000
  C   C1827     1.0  0.66763  0.76187  0.17364  1.0000
  C   C1828     1.0  0.66673  0.74032  0.17043  1.0000
  H   H3098     1.0  0.66719  0.75950  0.19081  1.0000
  H   H3099     1.0  0.65603  0.79940  0.20197  1.0000
  H   H3100     1.0  0.68112  0.75063  0.00599  1.0000
  C   C1829     1.0  0.50360  0.96653  0.20115  1.0000
  H   H3101     1.0  0.61430  0.86361  0.17690  1.0000
  Fe  Fe253     1.0  0.70799  0.53839  0.26560  1.0000
  C   C1830     1.0  0.53767  0.82242  0.25368  1.0000
  C   C1831     1.0  0.66267  0.80079  0.16782  1.0000
  H   H3102     1.0  0.67039  0.78944  0.19504  1.0000
  C   C1832     1.0  0.59386  0.91805  0.13059  1.0000
  N   N130      1.0  0.53838  0.86125  0.25383  1.0000
  H   H3103     1.0  0.67238  0.73861  0.02855  1.0000
  N   N131      1.0  0.65951  0.78132  0.16612  1.0000
  C   C1833     1.0  0.65985  0.78217  0.14329  1.0000
  C   C1834     1.0  0.66345  0.80141  0.19000  1.0000
  H   H3104     1.0  0.65471  0.77207  0.14216  1.0000
  H   H3105     1.0  0.65916  0.73569  0.17976  1.0000
  Fe  Fe254     1.0  0.52972  0.93457  0.24913  1.0000
  C   C1835     1.0  0.59119  0.93991  0.17620  1.0000
  H   H3106     1.0  0.60308  0.94149  0.14760  1.0000
  Fe  Fe255     1.0  0.53691  0.96540  0.20833  1.0000
  H   H3107     1.0  0.70530  0.75372  0.06583  1.0000
  H   H3108     1.0  0.60826  0.89742  0.19179  1.0000
  H   H3109     1.0  0.62076  0.89493  0.15827  1.0000
  C   C1836     1.0  0.54071  0.83764  0.26372  1.0000
  H   H3110     1.0  0.54934  0.83183  0.26385  1.0000
  C   C1837     1.0  0.65692  0.80442  0.12896  1.0000
  H   H3111     1.0  0.65707  0.81580  0.16239  1.0000
  H   H3112     1.0  0.66477  0.81737  0.18945  1.0000
  H   H3113     1.0  0.65639  0.80220  0.11363  1.0000
  H   H3114     1.0  0.66324  0.81352  0.12561  1.0000
  H   H3115     1.0  0.70389  0.69233  0.05024  1.0000
  H   H3116     1.0  0.62107  0.92933  0.13397  1.0000
  H   H3117     1.0  0.54459  0.80896  0.25084  1.0000
  H   H3118     1.0  0.71590  0.99365  0.26633  1.0000
  H   H3119     1.0  0.63215  0.79414  0.18892  1.0000
  C   C1838     1.0  0.60602  0.86925  0.18531  1.0000
  H   H3120     1.0  0.61490  0.88593  0.14258  1.0000
  H   H3121     1.0  0.63679  0.75296  0.02497  1.0000
  C   C1839     1.0  0.72397  0.91570  0.99594  1.0000
  H   H3122     1.0  0.71441  0.77087  0.99454  1.0000
  H   H3123     1.0  0.49014  0.98434  0.16103  1.0000
  C   C1840     1.0  0.73551  0.91110  0.99874  1.0000
  C   C1841     1.0  0.50294  0.98152  0.27746  1.0000
  H   H3124     1.0  0.73120  0.87301  0.20321  1.0000
  C   C1842     1.0  0.73499  0.52817  0.30426  1.0000
  H   H3125     1.0  0.73157  0.50441  0.22389  1.0000
  S   S516      1.0  0.73620  0.92777  0.14704  1.0000
  H   H3126     1.0  0.73495  0.86448  0.23765  1.0000
  H   H3127     1.0  0.62131  0.75507  0.99083  1.0000
  H   H3128     1.0  0.73610  0.82128  0.18571  1.0000
  N   N132      1.0  0.73566  0.95061  0.31704  1.0000
  H   H3129     1.0  0.49952  0.98266  0.22789  1.0000
  H   H3130     1.0  0.73671  0.97096  0.28534  1.0000
  C   C1843     1.0  0.70936  0.90145  0.99399  1.0000
  H   H3131     1.0  0.72123  0.98614  0.30063  1.0000
  H   H3132     1.0  0.52199  0.98431  0.31397  1.0000
  H   H3133     1.0  0.69910  0.51577  0.31340  1.0000
  H   H3134     1.0  0.50710  0.98183  0.13840  1.0000
  H   H3135     1.0  0.71175  0.97002  0.31657  1.0000
  C   C1844     1.0  0.71329  0.75412  0.99909  1.0000
  H   H3136     1.0  0.69783  0.75427  0.99607  1.0000
  C   C1845     1.0  0.62997  0.78636  0.99767  1.0000
  C   C1846     1.0  0.73188  0.51777  0.18387  1.0000
  H   H3137     1.0  0.73440  0.86958  0.16567  1.0000
  C   C1847     1.0  0.71772  0.97866  0.31680  1.0000
  H   H3138     1.0  0.48888  0.99070  0.31594  1.0000
  H   H3139     1.0  0.73309  0.84492  0.21347  1.0000
  H   H3140     1.0  0.72438  0.52144  0.19571  1.0000
  S   S517      1.0  0.70172  0.50070  0.21611  1.0000
  N   N133      1.0  0.50584  0.98772  0.31144  1.0000
  H   H3141     1.0  0.73405  0.50029  0.18462  1.0000
  S   S518      1.0  0.66631  0.65436  0.98885  1.0000
  C   C1848     1.0  0.68663  0.52021  0.34120  1.0000
  H   H3142     1.0  0.51766  0.90403  0.47166  1.0000
  S   S519      1.0  0.50004  0.90361  0.36400  1.0000
  H   H3143     1.0  0.50497  0.89922  0.47205  1.0000
  H   H3144     1.0  0.71353  0.99237  0.32452  1.0000
  H   H3145     1.0  0.48901  0.92418  0.47219  1.0000
  N   N134      1.0  0.50399  0.93699  0.43314  1.0000
  H   H3146     1.0  0.66599  0.54408  0.34685  1.0000
  S   S520      1.0  0.53805  0.97546  0.36025  1.0000
  H   H3147     1.0  0.52154  0.95624  0.34733  1.0000
  H   H3148     1.0  0.50069  0.92357  0.39781  1.0000
  C   C1849     1.0  0.49526  0.98358  0.32501  1.0000
  H   H3149     1.0  0.71935  0.97660  0.43229  1.0000
  C   C1850     1.0  0.51182  0.96722  0.43637  1.0000
  C   C1851     1.0  0.50214  0.95694  0.44135  1.0000
  H   H3150     1.0  0.66002  0.52252  0.36444  1.0000
  H   H3151     1.0  0.55069  0.97383  0.41578  1.0000
  C   C1852     1.0  0.73685  0.53107  0.32259  1.0000
  H   H3152     1.0  0.55711  0.96832  0.38112  1.0000
  H   H3153     1.0  0.51377  0.90983  0.40273  1.0000
  H   H3154     1.0  0.51870  0.95585  0.44220  1.0000
  N   N135      1.0  0.68250  0.51056  0.36407  1.0000
  C   C1853     1.0  0.72855  0.54133  0.33657  1.0000
  H   H3155     1.0  0.51419  0.97416  0.41925  1.0000
  H   H3156     1.0  0.51646  0.94526  0.40571  1.0000
  C   C1854     1.0  0.69677  0.52089  0.37639  1.0000
  H   H3157     1.0  0.72114  0.50359  0.33748  1.0000
  C   C1855     1.0  0.50873  0.92559  0.39727  1.0000
  H   H3158     1.0  0.56415  0.97686  0.41027  1.0000
  H   H3159     1.0  0.70509  0.51346  0.37809  1.0000
  H   H3160     1.0  0.50627  0.92443  0.47533  1.0000
  H   H3161     1.0  0.68793  0.49682  0.39328  1.0000
  C   C1856     1.0  0.71970  0.99373  0.42904  1.0000
  H   H3162     1.0  0.72848  0.97381  0.33707  1.0000
  H   H3163     1.0  0.49573  0.96937  0.43490  1.0000
  H   H3164     1.0  0.72166  0.95343  0.34239  1.0000
  H   H3165     1.0  0.51234  0.99223  0.33568  1.0000
  H   H3166     1.0  0.50956  0.98086  0.44439  1.0000
  H   H3167     1.0  0.73691  0.61457  0.37457  1.0000
  H   H3168     1.0  0.52027  0.92262  0.43701  1.0000
  H   H3169     1.0  0.54396  0.94432  0.33403  1.0000
  H   H3170     1.0  0.51234  0.93110  0.38038  1.0000
  H   H3171     1.0  0.50333  0.95772  0.40223  1.0000
  C   C1857     1.0  0.49358  0.93019  0.43710  1.0000
  C   C1858     1.0  0.56671  0.97338  0.33821  1.0000
  H   H3172     1.0  0.73097  0.99372  0.39930  1.0000
  H   H3173     1.0  0.72882  0.56145  0.40080  1.0000
  C   C1859     1.0  0.50996  0.91140  0.46670  1.0000
  H   H3174     1.0  0.72730  0.49676  0.35931  1.0000
  H   H3175     1.0  0.67105  0.52125  0.39087  1.0000
  H   H3176     1.0  0.72149  0.61381  0.36321  1.0000
  C   C1860     1.0  0.55639  0.98385  0.40565  1.0000
  C   C1861     1.0  0.51635  0.95813  0.33634  1.0000
  H   H3177     1.0  0.50902  0.95271  0.34591  1.0000
  H   H3178     1.0  0.57300  0.94951  0.37304  1.0000
  C   C1862     1.0  0.50823  0.94247  0.40953  1.0000
  C   C1863     1.0  0.71842  0.54931  0.33174  1.0000
  H   H3179     1.0  0.67690  0.54157  0.37232  1.0000
  H   H3180     1.0  0.73131  0.53954  0.43491  1.0000
  C   C1864     1.0  0.66396  0.53548  0.36355  1.0000
  H   H3181     1.0  0.72014  0.58845  0.38002  1.0000
  C   C1865     1.0  0.51218  0.91900  0.44247  1.0000
  H   H3182     1.0  0.51317  0.90444  0.43646  1.0000
  H   H3183     1.0  0.52058  0.90565  0.33670  1.0000
  H   H3184     1.0  0.69747  0.53316  0.36152  1.0000
  C   C1866     1.0  0.69116  0.50342  0.37638  1.0000
  H   H3185     1.0  0.71199  0.55739  0.34247  1.0000
  C   C1867     1.0  0.54050  0.97823  0.33280  1.0000
  H   H3186     1.0  0.72625  0.61128  0.39672  1.0000
  C   C1868     1.0  0.73221  0.60271  0.38493  1.0000
  H   H3187     1.0  0.72497  0.57758  0.41994  1.0000
  H   H3188     1.0  0.57831  0.95115  0.39426  1.0000
  H   H3189     1.0  0.65799  0.54714  0.37223  1.0000
  H   H3190     1.0  0.73661  0.98347  0.42197  1.0000
  C   C1869     1.0  0.50414  0.90889  0.33636  1.0000
  C   C1870     1.0  0.67381  0.52723  0.37361  1.0000
  H   H3191     1.0  0.73145  0.59074  0.35793  1.0000
  C   C1871     1.0  0.72605  0.59832  0.37085  1.0000
  H   H3192     1.0  0.73281  0.93247  0.36281  1.0000
  H   H3193     1.0  0.49905  0.95435  0.45864  1.0000
  C   C1872     1.0  0.57855  0.95655  0.37705  1.0000
  C   C1873     1.0  0.72610  0.96391  0.32905  1.0000
  H   H3194     1.0  0.56129  0.96314  0.34894  1.0000
  S   S521      1.0  0.73069  0.54277  0.36068  1.0000
  H   H3195     1.0  0.69254  0.52903  0.38966  1.0000
  H   H3196     1.0  0.58315  0.98507  0.35581  1.0000
  C   C1874     1.0  0.54332  0.96017  0.32391  1.0000
  C   C1875     1.0  0.73203  0.56855  0.41025  1.0000
  H   H3197     1.0  0.48906  0.93981  0.42474  1.0000
  H   H3198     1.0  0.73702  0.91093  0.34851  1.0000
  H   H3199     1.0  0.49530  0.96613  0.32965  1.0000
  C   C1876     1.0  0.57691  0.98127  0.37024  1.0000
  H   H3200     1.0  0.49667  0.98390  0.35676  1.0000
  H   H3201     1.0  0.68777  0.53669  0.33908  1.0000
  H   H3202     1.0  0.49503  0.91323  0.43581  1.0000
  H   H3203     1.0  0.48856  0.91274  0.33088  1.0000
  C   C1877     1.0  0.69702  0.50718  0.33008  1.0000
  H   H3204     1.0  0.58669  0.94923  0.36919  1.0000
  C   C1878     1.0  0.51490  0.90887  0.32690  1.0000
  H   H3205     1.0  0.72631  0.92647  0.32414  1.0000
  H   H3206     1.0  0.70373  0.50589  0.33719  1.0000
  H   H3207     1.0  0.57512  0.96450  0.33681  1.0000
  H   H3208     1.0  0.68066  0.52244  0.33176  1.0000
  H   H3209     1.0  0.57885  0.98642  0.38287  1.0000
  C   C1879     1.0  0.55704  0.98463  0.38227  1.0000
  C   C1880     1.0  0.51421  0.98167  0.32430  1.0000
  C   C1881     1.0  0.49145  0.99226  0.34543  1.0000
  H   H3210     1.0  0.65082  0.52232  0.32554  1.0000
  C   C1882     1.0  0.65730  0.50838  0.32503  1.0000
  H   H3211     1.0  0.52071  0.94743  0.32525  1.0000
  N   N136      1.0  0.56605  0.99367  0.36657  1.0000
  C   C1883     1.0  0.49684  0.91292  0.32369  1.0000
  H   H3212     1.0  0.56491  0.97676  0.32233  1.0000
  C   C1884     1.0  0.49934  0.98693  0.65370  1.0000
  H   H3213     1.0  0.54927  0.99430  0.37870  1.0000
  C   C1885     1.0  0.56505  0.99482  0.34452  1.0000
  C   C1886     1.0  0.50872  0.99282  0.65356  1.0000
  Fe  Fe256     1.0  0.61161  0.83365  0.92763  1.0000
  C   C1887     1.0  0.71136  0.50402  0.85425  1.0000
  S   S522      1.0  0.62905  0.83145  0.91326  1.0000
  Fe  Fe257     1.0  0.58841  0.85295  0.92446  1.0000
  H   H3214     1.0  0.72910  0.50406  0.80717  1.0000
  S   S523      1.0  0.57609  0.87690  0.90752  1.0000
  C   C1888     1.0  0.49040  0.79111  0.72091  1.0000
  Fe  Fe258     1.0  0.59516  0.80706  0.94795  1.0000
  H   H3215     1.0  0.67659  0.71222  0.94122  1.0000
  S   S524      1.0  0.60039  0.86405  0.93431  1.0000
  S   S525      1.0  0.60018  0.82428  0.91450  1.0000
  Fe  Fe259     1.0  0.54260  0.87785  0.82979  1.0000
  S   S526      1.0  0.53090  0.90143  0.84785  1.0000
  S   S527      1.0  0.55705  0.85527  0.84126  1.0000
  Fe  Fe260     1.0  0.53093  0.89237  0.79318  1.0000
  S   S528      1.0  0.51854  0.91711  0.80834  1.0000
  S   S529      1.0  0.53048  0.89384  0.75962  1.0000
  Fe  Fe261     1.0  0.53209  0.92435  0.81644  1.0000
  S   S530      1.0  0.53251  0.95869  0.81199  1.0000
  Fe  Fe262     1.0  0.51845  0.89187  0.83812  1.0000
  S   S531      1.0  0.50338  0.88583  0.86155  1.0000
  S   S532      1.0  0.54466  0.90179  0.79882  1.0000
  S   S533      1.0  0.52994  0.86612  0.82246  1.0000
  S   S534      1.0  0.49811  0.86116  0.72934  1.0000
  H   H3216     1.0  0.70037  0.61477  0.76377  1.0000
  H   H3217     1.0  0.71869  0.82656  0.90850  1.0000
  H   H3218     1.0  0.71780  0.61158  0.74666  1.0000
  C   C1889     1.0  0.51400  0.95860  0.67638  1.0000
  H   H3219     1.0  0.65066  0.79267  0.98581  1.0000
  H   H3220     1.0  0.56533  0.94690  0.66691  1.0000
  H   H3221     1.0  0.62796  0.73237  0.94200  1.0000
  H   H3222     1.0  0.49527  0.92864  0.75019  1.0000
  H   H3223     1.0  0.66278  0.78516  0.83838  1.0000
  H   H3224     1.0  0.54774  0.93563  0.67505  1.0000
  H   H3225     1.0  0.64451  0.80084  0.89213  1.0000
  Fe  Fe263     1.0  0.67166  0.82925  0.97011  1.0000
  S   S535      1.0  0.73400  0.89955  0.94190  1.0000
  H   H3226     1.0  0.63313  0.72663  0.89207  1.0000
  Fe  Fe264     1.0  0.69292  0.83941  0.94532  1.0000
  S   S536      1.0  0.70242  0.80963  0.96241  1.0000
  S   S537      1.0  0.70051  0.86341  0.91906  1.0000
  Fe  Fe265     1.0  0.69052  0.79330  0.95929  1.0000
  S   S538      1.0  0.69475  0.75900  0.95630  1.0000
  C   C1890     1.0  0.73443  0.85342  0.88727  1.0000
  H   H3227     1.0  0.69621  0.63074  0.95406  1.0000
  S   S539      1.0  0.68204  0.82227  0.93936  1.0000
  S   S540      1.0  0.68185  0.84887  0.97462  1.0000
  Fe  Fe266     1.0  0.72510  0.54869  0.68490  1.0000
  H   H3228     1.0  0.66452  0.54518  0.72083  1.0000
  S   S541      1.0  0.70861  0.56870  0.68409  1.0000
  C   C1891     1.0  0.71292  0.86464  0.94481  1.0000
  H   H3229     1.0  0.49468  0.96370  0.72009  1.0000
  S   S542      1.0  0.58243  0.83496  0.95722  1.0000
  H   H3230     1.0  0.68630  0.57574  0.97534  1.0000
  Fe  Fe267     1.0  0.67507  0.55117  0.79700  1.0000
  S   S543      1.0  0.66264  0.53788  0.82362  1.0000
  S   S544      1.0  0.67156  0.57086  0.76587  1.0000
  Fe  Fe268     1.0  0.69216  0.53373  0.82192  1.0000
  S   S545      1.0  0.68160  0.51812  0.85055  1.0000
  C   C1892     1.0  0.52245  0.98056  0.87033  1.0000
  H   H3231     1.0  0.64526  0.79364  0.96445  1.0000
  Fe  Fe269     1.0  0.66967  0.54915  0.84443  1.0000
  S   S546      1.0  0.65940  0.56553  0.87095  1.0000
  S   S547      1.0  0.68746  0.52079  0.79941  1.0000
  S   S548      1.0  0.68075  0.56538  0.81720  1.0000
  C   C1893     1.0  0.73480  0.81942  0.91448  1.0000
  Fe  Fe270     1.0  0.64297  0.68665  0.93446  1.0000
  S   S549      1.0  0.65415  0.69309  0.90304  1.0000
  S   S550      1.0  0.62552  0.69208  0.93551  1.0000
  Fe  Fe271     1.0  0.66415  0.66097  0.91432  1.0000
  S   S551      1.0  0.67394  0.63946  0.89162  1.0000
  C   C1894     1.0  0.49269  0.90804  0.86375  1.0000
  C   C1895     1.0  0.54393  0.93383  0.69215  1.0000
  H   H3232     1.0  0.66523  0.77818  0.96178  1.0000
  H   H3233     1.0  0.57413  0.93311  0.70003  1.0000
  C   C1896     1.0  0.66393  0.58473  0.87798  1.0000
  C   C1897     1.0  0.65738  0.59546  0.89383  1.0000
  C   C1898     1.0  0.66030  0.61229  0.89826  1.0000
  C   C1899     1.0  0.66987  0.61835  0.88698  1.0000
  C   C1900     1.0  0.67655  0.60722  0.87160  1.0000
  C   C1901     1.0  0.67360  0.59049  0.86711  1.0000
  H   H3234     1.0  0.64989  0.59104  0.90239  1.0000
  H   H3235     1.0  0.65513  0.62068  0.91024  1.0000
  H   H3236     1.0  0.68401  0.61169  0.86294  1.0000
  H   H3237     1.0  0.67877  0.58226  0.85505  1.0000
  C   C1902     1.0  0.69844  0.56808  0.70701  1.0000
  C   C1903     1.0  0.69978  0.55335  0.72588  1.0000
  C   C1904     1.0  0.69160  0.55407  0.74413  1.0000
  C   C1905     1.0  0.68199  0.56923  0.74343  1.0000
  C   C1906     1.0  0.68058  0.58345  0.72436  1.0000
  C   C1907     1.0  0.68878  0.58294  0.70626  1.0000
  H   H3238     1.0  0.70712  0.54146  0.72638  1.0000
  H   H3239     1.0  0.69278  0.54303  0.75868  1.0000
  H   H3240     1.0  0.67316  0.59510  0.72362  1.0000
  H   H3241     1.0  0.68767  0.59424  0.69164  1.0000
  C   C1908     1.0  0.68681  0.75331  0.94264  1.0000
  C   C1909     1.0  0.68455  0.73289  0.94796  1.0000
  C   C1910     1.0  0.64168  0.77692  0.92082  1.0000
  C   C1911     1.0  0.67458  0.74336  0.92035  1.0000
  C   C1912     1.0  0.67677  0.76383  0.91513  1.0000
  C   C1913     1.0  0.68281  0.76885  0.92637  1.0000
  H   H3242     1.0  0.61926  0.77660  0.89548  1.0000
  H   H3243     1.0  0.72972  0.86081  0.90077  1.0000
  H   H3244     1.0  0.67388  0.77577  0.90228  1.0000
  H   H3245     1.0  0.68462  0.78455  0.92204  1.0000
  H   H3246     1.0  0.72968  0.55739  0.73809  1.0000
  H   H3247     1.0  0.50300  0.93740  0.68579  1.0000
  C   C1914     1.0  0.48912  0.92838  0.76512  1.0000
  C   C1915     1.0  0.70929  0.87416  0.92614  1.0000
  C   C1916     1.0  0.71316  0.89173  0.91239  1.0000
  H   H3248     1.0  0.71039  0.89910  0.89790  1.0000
  H   H3249     1.0  0.53677  0.94715  0.69278  1.0000
  H   H3250     1.0  0.66209  0.75420  0.97980  1.0000
  H   H3251     1.0  0.70189  0.51890  0.70323  1.0000
  C   C1917     1.0  0.50452  0.95289  0.67690  1.0000
  N   N137      1.0  0.55133  0.93573  0.70446  1.0000
  H   H3252     1.0  0.50352  0.98913  0.75542  1.0000
  H   H3253     1.0  0.62252  0.79732  0.90373  1.0000
  H   H3254     1.0  0.72463  0.92012  0.97850  1.0000
  C   C1918     1.0  0.72050  0.87250  0.94957  1.0000
  H   H3255     1.0  0.54707  0.97033  0.69680  1.0000
  H   H3256     1.0  0.50378  0.86988  0.79958  1.0000
  H   H3257     1.0  0.72081  0.59138  0.77885  1.0000
  H   H3258     1.0  0.68774  0.56343  0.93408  1.0000
  H   H3259     1.0  0.49772  0.89629  0.77503  1.0000
  H   H3260     1.0  0.70114  0.57962  0.75395  1.0000
  H   H3261     1.0  0.50986  0.97124  0.73830  1.0000
  H   H3262     1.0  0.49863  0.92786  0.83406  1.0000
  C   C1919     1.0  0.53852  0.96807  0.78576  1.0000
  C   C1920     1.0  0.54931  0.96014  0.77799  1.0000
  C   C1921     1.0  0.55426  0.96902  0.75745  1.0000
  N   N138      1.0  0.68391  0.49869  0.73049  1.0000
  H   H3263     1.0  0.51976  0.94728  0.68473  1.0000
  H   H3264     1.0  0.62734  0.79590  0.98286  1.0000
  H   H3265     1.0  0.55391  0.94757  0.78804  1.0000
  C   C1922     1.0  0.49318  0.90991  0.78256  1.0000
  C   C1923     1.0  0.67419  0.60155  0.94279  1.0000
  H   H3266     1.0  0.68486  0.53199  0.71931  1.0000
  C   C1924     1.0  0.52062  0.88537  0.75320  1.0000
  C   C1925     1.0  0.51577  0.89833  0.73670  1.0000
  C   C1926     1.0  0.50874  0.89111  0.72959  1.0000
  C   C1927     1.0  0.50660  0.87074  0.73874  1.0000
  C   C1928     1.0  0.51140  0.85777  0.75532  1.0000
  C   C1929     1.0  0.51836  0.86511  0.76262  1.0000
  H   H3267     1.0  0.51755  0.91393  0.72916  1.0000
  H   H3268     1.0  0.50531  0.90102  0.71647  1.0000
  H   H3269     1.0  0.50983  0.84193  0.76238  1.0000
  H   H3270     1.0  0.52226  0.85482  0.77502  1.0000
  C   C1930     1.0  0.57132  0.87153  0.88799  1.0000
  C   C1931     1.0  0.57714  0.85582  0.87658  1.0000
  C   C1932     1.0  0.57286  0.85150  0.86170  1.0000
  C   C1933     1.0  0.56271  0.86272  0.85826  1.0000
  C   C1934     1.0  0.55703  0.87878  0.86932  1.0000
  C   C1935     1.0  0.56134  0.88322  0.88403  1.0000
  H   H3271     1.0  0.58497  0.84716  0.87912  1.0000
  H   H3272     1.0  0.57741  0.83937  0.85288  1.0000
  H   H3273     1.0  0.54925  0.88759  0.86681  1.0000
  H   H3274     1.0  0.55685  0.89555  0.89265  1.0000
  C   C1936     1.0  0.60109  0.75270  0.94937  1.0000
  C   C1937     1.0  0.59801  0.73495  0.94760  1.0000
  C   C1938     1.0  0.60563  0.71668  0.94323  1.0000
  C   C1939     1.0  0.61644  0.71567  0.94110  1.0000
  C   C1940     1.0  0.61963  0.73327  0.94321  1.0000
  Fe  Fe272     1.0  0.66062  0.66957  0.95847  1.0000
  H   H3275     1.0  0.49498  0.89682  0.82326  1.0000
  H   H3276     1.0  0.60313  0.70311  0.94175  1.0000
  C   C1941     1.0  0.65142  0.77011  0.86400  1.0000
  H   H3277     1.0  0.67764  0.63185  0.95578  1.0000
  C   C1942     1.0  0.63586  0.83420  0.93098  1.0000
  C   C1943     1.0  0.63026  0.84035  0.94996  1.0000
  C   C1944     1.0  0.63579  0.84189  0.96422  1.0000
  C   C1945     1.0  0.64695  0.83710  0.95972  1.0000
  C   C1946     1.0  0.65254  0.83103  0.94070  1.0000
  C   C1947     1.0  0.64701  0.82968  0.92634  1.0000
  H   H3278     1.0  0.62165  0.84424  0.95357  1.0000
  H   H3279     1.0  0.63289  0.78053  0.92530  1.0000
  H   H3280     1.0  0.66111  0.82721  0.93704  1.0000
  H   H3281     1.0  0.65141  0.82495  0.91169  1.0000
  C   C1948     1.0  0.56102  0.91764  0.70279  1.0000
  C   C1949     1.0  0.65906  0.76841  0.96819  1.0000
  H   H3282     1.0  0.66722  0.50182  0.70839  1.0000
  H   H3283     1.0  0.64307  0.73401  0.86940  1.0000
  C   C1950     1.0  0.68914  0.55968  0.95019  1.0000
  C   C1951     1.0  0.54835  0.98550  0.74460  1.0000
  H   H3284     1.0  0.66840  0.57953  0.97252  1.0000
  H   H3285     1.0  0.70379  0.51304  0.86133  1.0000
  H   H3286     1.0  0.56803  0.92204  0.72698  1.0000
  C   C1952     1.0  0.53259  0.98431  0.77280  1.0000
  H   H3287     1.0  0.53222  0.94680  0.74998  1.0000
  C   C1953     1.0  0.49230  0.92677  0.84793  1.0000
  H   H3288     1.0  0.56269  0.96329  0.75164  1.0000
  H   H3289     1.0  0.55419  0.79102  0.96061  1.0000
  H   H3290     1.0  0.64992  0.80238  0.84308  1.0000
  H   H3291     1.0  0.65883  0.59278  0.95646  1.0000
  C   C1954     1.0  0.62226  0.79161  0.89004  1.0000
  H   H3292     1.0  0.50759  0.96397  0.82308  1.0000
  C   C1955     1.0  0.71298  0.60405  0.72203  1.0000
  H   H3293     1.0  0.51817  0.94930  0.85168  1.0000
  H   H3294     1.0  0.69601  0.92415  0.98244  1.0000
  H   H3295     1.0  0.62971  0.75072  0.87330  1.0000
  Fe  Fe273     1.0  0.59532  0.84377  0.96619  1.0000
  H   H3296     1.0  0.64448  0.78629  0.92869  1.0000
  C   C1956     1.0  0.56012  0.96141  0.67207  1.0000
  Fe  Fe274     1.0  0.66225  0.70594  0.92031  1.0000
  C   C1957     1.0  0.63308  0.78937  0.87434  1.0000
  H   H3297     1.0  0.50782  0.94244  0.89844  1.0000
  H   H3298     1.0  0.52674  0.96432  0.86791  1.0000
  C   C1958     1.0  0.65589  0.79005  0.85099  1.0000
  H   H3299     1.0  0.70393  0.56554  0.77875  1.0000
  C   C1959     1.0  0.69536  0.59721  0.90977  1.0000
  H   H3300     1.0  0.49057  0.94957  0.89255  1.0000
  C   C1960     1.0  0.49738  0.86736  0.81383  1.0000
  H   H3301     1.0  0.71163  0.53476  0.76550  1.0000
  C   C1961     1.0  0.67948  0.52144  0.72040  1.0000
  H   H3302     1.0  0.49278  0.85632  0.81276  1.0000
  H   H3303     1.0  0.68294  0.55144  0.96137  1.0000
  H   H3304     1.0  0.52423  0.99019  0.77877  1.0000
  C   C1962     1.0  0.53474  0.94806  0.73263  1.0000
  H   H3305     1.0  0.48998  0.97524  0.85905  1.0000
  H   H3306     1.0  0.56546  0.97251  0.66952  1.0000
  H   H3307     1.0  0.55430  0.96873  0.66173  1.0000
  N   N139      1.0  0.50566  0.97472  0.86273  1.0000
  H   H3308     1.0  0.64558  0.74379  0.97651  1.0000
  H   H3309     1.0  0.72786  0.59492  0.73158  1.0000
  C   C1963     1.0  0.70540  0.57973  0.76587  1.0000
  H   H3310     1.0  0.52890  0.94207  0.72812  1.0000
  C   C1964     1.0  0.66846  0.53196  0.73217  1.0000
  C   C1965     1.0  0.72666  0.85423  0.87363  1.0000
  C   C1966     1.0  0.70330  0.50301  0.71415  1.0000
  H   H3311     1.0  0.69957  0.61044  0.93064  1.0000
  H   H3312     1.0  0.62213  0.63661  0.83240  1.0000
  H   H3313     1.0  0.56085  0.82212  0.94837  1.0000
  N   N140      1.0  0.64233  0.77378  0.88262  1.0000
  H   H3314     1.0  0.71526  0.61858  0.71077  1.0000
  C   C1967     1.0  0.50821  0.98751  0.84037  1.0000
  H   H3315     1.0  0.68853  0.59500  0.90498  1.0000
  C   C1968     1.0  0.51618  0.97856  0.66466  1.0000
  C   C1969     1.0  0.71930  0.59740  0.73969  1.0000
  H   H3316     1.0  0.52075  0.93107  0.88415  1.0000
  S   S552      1.0  0.65366  0.83751  0.97872  1.0000
  S   S553      1.0  0.52895  0.98376  0.66124  1.0000
  S   S554      1.0  0.60745  0.81399  0.96030  1.0000
  C   C1970     1.0  0.50235  0.98293  0.74271  1.0000
  H   H3317     1.0  0.50143  0.85913  0.82716  1.0000
  C   C1971     1.0  0.51210  0.93614  0.88419  1.0000
  H   H3318     1.0  0.50523  0.94472  0.85686  1.0000
  C   C1972     1.0  0.61195  0.75200  0.94701  1.0000
  H   H3319     1.0  0.49830  0.78005  0.71794  1.0000
  H   H3320     1.0  0.71486  0.59163  0.71267  1.0000
  C   C1973     1.0  0.69196  0.60973  0.92748  1.0000
  H   H3321     1.0  0.49189  0.80379  0.72671  1.0000
  C   C1974     1.0  0.49720  0.96692  0.66529  1.0000
  H   H3322     1.0  0.68848  0.51154  0.75221  1.0000
  H   H3323     1.0  0.70080  0.58159  0.91408  1.0000
  H   H3324     1.0  0.63191  0.78507  0.86045  1.0000
  C   C1975     1.0  0.64606  0.78305  0.89680  1.0000
  S   S555      1.0  0.67331  0.67459  0.92891  1.0000
  C   C1976     1.0  0.49368  0.97919  0.86986  1.0000
  C   C1977     1.0  0.71585  0.51057  0.83284  1.0000
  H   H3325     1.0  0.67725  0.60994  0.97780  1.0000
  H   H3326     1.0  0.58966  0.73530  0.94959  1.0000
  H   H3327     1.0  0.69848  0.57804  0.95674  1.0000
  H   H3328     1.0  0.53392  0.91370  0.69056  1.0000
  H   H3329     1.0  0.49929  0.91495  0.78739  1.0000
  C   C1978     1.0  0.63832  0.75634  0.98036  1.0000
  H   H3330     1.0  0.53430  0.96523  0.72517  1.0000
  H   H3331     1.0  0.54687  0.89910  0.69439  1.0000
  C   C1979     1.0  0.51021  0.98320  0.87610  1.0000
  H   H3332     1.0  0.63138  0.84682  0.97877  1.0000
  H   H3333     1.0  0.69105  0.59947  0.78088  1.0000
  H   H3334     1.0  0.63648  0.76596  0.96495  1.0000
  H   H3335     1.0  0.49430  0.84590  0.66833  1.0000
  H   H3336     1.0  0.72257  0.53452  0.77645  1.0000
  H   H3337     1.0  0.68826  0.62657  0.92074  1.0000
  C   C1980     1.0  0.48902  0.96698  0.89193  1.0000
  H   H3338     1.0  0.65819  0.75754  0.86928  1.0000
  H   H3339     1.0  0.52500  0.99257  0.85600  1.0000
  H   H3340     1.0  0.54577  0.91760  0.73594  1.0000
  H   H3341     1.0  0.65885  0.79727  0.86062  1.0000
  H   H3342     1.0  0.73213  0.98545  0.78572  1.0000
  H   H3343     1.0  0.69768  0.60494  0.97263  1.0000
  C   C1981     1.0  0.72268  0.57586  0.77394  1.0000
  H   H3344     1.0  0.67508  0.59160  0.93145  1.0000
  H   H3345     1.0  0.63307  0.75399  0.90814  1.0000
  C   C1982     1.0  0.72124  0.55861  0.74676  1.0000
  H   H3346     1.0  0.66925  0.53848  0.74500  1.0000
  H   H3347     1.0  0.73131  0.82895  0.92693  1.0000
  C   C1983     1.0  0.67832  0.72799  0.93701  1.0000
  S   S556      1.0  0.66723  0.73723  0.90578  1.0000
  N   N141      1.0  0.56458  0.80274  0.91230  1.0000
  C   C1984     1.0  0.56355  0.80150  0.89092  1.0000
  C   C1985     1.0  0.57626  0.80036  0.91115  1.0000
  C   C1986     1.0  0.55836  0.82443  0.91648  1.0000
  C   C1987     1.0  0.56003  0.78500  0.92851  1.0000
  C   C1988     1.0  0.55214  0.80790  0.88692  1.0000
  C   C1989     1.0  0.58355  0.77881  0.90711  1.0000
  C   C1990     1.0  0.56136  0.83295  0.93263  1.0000
  C   C1991     1.0  0.56121  0.78156  0.95138  1.0000
  H   H3348     1.0  0.56825  0.81194  0.87805  1.0000
  H   H3349     1.0  0.56690  0.78503  0.88805  1.0000
  H   H3350     1.0  0.57774  0.80253  0.92569  1.0000
  H   H3351     1.0  0.57940  0.81327  0.89852  1.0000
  H   H3352     1.0  0.55926  0.83697  0.90167  1.0000
  H   H3353     1.0  0.54967  0.82474  0.92165  1.0000
  H   H3354     1.0  0.55134  0.78775  0.92952  1.0000
  H   H3355     1.0  0.56328  0.76936  0.92362  1.0000
  H   H3356     1.0  0.54855  0.82512  0.88664  1.0000
  H   H3357     1.0  0.55252  0.80561  0.87100  1.0000
  H   H3358     1.0  0.54681  0.79789  0.89845  1.0000
  H   H3359     1.0  0.58378  0.77621  0.89146  1.0000
  H   H3360     1.0  0.59183  0.77890  0.90724  1.0000
  H   H3361     1.0  0.58129  0.76514  0.91979  1.0000
  H   H3362     1.0  0.72347  0.86461  0.96369  1.0000
  C   C1992     1.0  0.69204  0.61997  0.96753  1.0000
  H   H3363     1.0  0.68760  0.72084  0.96058  1.0000
  H   H3364     1.0  0.70260  0.59905  0.78946  1.0000
  H   H3365     1.0  0.56852  0.78532  0.95264  1.0000
  H   H3366     1.0  0.56187  0.76433  0.95911  1.0000
  N   N142      1.0  0.71714  0.57788  0.75659  1.0000
  C   C1993     1.0  0.57043  0.91980  0.71050  1.0000
  C   C1994     1.0  0.64853  0.78238  0.97790  1.0000
  H   H3367     1.0  0.64651  0.74134  0.90026  1.0000
  S   S557      1.0  0.65233  0.65325  0.94467  1.0000
  H   H3368     1.0  0.64484  0.75975  0.92723  1.0000
  H   H3369     1.0  0.57669  0.90484  0.71020  1.0000
  H   H3370     1.0  0.67931  0.52322  0.70359  1.0000
  C   C1995     1.0  0.63961  0.75239  0.89406  1.0000
  H   H3371     1.0  0.71969  0.56452  0.78849  1.0000
  H   H3372     1.0  0.72378  0.91304  0.90639  1.0000
  C   C1996     1.0  0.49465  0.84021  0.68522  1.0000
  S   S558      1.0  0.72930  0.51675  0.70606  1.0000
  C   C1997     1.0  0.50456  0.98114  0.82355  1.0000
  H   H3373     1.0  0.50947  0.92115  0.88591  1.0000
  C   C1998     1.0  0.72442  0.89002  0.93579  1.0000
  C   C1999     1.0  0.71995  0.53682  0.76169  1.0000
  H   H3374     1.0  0.55892  0.90214  0.71218  1.0000
  H   H3375     1.0  0.71001  0.85100  0.95542  1.0000
  H   H3376     1.0  0.49581  0.98550  0.82542  1.0000
  S   S559      1.0  0.70936  0.53333  0.81728  1.0000
  C   C2000     1.0  0.54026  0.91247  0.69883  1.0000
  H   H3377     1.0  0.63470  0.80579  0.86845  1.0000
  H   H3378     1.0  0.61436  0.76562  0.94859  1.0000
  H   H3379     1.0  0.50067  0.82505  0.68765  1.0000
  C   C2001     1.0  0.72078  0.89955  0.91713  1.0000
  C   C2002     1.0  0.51029  0.95127  0.86288  1.0000
  H   H3380     1.0  0.72523  0.83871  0.87355  1.0000
  C   C2003     1.0  0.55430  0.95720  0.69554  1.0000
  H   H3381     1.0  0.55579  0.84845  0.93467  1.0000
  S   S560      1.0  0.59098  0.77499  0.95510  1.0000
  H   H3382     1.0  0.61631  0.80386  0.88195  1.0000
  C   C2004     1.0  0.54611  0.93439  0.72756  1.0000
  H   H3383     1.0  0.51691  0.98620  0.83456  1.0000
  H   H3384     1.0  0.73245  0.99048  0.75829  1.0000
  H   H3385     1.0  0.72526  0.52367  0.75417  1.0000
  H   H3386     1.0  0.69676  0.54758  0.95019  1.0000
  H   H3387     1.0  0.66294  0.52091  0.73903  1.0000
  N   N143      1.0  0.68466  0.60094  0.94756  1.0000
  H   H3388     1.0  0.56403  0.91516  0.68636  1.0000
  H   H3389     1.0  0.55911  0.96025  0.70503  1.0000
  H   H3390     1.0  0.64904  0.76400  0.85261  1.0000
  C   C2005     1.0  0.63620  0.74057  0.88115  1.0000
  H   H3391     1.0  0.66203  0.60752  0.97137  1.0000
  S   S561      1.0  0.65020  0.70225  0.95090  1.0000
  H   H3392     1.0  0.55095  0.93927  0.73569  1.0000
  N   N144      1.0  0.64459  0.61735  0.83160  1.0000
  C   C2006     1.0  0.65581  0.61972  0.82921  1.0000
  C   C2007     1.0  0.64540  0.59735  0.82425  1.0000
  C   C2008     1.0  0.63907  0.61517  0.85471  1.0000
  C   C2009     1.0  0.63900  0.63715  0.81836  1.0000
  C   C2010     1.0  0.65689  0.63760  0.83857  1.0000
  C   C2011     1.0  0.65125  0.59693  0.80118  1.0000
  C   C2012     1.0  0.63065  0.60120  0.86344  1.0000
  C   C2013     1.0  0.62774  0.63711  0.81686  1.0000
  H   H3393     1.0  0.66066  0.60442  0.83656  1.0000
  H   H3394     1.0  0.65994  0.62312  0.81230  1.0000
  H   H3395     1.0  0.63745  0.59424  0.82592  1.0000
  H   H3396     1.0  0.64956  0.58307  0.83440  1.0000
  H   H3397     1.0  0.64493  0.60767  0.86492  1.0000
  H   H3398     1.0  0.63532  0.63117  0.85862  1.0000
  H   H3399     1.0  0.63815  0.65154  0.82453  1.0000
  H   H3400     1.0  0.64383  0.64034  0.80196  1.0000
  H   H3401     1.0  0.65339  0.65378  0.83025  1.0000
  H   H3402     1.0  0.65344  0.63554  0.85576  1.0000
  H   H3403     1.0  0.66550  0.63699  0.83655  1.0000
  H   H3404     1.0  0.64763  0.61044  0.78971  1.0000
  H   H3405     1.0  0.65986  0.59642  0.79863  1.0000
  H   H3406     1.0  0.65073  0.58200  0.79751  1.0000
  H   H3407     1.0  0.62452  0.60541  0.85401  1.0000
  H   H3408     1.0  0.62650  0.60318  0.87972  1.0000
  H   H3409     1.0  0.63452  0.58394  0.86469  1.0000
  H   H3410     1.0  0.62767  0.62389  0.80989  1.0000
  H   H3411     1.0  0.62467  0.65229  0.80627  1.0000
  H   H3412     1.0  0.65486  0.77814  0.89502  1.0000
  H   H3413     1.0  0.53690  0.90844  0.71593  1.0000
  C   C2014     1.0  0.69968  0.59953  0.77543  1.0000
  H   H3414     1.0  0.49327  0.79809  0.68682  1.0000
  H   H3415     1.0  0.68919  0.62846  0.98079  1.0000
  H   H3416     1.0  0.70425  0.60829  0.72810  1.0000
  H   H3417     1.0  0.65813  0.76303  0.95474  1.0000
  H   H3418     1.0  0.50804  0.97579  0.89306  1.0000
  H   H3419     1.0  0.62990  0.73168  0.98290  1.0000
  H   H3420     1.0  0.69987  0.60656  0.89549  1.0000
  H   H3421     1.0  0.67081  0.61803  0.93472  1.0000
  C   C2015     1.0  0.73492  0.56872  0.76865  1.0000
  C   C2016     1.0  0.68232  0.61592  0.96231  1.0000
  H   H3422     1.0  0.71707  0.56032  0.73416  1.0000
  H   H3423     1.0  0.49602  0.97376  0.74916  1.0000
  H   H3424     1.0  0.72941  0.86253  0.85707  1.0000
  H   H3425     1.0  0.50785  0.99028  0.80774  1.0000
  H   H3426     1.0  0.52508  0.98341  0.88337  1.0000
  H   H3427     1.0  0.56941  0.83651  0.92672  1.0000
  C   C2017     1.0  0.53749  0.99298  0.75220  1.0000
  C   C2018     1.0  0.68989  0.57890  0.95808  1.0000
  C   C2019     1.0  0.66547  0.59484  0.96208  1.0000
  H   H3428     1.0  0.70420  0.50502  0.72924  1.0000
  H   H3429     1.0  0.71588  0.74730  0.98473  1.0000
  H   H3430     1.0  0.72746  0.80296  0.89942  1.0000
  Fe  Fe275     1.0  0.67559  0.50821  0.82734  1.0000
  H   H3431     1.0  0.72202  0.80220  0.92666  1.0000
  C   C2020     1.0  0.72528  0.81257  0.91160  1.0000
  C   C2021     1.0  0.49006  0.88847  0.81875  1.0000
  H   H3432     1.0  0.71303  0.89944  0.97752  1.0000
  H   H3433     1.0  0.71875  0.86411  0.87946  1.0000
  H   H3434     1.0  0.49756  0.85237  0.68927  1.0000
  C   C2022     1.0  0.72568  0.49903  0.82374  1.0000
  H   H3435     1.0  0.49181  0.96995  0.90465  1.0000
  H   H3436     1.0  0.72175  0.50143  0.66276  1.0000
  H   H3437     1.0  0.67695  0.50104  0.76306  1.0000
  C   C2023     1.0  0.68495  0.49819  0.75232  1.0000
  H   H3438     1.0  0.48890  0.86772  0.78133  1.0000
  H   H3439     1.0  0.70559  0.93694  0.98475  1.0000
  S   S562      1.0  0.73502  0.53842  0.65518  1.0000
  H   H3440     1.0  0.48765  0.94405  0.76943  1.0000
  H   H3441     1.0  0.72890  0.87649  0.98710  1.0000
  H   H3442     1.0  0.91141  0.27007  0.06253  1.0000
  H   H3443     1.0  0.87986  0.26062  0.07229  1.0000
  H   H3444     1.0  0.89353  0.24788  0.04769  1.0000
  Fe  Fe276     1.0  0.79820  0.03882  0.19834  1.0000
  S   S563      1.0  0.80428  0.01941  0.22710  1.0000
  S   S564      1.0  0.78141  0.03914  0.19836  1.0000
  Fe  Fe277     1.0  0.81799  0.05780  0.17843  1.0000
  S   S565      1.0  0.82585  0.03971  0.20547  1.0000
  S   S566      1.0  0.82344  0.08320  0.15019  1.0000
  H   H3445     1.0  0.73834  0.01558  0.15851  1.0000
  Fe  Fe278     1.0  0.80971  0.04870  0.22604  1.0000
  S   S567      1.0  0.80770  0.06200  0.25437  1.0000
  S   S568      1.0  0.81319  0.02907  0.17516  1.0000
  S   S569      1.0  0.80225  0.06896  0.19932  1.0000
  Fe  Fe279     1.0  0.86208  0.15802  0.11853  1.0000
  S   S570      1.0  0.84699  0.17645  0.10807  1.0000
  S   S571      1.0  0.86392  0.12270  0.13414  1.0000
  Fe  Fe280     1.0  0.87162  0.19823  0.10796  1.0000
  S   S572      1.0  0.85688  0.21908  0.09735  1.0000
  S   S573      1.0  0.88483  0.21686  0.10043  1.0000
  Fe  Fe281     1.0  0.84771  0.19988  0.12565  1.0000
  S   S574      1.0  0.83289  0.21093  0.14903  1.0000
  Fe  Fe282     1.0  0.85761  0.19367  0.08061  1.0000
  S   S575      1.0  0.85585  0.20683  0.04664  1.0000
  S   S576      1.0  0.86228  0.18077  0.13773  1.0000
  S   S577      1.0  0.87284  0.17353  0.08964  1.0000
  Fe  Fe283     1.0  0.83524  0.35424  0.07776  1.0000
  S   S578      1.0  0.81765  0.36097  0.09127  1.0000
  S   S579      1.0  0.84301  0.35561  0.04350  1.0000
  Fe  Fe284     1.0  0.84069  0.33726  0.12071  1.0000
  S   S580      1.0  0.82363  0.34211  0.13805  1.0000
  S   S581      1.0  0.85382  0.31883  0.13735  1.0000
  Fe  Fe285     1.0  0.82091  0.32916  0.11323  1.0000
  S   S582      1.0  0.80952  0.30721  0.12258  1.0000
  Fe  Fe286     1.0  0.82184  0.37363  0.11486  1.0000
  S   S583      1.0  0.81115  0.40349  0.12466  1.0000
  S   S584      1.0  0.83817  0.32129  0.09790  1.0000
  S   S585      1.0  0.83927  0.36984  0.09925  1.0000
  H   H3446     1.0  0.76965  0.08019  0.20604  1.0000
  S   S586      1.0  0.76973  0.43743  0.21952  1.0000
  S   S587      1.0  0.75150  0.02815  0.30383  1.0000
  C   C2024     1.0  0.87671  0.25803  0.05982  1.0000
  S   S588      1.0  0.77598  0.41686  0.26606  1.0000
  H   H3447     1.0  0.84376  0.14725  0.03666  1.0000
  Fe  Fe287     1.0  0.76650  0.44729  0.25024  1.0000
  H   H3448     1.0  0.83266  0.29154  0.00276  1.0000
  Fe  Fe288     1.0  0.77798  0.40583  0.23634  1.0000
  S   S589      1.0  0.79376  0.38597  0.22316  1.0000
  C   C2025     1.0  0.91685  0.31154  0.02157  1.0000
  H   H3449     1.0  0.88666  0.26690  0.02912  1.0000
  Fe  Fe289     1.0  0.92314  0.31834  0.09861  1.0000
  S   S590      1.0  0.92970  0.29140  0.12324  1.0000
  S   S591      1.0  0.92975  0.32401  0.06350  1.0000
  Fe  Fe290     1.0  0.90503  0.33724  0.13058  1.0000
  S   S592      1.0  0.91005  0.31189  0.15793  1.0000
  S   S593      1.0  0.89048  0.36391  0.13194  1.0000
  Fe  Fe291     1.0  0.92669  0.31700  0.14187  1.0000
  S   S594      1.0  0.93941  0.31773  0.15878  1.0000
  Fe  Fe292     1.0  0.91253  0.28882  0.13689  1.0000
  S   S595      1.0  0.90629  0.25775  0.14949  1.0000
  S   S596      1.0  0.92130  0.34392  0.11599  1.0000
  S   S597      1.0  0.90637  0.31411  0.11085  1.0000
  H   H3450     1.0  0.91145  0.38428  0.26594  1.0000
  H   H3451     1.0  0.87348  0.10690  0.01587  1.0000
  C   C2026     1.0  0.94711  0.48566  0.24464  1.0000
  S   S598      1.0  0.95957  0.42477  0.20498  1.0000
  H   H3452     1.0  0.75868  0.12637  0.23052  1.0000
  H   H3453     1.0  0.93937  0.34542  0.99078  1.0000
  H   H3454     1.0  0.91108  0.22822  0.99908  1.0000
  Fe  Fe293     1.0  0.96374  0.40375  0.23493  1.0000
  S   S599      1.0  0.95075  0.39986  0.26414  1.0000
  C   C2027     1.0  0.95789  0.30028  0.09516  1.0000
  C   C2028     1.0  0.77923  0.10903  0.22092  1.0000
  C   C2029     1.0  0.81785  0.37303  0.00419  1.0000
  C   C2030     1.0  0.95191  0.44451  0.29403  1.0000
  C   C2031     1.0  0.95464  0.43076  0.27985  1.0000
  C   C2032     1.0  0.94795  0.41716  0.28144  1.0000
  C   C2033     1.0  0.93869  0.41710  0.29734  1.0000
  C   C2034     1.0  0.77817  0.34125  0.16942  1.0000
  H   H3455     1.0  0.95704  0.45505  0.29277  1.0000
  H   H3456     1.0  0.96191  0.43060  0.26782  1.0000
  H   H3457     1.0  0.83682  0.26034  0.04472  1.0000
  H   H3458     1.0  0.95402  0.47191  0.21597  1.0000
  H   H3459     1.0  0.80560  0.17675  0.21035  1.0000
  C   C2035     1.0  0.76849  0.49457  0.30537  1.0000
  C   C2036     1.0  0.90567  0.22623  0.01495  1.0000
  H   H3460     1.0  0.78980  0.00656  0.28006  1.0000
  H   H3461     1.0  0.75643  0.11220  0.25737  1.0000
  C   C2037     1.0  0.94460  0.33854  0.16189  1.0000
  C   C2038     1.0  0.94069  0.36027  0.15399  1.0000
  C   C2039     1.0  0.94535  0.37604  0.15612  1.0000
  C   C2040     1.0  0.95386  0.37047  0.16648  1.0000
  C   C2041     1.0  0.95773  0.34874  0.17453  1.0000
  C   C2042     1.0  0.95316  0.33294  0.17213  1.0000
  H   H3462     1.0  0.93407  0.36496  0.14624  1.0000
  H   H3463     1.0  0.94230  0.39275  0.14975  1.0000
  H   H3464     1.0  0.96433  0.34408  0.18235  1.0000
  H   H3465     1.0  0.95631  0.31620  0.17822  1.0000
  C   C2043     1.0  0.92195  0.32107  0.03103  1.0000
  C   C2044     1.0  0.92322  0.31226  0.05182  1.0000
  C   C2045     1.0  0.91927  0.29403  0.06320  1.0000
  H   H3466     1.0  0.92482  0.33542  0.02234  1.0000
  H   H3467     1.0  0.92026  0.28706  0.07923  1.0000
  H   H3468     1.0  0.75978  0.01574  0.12606  1.0000
  C   C2046     1.0  0.78817  0.36992  0.12743  1.0000
  H   H3469     1.0  0.80885  0.14857  0.22214  1.0000
  H   H3470     1.0  0.80429  0.15822  0.19763  1.0000
  C   C2047     1.0  0.78371  0.99988  0.16018  1.0000
  N   N145      1.0  0.76264  0.09177  0.23477  1.0000
  C   C2048     1.0  0.86331  0.33248  0.13743  1.0000
  C   C2049     1.0  0.86193  0.35475  0.13064  1.0000
  C   C2050     1.0  0.87015  0.36473  0.12952  1.0000
  C   C2051     1.0  0.87970  0.35236  0.13508  1.0000
  C   C2052     1.0  0.88088  0.33025  0.14235  1.0000
  C   C2053     1.0  0.87271  0.32041  0.14360  1.0000
  H   H3471     1.0  0.85461  0.36424  0.12618  1.0000
  H   H3472     1.0  0.86920  0.38189  0.12400  1.0000
  H   H3473     1.0  0.88813  0.32063  0.14706  1.0000
  H   H3474     1.0  0.87383  0.30332  0.14895  1.0000
  C   C2054     1.0  0.80731  0.40105  0.15217  1.0000
  C   C2055     1.0  0.79792  0.41425  0.16083  1.0000
  C   C2056     1.0  0.79390  0.41038  0.18278  1.0000
  C   C2057     1.0  0.79938  0.39357  0.19611  1.0000
  C   C2058     1.0  0.80917  0.38142  0.18752  1.0000
  C   C2059     1.0  0.81310  0.38507  0.16559  1.0000
  H   H3475     1.0  0.79348  0.42680  0.15052  1.0000
  H   H3476     1.0  0.78639  0.41992  0.18920  1.0000
  H   H3477     1.0  0.81355  0.36864  0.19778  1.0000
  H   H3478     1.0  0.82060  0.37547  0.15910  1.0000
  H   H3479     1.0  0.80604  0.01502  0.27139  1.0000
  C   C2060     1.0  0.81584  0.38155  0.02205  1.0000
  C   C2061     1.0  0.82359  0.37642  0.03407  1.0000
  C   C2062     1.0  0.83338  0.36279  0.02824  1.0000
  C   C2063     1.0  0.83549  0.35467  0.01013  1.0000
  H   H3480     1.0  0.86311  0.26030  0.01060  1.0000
  H   H3481     1.0  0.80825  0.39206  0.02666  1.0000
  H   H3482     1.0  0.82201  0.38328  0.04768  1.0000
  H   H3483     1.0  0.84308  0.34420  0.00559  1.0000
  H   H3484     1.0  0.74172  0.39578  0.28078  1.0000
  C   C2064     1.0  0.89101  0.22733  0.11447  1.0000
  C   C2065     1.0  0.89124  0.21896  0.13582  1.0000
  C   C2066     1.0  0.89607  0.22825  0.14621  1.0000
  C   C2067     1.0  0.90065  0.24609  0.13550  1.0000
  C   C2068     1.0  0.90063  0.25408  0.11404  1.0000
  C   C2069     1.0  0.89598  0.24456  0.10358  1.0000
  H   H3485     1.0  0.88780  0.20524  0.14425  1.0000
  H   H3486     1.0  0.89624  0.22165  0.16269  1.0000
  H   H3487     1.0  0.90432  0.26746  0.10546  1.0000
  H   H3488     1.0  0.89618  0.25078  0.08692  1.0000
  C   C2070     1.0  0.82630  0.23747  0.14107  1.0000
  C   C2071     1.0  0.83159  0.25174  0.12510  1.0000
  C   C2072     1.0  0.82654  0.27328  0.11985  1.0000
  C   C2073     1.0  0.81600  0.28044  0.12980  1.0000
  C   C2074     1.0  0.81056  0.26604  0.14537  1.0000
  C   C2075     1.0  0.81578  0.24463  0.15129  1.0000
  H   H3489     1.0  0.83961  0.24630  0.11701  1.0000
  H   H3490     1.0  0.83073  0.28419  0.10769  1.0000
  H   H3491     1.0  0.80239  0.27151  0.15309  1.0000
  H   H3492     1.0  0.81166  0.23362  0.16366  1.0000
  C   C2076     1.0  0.85155  0.20207  0.01106  1.0000
  C   C2077     1.0  0.85184  0.19293  0.03234  1.0000
  C   C2078     1.0  0.84902  0.17312  0.04153  1.0000
  H   H3493     1.0  0.78447  0.38866  0.16668  1.0000
  H   H3494     1.0  0.85367  0.21743  0.00384  1.0000
  H   H3495     1.0  0.84915  0.16598  0.05796  1.0000
  H   H3496     1.0  0.81938  0.09503  0.20951  1.0000
  C   C2079     1.0  0.83534  0.09231  0.14501  1.0000
  C   C2080     1.0  0.84278  0.08355  0.15784  1.0000
  C   C2081     1.0  0.85176  0.09243  0.15389  1.0000
  C   C2082     1.0  0.85332  0.11018  0.13722  1.0000
  C   C2083     1.0  0.84603  0.11846  0.12406  1.0000
  C   C2084     1.0  0.83713  0.10951  0.12789  1.0000
  H   H3497     1.0  0.84154  0.07015  0.17094  1.0000
  H   H3498     1.0  0.85739  0.08584  0.16407  1.0000
  H   H3499     1.0  0.84724  0.13178  0.11090  1.0000
  H   H3500     1.0  0.83149  0.11618  0.11771  1.0000
  C   C2085     1.0  0.94077  0.37017  0.07844  1.0000
  H   H3501     1.0  0.84057  0.26489  0.00650  1.0000
  C   C2086     1.0  0.79227  0.07759  0.28550  1.0000
  C   C2087     1.0  0.79500  0.06436  0.27110  1.0000
  C   C2088     1.0  0.78769  0.05297  0.27069  1.0000
  C   C2089     1.0  0.77768  0.05483  0.28477  1.0000
  H   H3502     1.0  0.82835  0.27078  0.07755  1.0000
  H   H3503     1.0  0.79792  0.08628  0.28603  1.0000
  H   H3504     1.0  0.78979  0.04269  0.25962  1.0000
  H   H3505     1.0  0.77215  0.04563  0.28487  1.0000
  H   H3506     1.0  0.75097  0.00614  0.16539  1.0000
  C   C2090     1.0  0.77969  0.01905  0.18819  1.0000
  H   H3507     1.0  0.88879  0.16816  0.00516  1.0000
  N   N146      1.0  0.88013  0.33221  0.06363  1.0000
  C   C2091     1.0  0.87979  0.30878  0.07159  1.0000
  C   C2092     1.0  0.87709  0.33929  0.04243  1.0000
  C   C2093     1.0  0.87212  0.34443  0.07924  1.0000
  C   C2094     1.0  0.89126  0.33430  0.06227  1.0000
  C   C2095     1.0  0.88106  0.29894  0.09456  1.0000
  C   C2096     1.0  0.88456  0.32791  0.02499  1.0000
  C   C2097     1.0  0.86769  0.36842  0.07095  1.0000
  C   C2098     1.0  0.89392  0.35653  0.05248  1.0000
  H   H3508     1.0  0.87211  0.30603  0.07056  1.0000
  H   H3509     1.0  0.88621  0.29875  0.06170  1.0000
  H   H3510     1.0  0.87658  0.35666  0.03587  1.0000
  H   H3511     1.0  0.86889  0.33706  0.04415  1.0000
  H   H3512     1.0  0.86495  0.33726  0.08604  1.0000
  H   H3513     1.0  0.87554  0.34327  0.09292  1.0000
  H   H3514     1.0  0.89300  0.32991  0.07828  1.0000
  H   H3515     1.0  0.89738  0.32248  0.05403  1.0000
  H   H3516     1.0  0.87462  0.30672  0.10610  1.0000
  H   H3517     1.0  0.88053  0.28190  0.09851  1.0000
  H   H3518     1.0  0.88891  0.29924  0.09683  1.0000
  H   H3519     1.0  0.89288  0.32967  0.02206  1.0000
  H   H3520     1.0  0.88434  0.31072  0.02848  1.0000
  H   H3521     1.0  0.88185  0.33536  0.00994  1.0000
  H   H3522     1.0  0.86211  0.37061  0.06062  1.0000
  H   H3523     1.0  0.87397  0.37747  0.06253  1.0000
  H   H3524     1.0  0.86303  0.37575  0.08456  1.0000
  H   H3525     1.0  0.89170  0.36631  0.06462  1.0000
  H   H3526     1.0  0.89028  0.36546  0.03890  1.0000
  C   C2099     1.0  0.74237  0.04116  0.17959  1.0000
  H   H3527     1.0  0.93943  0.26714  0.00115  1.0000
  H   H3528     1.0  0.77357  0.04685  0.24506  1.0000
  H   H3529     1.0  0.76330  0.04850  0.23167  1.0000
  H   H3530     1.0  0.74794  0.02911  0.18885  1.0000
  H   H3531     1.0  0.79516  0.31141  0.18915  1.0000
  H   H3532     1.0  0.76354  0.02881  0.15118  1.0000
  H   H3533     1.0  0.82460  0.01511  0.25607  1.0000
  H   H3534     1.0  0.84386  0.27894  0.07251  1.0000
  C   C2100     1.0  0.84855  0.19144  0.99898  1.0000
  H   H3535     1.0  0.88012  0.19247  0.03863  1.0000
  H   H3536     1.0  0.78657  0.34461  0.20076  1.0000
  H   H3537     1.0  0.73978  0.10429  0.25147  1.0000
  C   C2101     1.0  0.83781  0.27966  0.01291  1.0000
  C   C2102     1.0  0.73727  0.39061  0.29657  1.0000
  S   S600      1.0  0.98411  0.40831  0.18152  1.0000
  S   S601      1.0  0.96645  0.47839  0.31388  1.0000
  H   H3538     1.0  0.77305  0.41559  0.31060  1.0000
  C   C2103     1.0  0.77480  0.06890  0.29848  1.0000
  H   H3539     1.0  0.93653  0.35861  0.07715  1.0000
  H   H3540     1.0  0.95156  0.37415  0.09400  1.0000
  H   H3541     1.0  0.93866  0.48463  0.24709  1.0000
  S   S602      1.0  0.97696  0.46864  0.19162  1.0000
  H   H3542     1.0  0.78568  0.38744  0.12669  1.0000
  H   H3543     1.0  0.81541  0.25639  0.07378  1.0000
  Fe  Fe294     1.0  0.76062  0.40572  0.27644  1.0000
  H   H3544     1.0  0.87027  0.27338  0.02011  1.0000
  C   C2104     1.0  0.81271  0.32669  0.04844  1.0000
  C   C2105     1.0  0.74389  0.11700  0.24112  1.0000
  H   H3545     1.0  0.74226  0.05678  0.18266  1.0000
  H   H3546     1.0  0.74568  0.47998  0.20759  1.0000
  C   C2106     1.0  0.81184  0.00154  0.27870  1.0000
  H   H3547     1.0  0.77135  0.35092  0.16209  1.0000
  H   H3548     1.0  0.85016  0.27434  0.04618  1.0000
  H   H3549     1.0  0.77383  0.38399  0.15910  1.0000
  N   N147      1.0  0.85926  0.24928  0.15923  1.0000
  C   C2107     1.0  0.86867  0.25960  0.15443  1.0000
  C   C2108     1.0  0.85780  0.24776  0.13833  1.0000
  C   C2109     1.0  0.86208  0.22698  0.17232  1.0000
  C   C2110     1.0  0.84970  0.26273  0.17115  1.0000
  C   C2111     1.0  0.87296  0.25951  0.17348  1.0000
  C   C2112     1.0  0.85547  0.26928  0.12252  1.0000
  C   C2113     1.0  0.85364  0.21328  0.17900  1.0000
  C   C2114     1.0  0.83855  0.26049  0.17063  1.0000
  H   H3550     1.0  0.87545  0.25212  0.14316  1.0000
  H   H3551     1.0  0.86670  0.27663  0.14623  1.0000
  H   H3552     1.0  0.85136  0.23952  0.14026  1.0000
  H   H3553     1.0  0.86507  0.23759  0.13030  1.0000
  H   H3554     1.0  0.86955  0.21776  0.16383  1.0000
  H   H3555     1.0  0.86367  0.22748  0.18747  1.0000
  H   H3556     1.0  0.85016  0.25960  0.18798  1.0000
  H   H3557     1.0  0.84976  0.28003  0.16488  1.0000
  H   H3558     1.0  0.86663  0.26667  0.18566  1.0000
  H   H3559     1.0  0.87704  0.24323  0.18048  1.0000
  H   H3560     1.0  0.87919  0.26916  0.16799  1.0000
  H   H3561     1.0  0.84851  0.28068  0.12942  1.0000
  H   H3562     1.0  0.86245  0.27682  0.11653  1.0000
  H   H3563     1.0  0.85368  0.26640  0.10856  1.0000
  H   H3564     1.0  0.84663  0.21967  0.19058  1.0000
  H   H3565     1.0  0.85712  0.19690  0.18706  1.0000
  H   H3566     1.0  0.85111  0.21135  0.16550  1.0000
  H   H3567     1.0  0.83325  0.26072  0.18650  1.0000
  H   H3568     1.0  0.83834  0.24573  0.16648  1.0000
  H   H3569     1.0  0.83476  0.27458  0.15980  1.0000
  C   C2115     1.0  0.83166  0.27410  0.03598  1.0000
  N   N148      1.0  0.95612  0.34065  0.09203  1.0000
  C   C2116     1.0  0.96233  0.33487  0.10917  1.0000
  C   C2117     1.0  0.95056  0.32263  0.09567  1.0000
  C   C2118     1.0  0.94783  0.36087  0.09480  1.0000
  C   C2119     1.0  0.96373  0.34391  0.07081  1.0000
  C   C2120     1.0  0.96754  0.35230  0.11063  1.0000
  C   C2121     1.0  0.74653  0.01862  0.15423  1.0000
  C   C2122     1.0  0.96027  0.34111  0.05178  1.0000
  C   C2123     1.0  0.78355  0.46561  0.29803  1.0000
  H   H3570     1.0  0.96891  0.32058  0.10726  1.0000
  H   H3571     1.0  0.94548  0.32566  0.08431  1.0000
  C   C2124     1.0  0.75047  0.45297  0.30806  1.0000
  S   S603      1.0  0.80791  0.37933  0.98972  1.0000
  H   H3572     1.0  0.79300  0.02118  0.16165  1.0000
  H   H3573     1.0  0.96556  0.36012  0.06669  1.0000
  H   H3574     1.0  0.97150  0.33235  0.07157  1.0000
  C   C2125     1.0  0.78814  0.99810  0.29683  1.0000
  H   H3575     1.0  0.97313  0.34501  0.12147  1.0000
  H   H3576     1.0  0.97217  0.35936  0.09515  1.0000
  C   C2126     1.0  0.83650  0.30222  0.04724  1.0000
  C   C2127     1.0  0.82227  0.00947  0.27347  1.0000
  C   C2128     1.0  0.81972  0.30950  0.03611  1.0000
  S   S604      1.0  0.84257  0.15712  0.99302  1.0000
  C   C2129     1.0  0.75273  0.08534  0.20946  1.0000
  H   H3577     1.0  0.95162  0.34329  0.05342  1.0000
  H   H3578     1.0  0.96295  0.35314  0.03756  1.0000
  N   N149      1.0  0.82596  0.14452  0.18080  1.0000
  C   C2130     1.0  0.83693  0.14845  0.16957  1.0000
  C   C2131     1.0  0.81982  0.14785  0.16405  1.0000
  C   C2132     1.0  0.82719  0.12162  0.19329  1.0000
  C   C2133     1.0  0.82099  0.16011  0.19515  1.0000
  C   C2134     1.0  0.84538  0.14169  0.18317  1.0000
  C   C2135     1.0  0.81819  0.17044  0.14969  1.0000
  C   C2136     1.0  0.81756  0.11101  0.19889  1.0000
  C   C2137     1.0  0.80931  0.16059  0.20695  1.0000
  H   H3579     1.0  0.84025  0.14007  0.15632  1.0000
  H   H3580     1.0  0.83663  0.16566  0.16214  1.0000
  H   H3581     1.0  0.81180  0.14429  0.17079  1.0000
  H   H3582     1.0  0.82387  0.13625  0.15364  1.0000
  H   H3583     1.0  0.83378  0.11097  0.18439  1.0000
  H   H3584     1.0  0.82953  0.12008  0.20834  1.0000
  H   H3585     1.0  0.82553  0.15666  0.20767  1.0000
  H   H3586     1.0  0.82170  0.17678  0.18670  1.0000
  H   H3587     1.0  0.84306  0.15020  0.19627  1.0000
  H   H3588     1.0  0.84729  0.12412  0.18932  1.0000
  H   H3589     1.0  0.85293  0.14590  0.17302  1.0000
  H   H3590     1.0  0.82582  0.17415  0.13960  1.0000
  H   H3591     1.0  0.81316  0.17114  0.13880  1.0000
  H   H3592     1.0  0.81405  0.18306  0.15879  1.0000
  H   H3593     1.0  0.81614  0.10801  0.18461  1.0000
  H   H3594     1.0  0.81018  0.12021  0.20724  1.0000
  H   H3595     1.0  0.95719  0.33013  0.12494  1.0000
  C   C2138     1.0  0.84595  0.16256  0.02945  1.0000
  H   H3596     1.0  0.96472  0.30048  0.08143  1.0000
  H   H3597     1.0  0.87852  0.19162  0.00150  1.0000
  C   C2139     1.0  0.91430  0.28436  0.05370  1.0000
  H   H3598     1.0  0.95805  0.34029  0.23787  1.0000
  C   C2140     1.0  0.94251  0.44454  0.30972  1.0000
  H   H3599     1.0  0.76307  0.10751  0.20203  1.0000
  H   H3600     1.0  0.92836  0.35399  0.25779  1.0000
  H   H3601     1.0  0.77464  0.33511  0.18630  1.0000
  H   H3602     1.0  0.76608  0.01346  0.21276  1.0000
  H   H3603     1.0  0.78771  0.10518  0.22213  1.0000
  H   H3604     1.0  0.77563  0.12457  0.22569  1.0000
  S   S605      1.0  0.95949  0.39126  0.16826  1.0000
  H   H3605     1.0  0.93747  0.39534  0.19741  1.0000
  C   C2141     1.0  0.88801  0.19314  0.04045  1.0000
  C   C2142     1.0  0.91315  0.29298  0.03284  1.0000
  H   H3606     1.0  0.90758  0.20907  0.02273  1.0000
  H   H3607     1.0  0.77927  0.11058  0.20413  1.0000
  H   H3608     1.0  0.82390  0.31825  0.02089  1.0000
  C   C2143     1.0  0.77919  0.37722  0.17044  1.0000
  H   H3609     1.0  0.75527  0.06998  0.20414  1.0000
  C   C2144     1.0  0.77394  0.09079  0.23571  1.0000
  H   H3610     1.0  0.77936  0.07582  0.23167  1.0000
  H   H3611     1.0  0.84422  0.39616  0.00624  1.0000
  H   H3612     1.0  0.91124  0.36501  0.25183  1.0000
  H   H3613     1.0  0.87196  0.24568  0.06759  1.0000
  H   H3614     1.0  0.80810  0.28126  0.06092  1.0000
  H   H3615     1.0  0.91246  0.39211  0.23853  1.0000
  H   H3616     1.0  0.82494  0.26750  0.03553  1.0000
  C   C2145     1.0  0.88612  0.25202  0.04159  1.0000
  H   H3617     1.0  0.88077  0.21351  0.06238  1.0000
  C   C2146     1.0  0.94952  0.34245  0.23780  1.0000
  C   C2147     1.0  0.78049  0.41185  0.31634  1.0000
  C   C2148     1.0  0.91490  0.37839  0.25107  1.0000
  C   C2149     1.0  0.88734  0.21342  0.04812  1.0000
  C   C2150     1.0  0.76246  0.09156  0.21259  1.0000
  Fe  Fe295     1.0  0.98666  0.38921  0.21371  1.0000
  H   H3618     1.0  0.94490  0.32125  0.11133  1.0000
  S   S606      1.0  0.90689  0.28024  0.02162  1.0000
  C   C2151     1.0  0.84585  0.17150  0.00803  1.0000
  H   H3619     1.0  0.87143  0.27350  0.05432  1.0000
  H   H3620     1.0  0.84500  0.28559  0.01157  1.0000
  H   H3621     1.0  0.77681  0.37737  0.20406  1.0000
  H   H3622     1.0  0.92381  0.39954  0.20913  1.0000
  H   H3623     1.0  0.93076  0.34118  0.22770  1.0000
  H   H3624     1.0  0.75777  0.48311  0.21125  1.0000
  C   C2152     1.0  0.92232  0.36368  0.20496  1.0000
  C   C2153     1.0  0.89404  0.23369  0.01222  1.0000
  H   H3625     1.0  0.89348  0.24981  0.00167  1.0000
  H   H3626     1.0  0.92389  0.37605  0.19027  1.0000
  Fe  Fe296     1.0  0.75493  0.42441  0.23369  1.0000
  H   H3627     1.0  0.82132  0.02333  0.28043  1.0000
  S   S607      1.0  0.76340  0.39179  0.24818  1.0000
  C   C2154     1.0  0.75695  0.48751  0.17877  1.0000
  H   H3628     1.0  0.96084  0.29338  0.10999  1.0000
  S   S608      1.0  0.97218  0.37506  0.22083  1.0000
  H   H3629     1.0  0.77436  0.09056  0.25203  1.0000
  H   H3630     1.0  0.76170  0.03807  0.25915  1.0000
  N   N150      1.0  0.88557  0.23428  0.03226  1.0000
  H   H3631     1.0  0.74614  0.08373  0.22346  1.0000
  H   H3632     1.0  0.89284  0.22349  0.00285  1.0000
  H   H3633     1.0  0.92145  0.34978  0.19994  1.0000
  C   C2155     1.0  0.78027  0.46529  0.28009  1.0000
  H   H3634     1.0  0.89466  0.21113  0.05403  1.0000
  H   H3635     1.0  0.94921  0.33121  0.22863  1.0000
  C   C2156     1.0  0.82772  0.35965  0.99819  1.0000
  H   H3636     1.0  0.88947  0.10827  0.02359  1.0000
  Fe  Fe297     1.0  0.81971  0.01185  0.20418  1.0000
  H   H3637     1.0  0.85759  0.39098  0.00881  1.0000
  H   H3638     1.0  0.80700  0.31996  0.06240  1.0000
  H   H3639     1.0  0.95085  0.32701  0.99799  1.0000
  H   H3640     1.0  0.93882  0.35195  0.20365  1.0000
  C   C2157     1.0  0.92706  0.37081  0.24861  1.0000
  C   C2158     1.0  0.78218  0.08004  0.29895  1.0000
  C   C2159     1.0  0.78279  0.32188  0.15867  1.0000
  H   H3641     1.0  0.91581  0.31850  0.00560  1.0000
  H   H3642     1.0  0.93452  0.38385  0.08343  1.0000
  Fe  Fe298     1.0  0.96866  0.39659  0.19019  1.0000
  H   H3643     1.0  0.92972  0.37941  0.25763  1.0000
  H   H3644     1.0  0.92614  0.41432  0.23707  1.0000
  H   H3645     1.0  0.91465  0.36952  0.21519  1.0000
  H   H3646     1.0  0.95322  0.28927  0.09412  1.0000
  H   H3647     1.0  0.93154  0.42787  0.21108  1.0000
  C   C2160     1.0  0.76489  0.05055  0.24614  1.0000
  C   C2161     1.0  0.87486  0.23789  0.02709  1.0000
  C   C2162     1.0  0.87108  0.25973  0.01300  1.0000
  H   H3648     1.0  0.87639  0.26184  0.99718  1.0000
  H   H3649     1.0  0.85100  0.41800  0.99990  1.0000
  H   H3650     1.0  0.92880  0.28685  0.99037  1.0000
  H   H3651     1.0  0.74906  0.46551  0.29383  1.0000
  C   C2163     1.0  0.98592  0.47296  0.25147  1.0000
  C   C2164     1.0  0.93177  0.39457  0.21304  1.0000
  C   C2165     1.0  0.93253  0.41240  0.22277  1.0000
  N   N151      1.0  0.74636  0.04069  0.15647  1.0000
  N   N152      1.0  0.93367  0.37215  0.22643  1.0000
  C   C2166     1.0  0.93176  0.35644  0.21610  1.0000
  C   C2167     1.0  0.75583  0.11213  0.24120  1.0000
  S   S609      1.0  0.74356  0.42772  0.21342  1.0000
  H   H3652     1.0  0.76012  0.07298  0.26676  1.0000
  C   C2168     1.0  0.75918  0.07283  0.25093  1.0000
  H   H3653     1.0  0.96807  0.28875  0.00372  1.0000
  H   H3654     1.0  0.94542  0.37666  0.06271  1.0000
  H   H3655     1.0  0.76705  0.36654  0.19845  1.0000
  H   H3656     1.0  0.87483  0.22558  0.01879  1.0000
  H   H3657     1.0  0.82898  0.99655  0.27818  1.0000
  C   C2169     1.0  0.88885  0.12575  0.01715  1.0000
  C   C2170     1.0  0.73910  0.05669  0.14312  1.0000
  N   N153      1.0  0.82759  0.29237  0.04727  1.0000
  H   H3658     1.0  0.96935  0.39314  0.30243  1.0000
  N   N154      1.0  0.78569  0.35525  0.16768  1.0000
  H   H3659     1.0  0.85203  0.29607  0.05444  1.0000
  C   C2171     1.0  0.77202  0.37869  0.19249  1.0000
  C   C2172     1.0  0.79194  0.34642  0.18483  1.0000
  H   H3660     1.0  0.94034  0.40969  0.22669  1.0000
  H   H3661     1.0  0.94696  0.37578  0.23693  1.0000
  H   H3662     1.0  0.96238  0.46411  0.23491  1.0000
  C   C2173     1.0  0.82251  0.28379  0.06982  1.0000
  H   H3663     1.0  0.80792  0.33925  0.03801  1.0000
  H   H3664     1.0  0.94536  0.33788  0.25447  1.0000
  H   H3665     1.0  0.94246  0.35830  0.11073  1.0000
  H   H3666     1.0  0.79415  0.36776  0.11263  1.0000
  H   H3667     1.0  0.79066  0.45456  0.30208  1.0000
  H   H3668     1.0  0.79914  0.36747  0.14646  1.0000
  S   S610      1.0  0.76707  0.48011  0.25200  1.0000
  H   H3669     1.0  0.95094  0.45311  0.23990  1.0000
  S   S611      1.0  0.97836  0.41586  0.23057  1.0000
  C   C2174     1.0  0.94528  0.36607  0.22770  1.0000
  H   H3670     1.0  0.78118  0.32604  0.14257  1.0000
  C   C2175     1.0  0.74041  0.44436  0.32071  1.0000
  H   H3671     1.0  0.75171  0.48183  0.17226  1.0000
  H   H3672     1.0  0.86854  0.23591  0.04169  1.0000
  C   C2176     1.0  0.76845  0.99555  0.18897  1.0000
  H   H3673     1.0  0.79674  0.35785  0.18433  1.0000
  H   H3674     1.0  0.82025  0.29612  0.07952  1.0000
  H   H3675     1.0  0.78859  0.99637  0.14530  1.0000
  H   H3676     1.0  0.76146  0.05049  0.17590  1.0000
  H   H3677     1.0  0.74895  0.01764  0.22542  1.0000
  H   H3678     1.0  0.80435  0.32114  0.19677  1.0000
  H   H3679     1.0  0.74683  0.48298  0.24326  1.0000
  H   H3680     1.0  0.98555  0.44470  0.28728  1.0000
  H   H3681     1.0  0.95049  0.36949  0.21169  1.0000
  Fe  Fe299     1.0  0.97516  0.43434  0.19905  1.0000
  H   H3682     1.0  0.90265  0.35444  0.04595  1.0000
  C   C2177     1.0  0.77127  0.48002  0.27447  1.0000
  H   H3683     1.0  0.80729  0.27650  0.08837  1.0000
  H   H3684     1.0  0.83350  0.31463  0.05691  1.0000
  H   H3685     1.0  0.78129  0.36360  0.12762  1.0000
  H   H3686     1.0  0.75943  0.05081  0.13143  1.0000
  C   C2178     1.0  0.88323  0.17750  0.99478  1.0000
  H   H3687     1.0  0.76655  0.39473  0.19159  1.0000
  H   H3688     1.0  0.73901  0.43455  0.31127  1.0000
  C   C2179     1.0  0.74191  0.01202  0.23464  1.0000
  H   H3689     1.0  0.79785  0.02600  0.30317  1.0000
  H   H3690     1.0  0.77855  0.30882  0.16765  1.0000
  C   C2180     1.0  0.79959  0.32441  0.18464  1.0000
  C   C2181     1.0  0.84609  0.28669  0.05562  1.0000
  S   S612      1.0  0.75487  0.38973  0.31022  1.0000
  H   H3691     1.0  0.98165  0.47820  0.26643  1.0000
  C   C2182     1.0  0.79333  0.35824  0.14647  1.0000
  H   H3692     1.0  0.87065  0.16070  0.01015  1.0000
  H   H3693     1.0  0.78618  0.42006  0.30353  1.0000
  H   H3694     1.0  0.96155  0.36510  0.11771  1.0000
  H   H3695     1.0  0.79835  0.34290  0.14287  1.0000
  H   H3696     1.0  0.80540  0.32370  0.16944  1.0000
  H   H3697     1.0  0.89397  0.19163  0.02558  1.0000
  C   C2183     1.0  0.87545  0.16453  0.99393  1.0000
  C   C2184     1.0  0.75161  0.49036  0.20160  1.0000
  H   H3698     1.0  0.79135  0.31492  0.15786  1.0000
  H   H3699     1.0  0.94893  0.48057  0.26067  1.0000
  H   H3700     1.0  0.75060  0.07367  0.25346  1.0000
  H   H3701     1.0  0.88139  0.13415  0.02610  1.0000
  H   H3702     1.0  0.76904  0.06108  0.15095  1.0000
  H   H3703     1.0  0.98396  0.45783  0.25160  1.0000
  S   S613      1.0  0.75087  0.43715  0.26293  1.0000
  C   C2185     1.0  0.88990  0.13100  0.99290  1.0000
  H   H3704     1.0  0.93775  0.30825  0.99746  1.0000
  H   H3705     1.0  0.97282  0.42175  0.31423  1.0000
  H   H3706     1.0  0.95252  0.28142  0.00356  1.0000
  C   C2186     1.0  0.77750  0.47987  0.31098  1.0000
  H   H3707     1.0  0.74936  0.09756  0.19669  1.0000
  H   H3708     1.0  0.96437  0.32527  0.04793  1.0000
  C   C2187     1.0  0.86759  0.12128  0.01032  1.0000
  C   C2188     1.0  0.76092  0.05856  0.15938  1.0000
  H   H3709     1.0  0.75554  0.07447  0.15926  1.0000
  C   C2189     1.0  0.75142  0.01383  0.13198  1.0000
  H   H3710     1.0  0.78487  0.45405  0.27028  1.0000
  H   H3711     1.0  0.73988  0.13171  0.24735  1.0000
  C   C2190     1.0  0.81283  0.27389  0.07318  1.0000
  C   C2191     1.0  0.74201  0.38567  0.31384  1.0000
  C   C2192     1.0  0.75764  0.04426  0.14878  1.0000
  C   C2193     1.0  0.78625  0.01382  0.16944  1.0000
  H   H3712     1.0  0.86481  0.13177  0.02178  1.0000
  H   H3713     1.0  0.93354  0.40654  0.29874  1.0000
  H   H3714     1.0  0.90756  0.23590  0.02384  1.0000
  H   H3715     1.0  0.98274  0.48479  0.23829  1.0000
  C   C2194     1.0  0.77092  0.00967  0.19805  1.0000
  H   H3716     1.0  0.81430  0.30250  0.03137  1.0000
  H   H3717     1.0  0.81751  0.33474  0.05350  1.0000
  H   H3718     1.0  0.89049  0.17881  0.05254  1.0000
  C   C2195     1.0  0.96644  0.39382  0.31939  1.0000
  H   H3719     1.0  0.76420  0.47445  0.17920  1.0000
  Fe  Fe300     1.0  0.74905  0.05887  0.31374  1.0000
  H   H3720     1.0  0.83968  0.31097  0.03113  1.0000
  H   H3721     1.0  0.89551  0.12995  0.02088  1.0000
  H   H3722     1.0  0.74401  0.08673  0.13934  1.0000
  H   H3723     1.0  0.86052  0.11551  0.01037  1.0000
  C   C2196     1.0  0.95404  0.46797  0.23293  1.0000
  C   C2197     1.0  0.85188  0.40120  0.99894  1.0000
  H   H3724     1.0  0.75674  0.43962  0.30252  1.0000
  H   H3725     1.0  0.74260  0.12051  0.22488  1.0000
  H   H3726     1.0  0.78419  0.00973  0.30713  1.0000
  C   C2198     1.0  0.93598  0.43073  0.31137  1.0000
  H   H3727     1.0  0.75386  0.45906  0.31795  1.0000
  H   H3728     1.0  0.74249  0.05680  0.12607  1.0000
  H   H3729     1.0  0.74656  0.02364  0.12038  1.0000
  H   H3730     1.0  0.78004  0.09077  0.30967  1.0000
  H   H3731     1.0  0.80991  0.02025  0.31104  1.0000
  C   C2199     1.0  0.80322  0.01288  0.31200  1.0000
  H   H3732     1.0  0.78400  0.39447  0.31832  1.0000
  Fe  Fe301     1.0  0.73758  0.04499  0.28858  1.0000
  S   S614      1.0  0.73887  0.04401  0.25488  1.0000
  S   S615      1.0  0.76203  0.07380  0.31474  1.0000
  H   H3733     1.0  0.75161  0.99680  0.13283  1.0000
  H   H3734     1.0  0.98164  0.39737  0.32047  1.0000
  H   H3735     1.0  0.95796  0.40215  0.32139  1.0000
  C   C2200     1.0  0.76555  0.49498  0.28683  1.0000
  H   H3736     1.0  0.74260  0.43267  0.33500  1.0000
  H   H3737     1.0  0.77408  0.43724  0.33351  1.0000
  H   H3738     1.0  0.78813  0.38501  0.35538  1.0000
  C   C2201     1.0  0.75521  0.39456  0.37163  1.0000
  H   H3739     1.0  0.78026  0.42556  0.39363  1.0000
  C   C2202     1.0  0.96948  0.38721  0.36355  1.0000
  S   S616      1.0  0.76651  0.47159  0.39191  1.0000
  S   S617      1.0  0.97712  0.46931  0.36336  1.0000
  H   H3740     1.0  0.78659  0.42098  0.33781  1.0000
  C   C2203     1.0  0.77947  0.38489  0.36062  1.0000
  H   H3741     1.0  0.75382  0.39886  0.38702  1.0000
  C   C2204     1.0  0.97329  0.40571  0.32517  1.0000
  N   N155      1.0  0.77296  0.40753  0.35668  1.0000
  S   S618      1.0  0.78110  0.47861  0.33448  1.0000
  H   H3742     1.0  0.80247  0.01016  0.34551  1.0000
  H   H3743     1.0  0.78982  0.02031  0.33803  1.0000
  H   H3744     1.0  0.95553  0.41709  0.38564  1.0000
  H   H3745     1.0  0.75865  0.37718  0.37285  1.0000
  H   H3746     1.0  0.95336  0.41644  0.34899  1.0000
  H   H3747     1.0  0.76700  0.41147  0.38924  1.0000
  C   C2205     1.0  0.74388  0.01819  0.39646  1.0000
  H   H3748     1.0  0.97611  0.42099  0.36784  1.0000
  C   C2206     1.0  0.74015  0.03691  0.43361  1.0000
  H   H3749     1.0  0.78446  0.37163  0.39096  1.0000
  C   C2207     1.0  0.78197  0.42136  0.37802  1.0000
  H   H3750     1.0  0.96902  0.38907  0.37970  1.0000
  H   H3751     1.0  0.89614  0.48179  0.43679  1.0000
  Fe  Fe302     1.0  0.76694  0.49011  0.35868  1.0000
  H   H3752     1.0  0.73756  0.46313  0.35144  1.0000
  H   H3753     1.0  0.74828  0.12993  0.65169  1.0000
  H   H3754     1.0  0.73927  0.48366  0.32796  1.0000
  H   H3755     1.0  0.96183  0.38293  0.36460  1.0000
  C   C2208     1.0  0.97845  0.36728  0.35966  1.0000
  C   C2209     1.0  0.89943  0.48407  0.41950  1.0000
  H   H3756     1.0  0.78509  0.43469  0.36607  1.0000
  S   S619      1.0  0.94859  0.49243  0.35547  1.0000
  H   H3757     1.0  0.76663  0.43555  0.37033  1.0000
  Fe  Fe303     1.0  0.74990  0.47040  0.39214  1.0000
  C   C2210     1.0  0.95551  0.43071  0.37181  1.0000
  H   H3758     1.0  0.78823  0.40650  0.37817  1.0000
  C   C2211     1.0  0.97834  0.41819  0.35154  1.0000
  H   H3759     1.0  0.77796  0.37544  0.35085  1.0000
  H   H3760     1.0  0.96000  0.44198  0.37292  1.0000
  H   H3761     1.0  0.77016  0.37698  0.39414  1.0000
  C   C2212     1.0  0.77790  0.37186  0.38373  1.0000
  H   H3762     1.0  0.74729  0.39757  0.36783  1.0000
  H   H3763     1.0  0.77851  0.35486  0.38369  1.0000
  S   S620      1.0  0.74492  0.43870  0.40145  1.0000
  N   N156      1.0  0.97040  0.40805  0.34782  1.0000
  H   H3764     1.0  0.73963  0.12600  0.62435  1.0000
  H   H3765     1.0  0.94712  0.43977  0.37262  1.0000
  H   H3766     1.0  0.96708  0.37706  0.32848  1.0000
  H   H3767     1.0  0.74315  0.01631  0.38105  1.0000
  C   C2213     1.0  0.95967  0.42342  0.35063  1.0000
  H   H3768     1.0  0.89690  0.47272  0.41346  1.0000
  Fe  Fe304     1.0  0.73895  0.02045  0.33291  1.0000
  H   H3769     1.0  0.74040  0.15596  0.62945  1.0000
  H   H3770     1.0  0.73994  0.37456  0.34755  1.0000
  C   C2214     1.0  0.76212  0.40804  0.35372  1.0000
  C   C2215     1.0  0.77157  0.41903  0.37397  1.0000
  H   H3771     1.0  0.97831  0.43432  0.34088  1.0000
  H   H3772     1.0  0.75743  0.42486  0.35103  1.0000
  H   H3773     1.0  0.97501  0.35430  0.35857  1.0000
  H   H3774     1.0  0.76087  0.00420  0.39201  1.0000
  H   H3775     1.0  0.75861  0.00794  0.34403  1.0000
  H   H3776     1.0  0.74785  0.02818  0.43803  1.0000
  H   H3777     1.0  0.98241  0.36084  0.37327  1.0000
  H   H3778     1.0  0.74633  0.03365  0.39256  1.0000
  H   H3779     1.0  0.98477  0.36996  0.34532  1.0000
  H   H3780     1.0  0.76277  0.40200  0.33956  1.0000
  C   C2216     1.0  0.77858  0.42027  0.33653  1.0000
  H   H3781     1.0  0.95976  0.43829  0.33802  1.0000
  S   S621      1.0  0.75084  0.48687  0.35831  1.0000
  H   H3782     1.0  0.75404  0.99940  0.41917  1.0000
  C   C2217     1.0  0.79750  0.00846  0.33557  1.0000
  H   H3783     1.0  0.74163  0.04904  0.41887  1.0000
  S   S622      1.0  0.73766  0.04973  0.34422  1.0000
  S   S623      1.0  0.93861  0.46122  0.32789  1.0000
  C   C2218     1.0  0.75336  0.00054  0.40290  1.0000
  Fe  Fe305     1.0  0.94879  0.48388  0.32553  1.0000
  H   H3784     1.0  0.92875  0.43062  0.32353  1.0000
  H   H3785     1.0  0.90820  0.47910  0.41641  1.0000
  Fe  Fe306     1.0  0.96612  0.48977  0.34240  1.0000
  Fe  Fe307     1.0  0.75427  0.05094  0.76708  1.0000
  C   C2219     1.0  0.86679  0.40734  0.93117  1.0000
  C   C2220     1.0  0.76250  0.43795  0.87534  1.0000
  Fe  Fe308     1.0  0.76584  0.04375  0.72346  1.0000
  S   S624      1.0  0.76185  0.07858  0.70832  1.0000
  Fe  Fe309     1.0  0.76634  0.08315  0.73631  1.0000
  S   S625      1.0  0.77747  0.10498  0.73123  1.0000
  H   H3786     1.0  0.82862  0.42663  0.94932  1.0000
  C   C2221     1.0  0.75715  0.45174  0.76729  1.0000
  S   S626      1.0  0.77132  0.04834  0.75009  1.0000
  H   H3787     1.0  0.85789  0.38050  0.97681  1.0000
  Fe  Fe310     1.0  0.84108  0.19716  0.91732  1.0000
  S   S627      1.0  0.85524  0.18079  0.89649  1.0000
  S   S628      1.0  0.83164  0.22749  0.90109  1.0000
  Fe  Fe311     1.0  0.84626  0.16634  0.95714  1.0000
  S   S629      1.0  0.86073  0.14719  0.93882  1.0000
  Fe  Fe312     1.0  0.75145  0.41363  0.81103  1.0000
  Fe  Fe313     1.0  0.86405  0.17955  0.92091  1.0000
  S   S630      1.0  0.87987  0.19006  0.91212  1.0000
  Fe  Fe314     1.0  0.85028  0.15026  0.91623  1.0000
  S   S631      1.0  0.85122  0.12427  0.89854  1.0000
  S   S632      1.0  0.85015  0.19819  0.94020  1.0000
  S   S633      1.0  0.83555  0.16708  0.93604  1.0000
  Fe  Fe315     1.0  0.81011  0.06670  0.81982  1.0000
  S   S634      1.0  0.82550  0.05193  0.83084  1.0000
  S   S635      1.0  0.80986  0.09159  0.78952  1.0000
  Fe  Fe316     1.0  0.79705  0.04358  0.85920  1.0000
  S   S636      1.0  0.81125  0.02746  0.87340  1.0000
  S   S637      1.0  0.78064  0.03811  0.87560  1.0000
  Fe  Fe317     1.0  0.81610  0.05942  0.86239  1.0000
  S   S638      1.0  0.81811  0.07696  0.88577  1.0000
  Fe  Fe318     1.0  0.81917  0.02158  0.84083  1.0000
  H   H3788     1.0  0.82328  0.00118  0.76457  1.0000
  S   S639      1.0  0.80110  0.07584  0.85041  1.0000
  S   S640      1.0  0.80461  0.03608  0.82740  1.0000
  Fe  Fe319     1.0  0.97420  0.43697  0.90432  1.0000
  H   H3789     1.0  0.85377  0.30915  0.86947  1.0000
  S   S641      1.0  0.77660  0.02153  0.70311  1.0000
  H   H3790     1.0  0.96115  0.31858  0.95228  1.0000
  H   H3791     1.0  0.79692  0.24113  0.89241  1.0000
  C   C2222     1.0  0.76046  0.41099  0.90799  1.0000
  S   S642      1.0  0.74922  0.04006  0.80211  1.0000
  S   S643      1.0  0.81807  0.38169  0.92914  1.0000
  H   H3792     1.0  0.86142  0.25770  0.94664  1.0000
  Fe  Fe320     1.0  0.81127  0.32560  0.94690  1.0000
  S   S644      1.0  0.81758  0.33966  0.91294  1.0000
  C   C2223     1.0  0.74878  0.01302  0.81116  1.0000
  Fe  Fe321     1.0  0.82880  0.34998  0.92533  1.0000
  S   S645      1.0  0.84584  0.34700  0.90776  1.0000
  Fe  Fe322     1.0  0.80626  0.36994  0.91966  1.0000
  S   S646      1.0  0.79741  0.39145  0.89508  1.0000
  H   H3793     1.0  0.79932  0.02361  0.70231  1.0000
  H   H3794     1.0  0.81623  0.03093  0.69212  1.0000
  S   S647      1.0  0.88981  0.29343  0.98206  1.0000
  S   S648      1.0  0.91442  0.27372  0.96264  1.0000
  S   S649      1.0  0.79892  0.35517  0.95275  1.0000
  Fe  Fe323     1.0  0.89155  0.32395  0.95907  1.0000
  S   S650      1.0  0.89915  0.30788  0.93175  1.0000
  H   H3795     1.0  0.75992  0.40634  0.92523  1.0000
  Fe  Fe324     1.0  0.89848  0.27660  0.95556  1.0000
  S   S651      1.0  0.88988  0.24950  0.96081  1.0000
  Fe  Fe325     1.0  0.91442  0.30657  0.94109  1.0000
  S   S652      1.0  0.92936  0.31437  0.91716  1.0000
  H   H3796     1.0  0.84833  0.19872  0.98269  1.0000
  C   C2224     1.0  0.80883  0.02852  0.94408  1.0000
  Fe  Fe326     1.0  0.96554  0.39868  0.90329  1.0000
  S   S653      1.0  0.95597  0.37519  0.92689  1.0000
  H   H3797     1.0  0.81100  0.01204  0.94123  1.0000
  H   H3798     1.0  0.79623  0.29654  0.92519  1.0000
  S   S654      1.0  0.98090  0.40165  0.90892  1.0000
  S   S655      1.0  0.97152  0.40281  0.86800  1.0000
  Fe  Fe327     1.0  0.96525  0.43803  0.86738  1.0000
  H   H3799     1.0  0.78499  0.31209  0.91558  1.0000
  H   H3800     1.0  0.86917  0.29983  0.92558  1.0000
  H   H3801     1.0  0.80762  0.04102  0.91171  1.0000
  H   H3802     1.0  0.84836  0.28570  0.88036  1.0000
  C   C2225     1.0  0.93549  0.33478  0.91755  1.0000
  C   C2226     1.0  0.94479  0.33836  0.90235  1.0000
  C   C2227     1.0  0.95070  0.35227  0.90393  1.0000
  C   C2228     1.0  0.94742  0.36253  0.92092  1.0000
  C   C2229     1.0  0.93788  0.35965  0.93557  1.0000
  C   C2230     1.0  0.93187  0.34611  0.93373  1.0000
  H   H3803     1.0  0.94765  0.32977  0.88970  1.0000
  H   H3804     1.0  0.95809  0.35413  0.89267  1.0000
  H   H3805     1.0  0.93528  0.36747  0.94878  1.0000
  H   H3806     1.0  0.92469  0.34380  0.94538  1.0000
  C   C2231     1.0  0.85445  0.34688  0.92322  1.0000
  C   C2232     1.0  0.86531  0.34561  0.91430  1.0000
  C   C2233     1.0  0.87224  0.34565  0.92656  1.0000
  C   C2234     1.0  0.86828  0.34705  0.94770  1.0000
  C   C2235     1.0  0.78711  0.08379  0.90903  1.0000
  C   C2236     1.0  0.85054  0.34795  0.94443  1.0000
  H   H3807     1.0  0.86837  0.34478  0.89786  1.0000
  H   H3808     1.0  0.88060  0.34514  0.91950  1.0000
  C   C2237     1.0  0.79592  0.06545  0.69142  1.0000
  H   H3809     1.0  0.82939  0.35327  0.98432  1.0000
  C   C2238     1.0  0.77334  0.36510  0.87871  1.0000
  C   C2239     1.0  0.77828  0.38071  0.86394  1.0000
  C   C2240     1.0  0.78592  0.38824  0.86887  1.0000
  C   C2241     1.0  0.78883  0.37988  0.88841  1.0000
  C   C2242     1.0  0.78416  0.36372  0.90297  1.0000
  C   C2243     1.0  0.77631  0.35658  0.89822  1.0000
  N   N157      1.0  0.79148  0.28175  0.90547  1.0000
  H   H3810     1.0  0.78957  0.40063  0.85752  1.0000
  H   H3811     1.0  0.78626  0.35744  0.91821  1.0000
  H   H3812     1.0  0.77227  0.34503  0.90995  1.0000
  S   S656      1.0  0.98047  0.44424  0.86959  1.0000
  H   H3813     1.0  0.84566  0.27377  0.96521  1.0000
  H   H3814     1.0  0.83913  0.25939  0.95505  1.0000
  H   H3815     1.0  0.85998  0.25099  0.88395  1.0000
  H   H3816     1.0  0.84166  0.08418  0.82695  1.0000
  H   H3817     1.0  0.83237  0.28453  0.96160  1.0000
  C   C2244     1.0  0.85295  0.25653  0.91608  1.0000
  H   H3818     1.0  0.85822  0.29768  0.94842  1.0000
  H   H3819     1.0  0.86996  0.24787  0.89887  1.0000
  C   C2245     1.0  0.88215  0.20785  0.92498  1.0000
  C   C2246     1.0  0.87587  0.21119  0.94462  1.0000
  C   C2247     1.0  0.87839  0.22402  0.95522  1.0000
  C   C2248     1.0  0.88695  0.23439  0.94602  1.0000
  C   C2249     1.0  0.89301  0.23171  0.92605  1.0000
  C   C2250     1.0  0.89071  0.21825  0.91573  1.0000
  H   H3820     1.0  0.86923  0.20346  0.95190  1.0000
  H   H3821     1.0  0.87363  0.22601  0.97066  1.0000
  H   H3822     1.0  0.89966  0.23949  0.91881  1.0000
  H   H3823     1.0  0.89562  0.21579  0.90054  1.0000
  C   C2251     1.0  0.84173  0.11196  0.89469  1.0000
  C   C2252     1.0  0.83100  0.11551  0.90523  1.0000
  C   C2253     1.0  0.82394  0.10477  0.90217  1.0000
  C   C2254     1.0  0.82740  0.09058  0.88830  1.0000
  C   C2255     1.0  0.83807  0.08734  0.87744  1.0000
  C   C2256     1.0  0.84517  0.09782  0.88075  1.0000
  H   H3824     1.0  0.82821  0.12621  0.91606  1.0000
  H   H3825     1.0  0.81574  0.10741  0.91077  1.0000
  H   H3826     1.0  0.84094  0.07629  0.86696  1.0000
  H   H3827     1.0  0.85344  0.09480  0.87259  1.0000
  H   H3828     1.0  0.80325  0.06158  0.67936  1.0000
  H   H3829     1.0  0.75462  0.00525  0.78046  1.0000
  H   H3830     1.0  0.78543  0.27223  0.95184  1.0000
  C   C2257     1.0  0.82599  0.24539  0.91783  1.0000
  C   C2258     1.0  0.82395  0.26734  0.90908  1.0000
  C   C2259     1.0  0.81867  0.28192  0.92207  1.0000
  C   C2260     1.0  0.81537  0.27458  0.94381  1.0000
  C   C2261     1.0  0.81759  0.25259  0.95263  1.0000
  C   C2262     1.0  0.82303  0.23798  0.93965  1.0000
  H   H3831     1.0  0.82631  0.27304  0.89220  1.0000
  H   H3832     1.0  0.81675  0.29870  0.91507  1.0000
  H   H3833     1.0  0.81504  0.24683  0.96945  1.0000
  H   H3834     1.0  0.82460  0.22095  0.94644  1.0000
  H   H3835     1.0  0.83955  0.14279  0.84789  1.0000
  H   H3836     1.0  0.84459  0.30382  0.93291  1.0000
  C   C2263     1.0  0.86192  0.24575  0.89980  1.0000
  S   S657      1.0  0.95838  0.43363  0.90209  1.0000
  H   H3837     1.0  0.80795  0.06715  0.74298  1.0000
  N   N158      1.0  0.85457  0.27659  0.91995  1.0000
  C   C2264     1.0  0.78880  0.29533  0.92161  1.0000
  C   C2265     1.0  0.78611  0.10035  0.74841  1.0000
  C   C2266     1.0  0.78567  0.08468  0.76730  1.0000
  C   C2267     1.0  0.79282  0.08185  0.78037  1.0000
  C   C2268     1.0  0.80046  0.09451  0.77439  1.0000
  C   C2269     1.0  0.80086  0.10996  0.75549  1.0000
  C   C2270     1.0  0.79373  0.11288  0.74265  1.0000
  H   H3838     1.0  0.77974  0.07507  0.77195  1.0000
  H   H3839     1.0  0.79241  0.06999  0.79502  1.0000
  H   H3840     1.0  0.80671  0.11978  0.75074  1.0000
  H   H3841     1.0  0.79412  0.12500  0.72815  1.0000
  C   C2271     1.0  0.78732  0.06709  0.95873  1.0000
  C   C2272     1.0  0.86319  0.27034  0.93229  1.0000
  H   H3842     1.0  0.84546  0.26005  0.91042  1.0000
  C   C2273     1.0  0.83792  0.09726  0.81520  1.0000
  C   C2274     1.0  0.85792  0.29176  0.89945  1.0000
  C   C2275     1.0  0.75211  0.46611  0.78058  1.0000
  H   H3843     1.0  0.87119  0.28176  0.94966  1.0000
  H   H3844     1.0  0.98207  0.45633  0.78255  1.0000
  H   H3845     1.0  0.77616  0.05434  0.95033  1.0000
  C   C2276     1.0  0.74521  0.00523  0.83275  1.0000
  H   H3846     1.0  0.73966  0.42832  0.71761  1.0000
  S   S658      1.0  0.75692  0.41493  0.83909  1.0000
  H   H3847     1.0  0.75209  0.40406  0.88766  1.0000
  H   H3848     1.0  0.96958  0.27897  0.94766  1.0000
  H   H3849     1.0  0.82039  0.06387  0.68200  1.0000
  C   C2277     1.0  0.95731  0.28418  0.98706  1.0000
  H   H3850     1.0  0.80117  0.07377  0.71490  1.0000
  H   H3851     1.0  0.79505  0.08684  0.90737  1.0000
  C   C2278     1.0  0.85485  0.40690  0.93857  1.0000
  C   C2279     1.0  0.80538  0.03561  0.74320  1.0000
  H   H3852     1.0  0.77238  0.01332  0.79322  1.0000
  C   C2280     1.0  0.79724  0.31531  0.87842  1.0000
  N   N159      1.0  0.79145  0.04451  0.93020  1.0000
  H   H3853     1.0  0.95098  0.34161  0.97065  1.0000
  C   C2281     1.0  0.81122  0.04988  0.74830  1.0000
  H   H3854     1.0  0.85894  0.30660  0.90244  1.0000
  H   H3855     1.0  0.84320  0.10872  0.80880  1.0000
  C   C2282     1.0  0.95536  0.48916  0.80886  1.0000
  C   C2283     1.0  0.80305  0.04452  0.92729  1.0000
  H   H3856     1.0  0.80317  0.26049  0.92287  1.0000
  H   H3857     1.0  0.81644  0.03299  0.94279  1.0000
  H   H3858     1.0  0.74936  0.39019  0.91443  1.0000
  H   H3859     1.0  0.89681  0.12586  0.95244  1.0000
  H   H3860     1.0  0.82998  0.05060  0.69746  1.0000
  H   H3861     1.0  0.83767  0.29050  0.92378  1.0000
  H   H3862     1.0  0.88946  0.16398  0.95741  1.0000
  H   H3863     1.0  0.76306  0.01665  0.89087  1.0000
  H   H3864     1.0  0.86230  0.22823  0.90419  1.0000
  C   C2284     1.0  0.85012  0.29920  0.88444  1.0000
  H   H3865     1.0  0.84258  0.30958  0.89106  1.0000
  C   C2285     1.0  0.80255  0.24412  0.90004  1.0000
  Fe  Fe328     1.0  0.73961  0.42633  0.85240  1.0000
  C   C2286     1.0  0.84027  0.27537  0.95476  1.0000
  H   H3866     1.0  0.79201  0.05528  0.89671  1.0000
  C   C2287     1.0  0.86541  0.28866  0.93925  1.0000
  H   H3867     1.0  0.86588  0.28481  0.89057  1.0000
  C   C2288     1.0  0.79808  0.06038  0.71375  1.0000
  H   H3868     1.0  0.86940  0.40648  0.91424  1.0000
  H   H3869     1.0  0.93979  0.29300  0.95510  1.0000
  H   H3870     1.0  0.85193  0.24423  0.93103  1.0000
  H   H3871     1.0  0.87092  0.26299  0.92298  1.0000
  H   H3872     1.0  0.83802  0.08974  0.80231  1.0000
  C   C2289     1.0  0.84420  0.28759  0.93210  1.0000
  N   N160      1.0  0.82273  0.13036  0.82305  1.0000
  C   C2290     1.0  0.81067  0.13607  0.82765  1.0000
  C   C2291     1.0  0.82652  0.14227  0.80086  1.0000
  C   C2292     1.0  0.82626  0.13809  0.83853  1.0000
  C   C2293     1.0  0.82628  0.10635  0.82573  1.0000
  C   C2294     1.0  0.80494  0.12887  0.85077  1.0000
  C   C2295     1.0  0.82318  0.13639  0.78339  1.0000
  C   C2296     1.0  0.83829  0.13624  0.83548  1.0000
  H   H3873     1.0  0.80770  0.15373  0.82312  1.0000
  H   H3874     1.0  0.80755  0.12895  0.81807  1.0000
  H   H3875     1.0  0.83528  0.14012  0.79634  1.0000
  H   H3876     1.0  0.82358  0.15988  0.79962  1.0000
  H   H3877     1.0  0.82234  0.15523  0.83845  1.0000
  H   H3878     1.0  0.82376  0.12904  0.85494  1.0000
  H   H3879     1.0  0.82508  0.09845  0.84276  1.0000
  H   H3880     1.0  0.82113  0.10016  0.81940  1.0000
  H   H3881     1.0  0.80792  0.11174  0.85723  1.0000
  H   H3882     1.0  0.80564  0.13864  0.86107  1.0000
  H   H3883     1.0  0.79631  0.13112  0.85153  1.0000
  H   H3884     1.0  0.82716  0.14463  0.76771  1.0000
  H   H3885     1.0  0.82560  0.11897  0.78380  1.0000
  H   H3886     1.0  0.81449  0.14177  0.78422  1.0000
  H   H3887     1.0  0.84181  0.14572  0.82014  1.0000
  H   H3888     1.0  0.84270  0.11935  0.83791  1.0000
  C   C2297     1.0  0.83944  0.40110  0.96720  1.0000
  H   H3889     1.0  0.82179  0.02290  0.71493  1.0000
  C   C2298     1.0  0.75011  0.40208  0.74701  1.0000
  C   C2299     1.0  0.94633  0.33309  0.98527  1.0000
  H   H3890     1.0  0.77968  0.29952  0.95275  1.0000
  H   H3891     1.0  0.81992  0.04588  0.74171  1.0000
  C   C2300     1.0  0.83179  0.40911  0.95188  1.0000
  C   C2301     1.0  0.77597  0.03342  0.80923  1.0000
  H   H3892     1.0  0.79240  0.08283  0.68695  1.0000
  C   C2302     1.0  0.75961  0.45944  0.74542  1.0000
  C   C2303     1.0  0.96443  0.29165  0.93813  1.0000
  H   H3893     1.0  0.86501  0.14350  0.98132  1.0000
  H   H3894     1.0  0.98093  0.44313  0.69953  1.0000
  H   H3895     1.0  0.78470  0.02135  0.78195  1.0000
  S   S659      1.0  0.97528  0.49365  0.75150  1.0000
  H   H3896     1.0  0.74102  0.10858  0.65790  1.0000
  H   H3897     1.0  0.75031  0.46022  0.79749  1.0000
  C   C2304     1.0  0.78021  0.01081  0.88252  1.0000
  C   C2305     1.0  0.74223  0.12180  0.66342  1.0000
  H   H3898     1.0  0.79135  0.25125  0.92805  1.0000
  Fe  Fe329     1.0  0.81182  0.36410  0.96181  1.0000
  C   C2306     1.0  0.75296  0.45004  0.90810  1.0000
  H   H3899     1.0  0.80608  0.22841  0.90930  1.0000
  H   H3900     1.0  0.84217  0.34909  0.95133  1.0000
  H   H3901     1.0  0.77070  0.04709  0.80077  1.0000
  H   H3902     1.0  0.78285  0.03951  0.80955  1.0000
  H   H3903     1.0  0.93365  0.26174  0.98280  1.0000
  H   H3904     1.0  0.76962  0.43906  0.93390  1.0000
  C   C2307     1.0  0.81621  0.03605  0.70654  1.0000
  C   C2308     1.0  0.97460  0.46545  0.78989  1.0000
  H   H3905     1.0  0.80738  0.28568  0.88850  1.0000
  H   H3906     1.0  0.85719  0.45331  0.94042  1.0000
  Fe  Fe330     1.0  0.74555  0.07768  0.72900  1.0000
  C   C2309     1.0  0.78147  0.28758  0.94283  1.0000
  S   S660      1.0  0.74939  0.37958  0.82290  1.0000
  H   H3907     1.0  0.80278  0.31935  0.86300  1.0000
  H   H3908     1.0  0.97220  0.48588  0.84365  1.0000
  H   H3909     1.0  0.97422  0.44427  0.82070  1.0000
  C   C2310     1.0  0.98032  0.48981  0.93356  1.0000
  C   C2311     1.0  0.79910  0.29071  0.88595  1.0000
  H   H3910     1.0  0.78910  0.32289  0.87595  1.0000
  H   H3911     1.0  0.78120  0.09062  0.92191  1.0000
  C   C2312     1.0  0.97021  0.45870  0.81145  1.0000
  H   H3912     1.0  0.75426  0.41556  0.74046  1.0000
  H   H3913     1.0  0.75951  0.47334  0.86850  1.0000
  S   S661      1.0  0.74959  0.08634  0.75534  1.0000
  H   H3914     1.0  0.87689  0.16317  0.95421  1.0000
  H   H3915     1.0  0.79018  0.06191  0.72486  1.0000
  H   H3916     1.0  0.81837  0.06794  0.70839  1.0000
  H   H3917     1.0  0.75361  0.43233  0.94158  1.0000
  H   H3918     1.0  0.79159  0.07849  0.94645  1.0000
  H   H3919     1.0  0.79930  0.28409  0.87234  1.0000
  H   H3920     1.0  0.79908  0.32275  0.88949  1.0000
  H   H3921     1.0  0.93612  0.32311  0.97196  1.0000
  H   H3922     1.0  0.77895  0.05943  0.91258  1.0000
  H   H3923     1.0  0.76852  0.42516  0.86815  1.0000
  H   H3924     1.0  0.86430  0.40170  0.97120  1.0000
  H   H3925     1.0  0.82481  0.40153  0.95896  1.0000
  H   H3926     1.0  0.78905  0.00759  0.83025  1.0000
  C   C2313     1.0  0.76503  0.45963  0.86219  1.0000
  C   C2314     1.0  0.82126  0.05597  0.69842  1.0000
  H   H3927     1.0  0.77488  0.01969  0.94947  1.0000
  H   H3928     1.0  0.76405  0.46168  0.84587  1.0000
  H   H3929     1.0  0.77312  0.31340  0.89935  1.0000
  C   C2315     1.0  0.74818  0.44400  0.93205  1.0000
  H   H3930     1.0  0.77628  0.38689  0.84863  1.0000
  H   H3931     1.0  0.77342  0.46016  0.86083  1.0000
  H   H3932     1.0  0.85077  0.41897  0.92661  1.0000
  C   C2316     1.0  0.77416  0.30029  0.89143  1.0000
  H   H3933     1.0  0.85447  0.34854  0.97308  1.0000
  H   H3934     1.0  0.77377  0.28623  0.94075  1.0000
  H   H3935     1.0  0.77919  0.42588  0.89111  1.0000
  N   N161      1.0  0.80511  0.03880  0.72033  1.0000
  H   H3936     1.0  0.76603  0.29730  0.89474  1.0000
  H   H3937     1.0  0.77678  0.30587  0.87410  1.0000
  H   H3938     1.0  0.78450  0.09276  0.89414  1.0000
  H   H3939     1.0  0.79725  0.99976  0.87546  1.0000
  H   H3940     1.0  0.96967  0.30049  0.92476  1.0000
  S   S662      1.0  0.74925  0.04228  0.74195  1.0000
  H   H3941     1.0  0.75542  0.46552  0.90488  1.0000
  C   C2317     1.0  0.78173  0.27955  0.89989  1.0000
  C   C2318     1.0  0.75068  0.40586  0.90413  1.0000
  H   H3942     1.0  0.78556  0.03491  0.96375  1.0000
  C   C2319     1.0  0.88953  0.13628  0.94742  1.0000
  C   C2320     1.0  0.77257  0.43538  0.90117  1.0000
  H   H3943     1.0  0.78408  0.27011  0.88743  1.0000
  S   S663      1.0  0.97506  0.45681  0.92572  1.0000
  H   H3944     1.0  0.98111  0.49426  0.80745  1.0000
  H   H3945     1.0  0.76356  0.44836  0.73511  1.0000
  H   H3946     1.0  0.78995  0.05685  0.69108  1.0000
  S   S664      1.0  0.82354  0.33313  0.95884  1.0000
  H   H3947     1.0  0.80430  0.06047  0.92666  1.0000
  H   H3948     1.0  0.76755  0.39957  0.90150  1.0000
  C   C2321     1.0  0.77039  0.00458  0.88971  1.0000
  C   C2322     1.0  0.82437  0.99546  0.79692  1.0000
  H   H3949     1.0  0.73849  0.47161  0.82880  1.0000
  C   C2323     1.0  0.78475  0.04961  0.95093  1.0000
  H   H3950     1.0  0.74079  0.43815  0.93480  1.0000
  H   H3951     1.0  0.77691  0.26982  0.91332  1.0000
  C   C2324     1.0  0.77959  0.01505  0.79725  1.0000
  H   H3952     1.0  0.74331  0.41812  0.90761  1.0000
  H   H3953     1.0  0.80928  0.24972  0.88787  1.0000
  H   H3954     1.0  0.86862  0.42205  0.93249  1.0000
  C   C2325     1.0  0.79702  0.25957  0.91517  1.0000
  H   H3955     1.0  0.77361  0.45219  0.89547  1.0000
  H   H3956     1.0  0.75480  0.43761  0.87238  1.0000
  H   H3957     1.0  0.77139  0.02895  0.82551  1.0000
  C   C2326     1.0  0.79304  0.99692  0.81900  1.0000
  H   H3958     1.0  0.79713  0.03798  0.75304  1.0000
  H   H3959     1.0  0.76429  0.00056  0.74188  1.0000
  C   C2327     1.0  0.96946  0.48432  0.77800  1.0000
  H   H3960     1.0  0.97445  0.28384  0.97825  1.0000
  H   H3961     1.0  0.77436  0.41124  0.93083  1.0000
  C   C2328     1.0  0.96054  0.47055  0.82087  1.0000
  H   H3962     1.0  0.74616  0.45361  0.90024  1.0000
  H   H3963     1.0  0.80937  0.01903  0.74946  1.0000
  H   H3964     1.0  0.78311  0.42908  0.92240  1.0000
  C   C2329     1.0  0.85469  0.44598  0.95741  1.0000
  H   H3965     1.0  0.88417  0.12649  0.94683  1.0000
  C   C2330     1.0  0.88386  0.15322  0.96093  1.0000
  H   H3966     1.0  0.82413  0.01203  0.79623  1.0000
  H   H3967     1.0  0.74972  0.39534  0.73401  1.0000
  C   C2331     1.0  0.78728  0.05995  0.91176  1.0000
  C   C2332     1.0  0.79990  0.02193  0.71884  1.0000
  S   S665      1.0  0.76331  0.35640  0.87323  1.0000
  C   C2333     1.0  0.75180  0.99930  0.79714  1.0000
  H   H3968     1.0  0.96015  0.28430  0.93101  1.0000
  C   C2334     1.0  0.75654  0.48132  0.73675  1.0000
  H   H3969     1.0  0.74565  0.45871  0.93853  1.0000
  C   C2335     1.0  0.77478  0.42818  0.92355  1.0000
  H   H3970     1.0  0.95105  0.31798  0.94089  1.0000
  S   S666      1.0  0.95475  0.46284  0.84766  1.0000
  H   H3971     1.0  0.83548  0.40430  0.93654  1.0000
  C   C2336     1.0  0.73897  0.40865  0.76080  1.0000
  H   H3972     1.0  0.81022  0.04678  0.76571  1.0000
  N   N162      1.0  0.95032  0.29784  0.97202  1.0000
  S   S667      1.0  0.90663  0.32475  0.96696  1.0000
  H   H3973     1.0  0.75820  0.48699  0.71983  1.0000
  C   C2337     1.0  0.95657  0.30763  0.95098  1.0000
  H   H3974     1.0  0.89211  0.14479  0.93084  1.0000
  H   H3975     1.0  0.75510  0.38934  0.75695  1.0000
  S   S668      1.0  0.75992  0.42404  0.77748  1.0000
  H   H3976     1.0  0.83456  0.40437  0.98270  1.0000
  N   N163      1.0  0.76197  0.43362  0.89874  1.0000
  S   S669      1.0  0.74157  0.47413  0.67249  1.0000
  H   H3977     1.0  0.87173  0.39309  0.93967  1.0000
  Fe  Fe331     1.0  0.98628  0.40870  0.87362  1.0000
  C   C2338     1.0  0.74947  0.48816  0.77192  1.0000
  C   C2339     1.0  0.85747  0.34786  0.95667  1.0000
  H   H3978     1.0  0.79466  0.00988  0.94139  1.0000
  H   H3979     1.0  0.77974  0.07682  0.96616  1.0000
  H   H3980     1.0  0.86178  0.43613  0.96346  1.0000
  H   H3981     1.0  0.74560  0.11405  0.67770  1.0000
  Fe  Fe332     1.0  0.75352  0.38203  0.85222  1.0000
  S   S670      1.0  0.80795  0.29261  0.95986  1.0000
  S   S671      1.0  0.87657  0.34917  0.96272  1.0000
  H   H3982     1.0  0.79533  0.01850  0.91380  1.0000
  C   C2340     1.0  0.79085  0.02237  0.92936  1.0000
  C   C2341     1.0  0.84586  0.43377  0.96087  1.0000
  H   H3983     1.0  0.79155  0.02388  0.72825  1.0000
  H   H3984     1.0  0.74073  0.06720  0.69088  1.0000
  H   H3985     1.0  0.78034  0.00145  0.93221  1.0000
  H   H3986     1.0  0.84002  0.43654  0.97575  1.0000
  H   H3987     1.0  0.96643  0.30993  0.98140  1.0000
  H   H3988     1.0  0.84131  0.44251  0.94840  1.0000
  N   N164      1.0  0.84933  0.41026  0.96059  1.0000
  H   H3989     1.0  0.95781  0.49046  0.87436  1.0000
  H   H3990     1.0  0.84166  0.38336  0.96942  1.0000
  H   H3991     1.0  0.85434  0.39106  0.93683  1.0000
  H   H3992     1.0  0.88784  0.18383  0.97900  1.0000
  C   C2342     1.0  0.94425  0.28392  0.96775  1.0000
  H   H3993     1.0  0.94978  0.26999  0.96169  1.0000
  C   C2343     1.0  0.94220  0.31522  0.98169  1.0000
  C   C2344     1.0  0.98205  0.47757  0.91863  1.0000
  H   H3994     1.0  0.98234  0.44762  0.67171  1.0000
  H   H3995     1.0  0.97489  0.48632  0.94864  1.0000
  H   H3996     1.0  0.97048  0.48871  0.87915  1.0000
  H   H3997     1.0  0.80414  0.02851  0.96040  1.0000
  H   H3998     1.0  0.98378  0.46486  0.72403  1.0000
  H   H3999     1.0  0.74328  0.44770  0.73838  1.0000
  H   H4000     1.0  0.74286  0.01588  0.84358  1.0000
  H   H4001     1.0  0.74023  0.41126  0.77546  1.0000
  C   C2345     1.0  0.96701  0.29252  0.98723  1.0000
  H   H4002     1.0  0.97954  0.48083  0.68422  1.0000
  H   H4003     1.0  0.85159  0.45900  0.96632  1.0000
  H   H4004     1.0  0.79914  0.00521  0.80735  1.0000
  H   H4005     1.0  0.95210  0.48224  0.90951  1.0000
  H   H4006     1.0  0.77500  0.02851  0.92155  1.0000
  H   H4007     1.0  0.76415  0.00026  0.84061  1.0000
  N   N165      1.0  0.88038  0.14501  0.98446  1.0000
  C   C2346     1.0  0.98629  0.44797  0.68406  1.0000
  C   C2347     1.0  0.77957  0.01818  0.93341  1.0000
  H   H4008     1.0  0.79186  0.05967  0.97142  1.0000
  H   H4009     1.0  0.73795  0.00696  0.76735  1.0000
  C   C2348     1.0  0.85629  0.39796  0.97611  1.0000
  C   C2349     1.0  0.80557  0.99837  0.72583  1.0000
  H   H4010     1.0  0.86955  0.17577  0.98496  1.0000
  H   H4011     1.0  0.89699  0.13835  0.98558  1.0000
  Fe  Fe333     1.0  0.90559  0.29239  0.98763  1.0000
  H   H4012     1.0  0.77793  0.49314  0.71596  1.0000
  C   C2350     1.0  0.93613  0.27449  0.98681  1.0000
  H   H4013     1.0  0.96062  0.26799  0.98338  1.0000
  H   H4014     1.0  0.87485  0.11981  0.97856  1.0000
  H   H4015     1.0  0.89214  0.11538  0.98801  1.0000
  C   C2351     1.0  0.87193  0.13268  0.98760  1.0000
  H   H4016     1.0  0.74432  0.88876  0.17583  1.0000
  H   H4017     1.0  0.81142  0.83979  0.28735  1.0000
  H   H4018     1.0  0.76348  0.85826  0.15390  1.0000
  H   H4019     1.0  0.93366  0.51672  0.22438  1.0000
  H   H4020     1.0  0.75778  0.51524  0.22070  1.0000
  C   C2352     1.0  0.73939  0.85364  0.17093  1.0000
  Fe  Fe334     1.0  0.80712  0.90062  0.30729  1.0000
  S   S672      1.0  0.79728  0.87674  0.31099  1.0000
  S   S673      1.0  0.82263  0.90014  0.28333  1.0000
  H   H4021     1.0  0.76202  0.84628  0.20721  1.0000
  C   C2353     1.0  0.94574  0.51053  0.19734  1.0000
  S   S674      1.0  0.82985  0.97843  0.20620  1.0000
  H   H4022     1.0  0.74646  0.87247  0.22015  1.0000
  C   C2354     1.0  0.74149  0.96377  0.29755  1.0000
  H   H4023     1.0  0.81260  0.96510  0.18702  1.0000
  H   H4024     1.0  0.81427  0.81339  0.31464  1.0000
  H   H4025     1.0  0.74139  0.51990  0.29370  1.0000
  C   C2355     1.0  0.84188  0.84328  0.31811  1.0000
  H   H4026     1.0  0.92703  0.52597  0.25526  1.0000
  H   H4027     1.0  0.74497  0.84958  0.15625  1.0000
  H   H4028     1.0  0.85135  0.79511  0.31365  1.0000
  S   S675      1.0  0.76670  0.88397  0.22032  1.0000
  H   H4029     1.0  0.75173  0.91051  0.24660  1.0000
  C   C2356     1.0  0.82424  0.92260  0.26248  1.0000
  C   C2357     1.0  0.81654  0.94182  0.26123  1.0000
  C   C2358     1.0  0.81815  0.95928  0.24414  1.0000
  C   C2359     1.0  0.82747  0.95750  0.22829  1.0000
  C   C2360     1.0  0.83508  0.93824  0.22958  1.0000
  C   C2361     1.0  0.83350  0.92094  0.24660  1.0000
  H   H4030     1.0  0.80937  0.94323  0.27334  1.0000
  H   H4031     1.0  0.81210  0.97386  0.24290  1.0000
  H   H4032     1.0  0.84227  0.93672  0.21733  1.0000
  H   H4033     1.0  0.83949  0.90617  0.24738  1.0000
  H   H4034     1.0  0.84468  0.77564  0.31345  1.0000
  Fe  Fe335     1.0  0.75644  0.91356  0.20450  1.0000
  N   N166      1.0  0.74631  0.51286  0.20459  1.0000
  H   H4035     1.0  0.75881  0.50678  0.28208  1.0000
  C   C2362     1.0  0.96015  0.50865  0.22634  1.0000
  H   H4036     1.0  0.82176  0.98551  0.31324  1.0000
  H   H4037     1.0  0.93251  0.50378  0.27468  1.0000
  C   C2363     1.0  0.76728  0.88964  0.24380  1.0000
  C   C2364     1.0  0.77633  0.88112  0.25256  1.0000
  C   C2365     1.0  0.77707  0.88812  0.26992  1.0000
  C   C2366     1.0  0.76874  0.90359  0.27833  1.0000
  C   C2367     1.0  0.75962  0.91135  0.26995  1.0000
  C   C2368     1.0  0.75885  0.90431  0.25289  1.0000
  C   C2369     1.0  0.83615  0.80839  0.30339  1.0000
  H   H4038     1.0  0.78410  0.88192  0.27649  1.0000
  H   H4039     1.0  0.74087  0.89955  0.98918  1.0000
  C   C2370     1.0  0.77474  0.99093  0.16981  1.0000
  H   H4040     1.0  0.74421  0.98762  0.21745  1.0000
  H   H4041     1.0  0.78232  0.98826  0.29859  1.0000
  H   H4042     1.0  0.84170  0.81596  0.28950  1.0000
  H   H4043     1.0  0.93094  0.53074  0.27642  1.0000
  S   S676      1.0  0.75609  0.94512  0.21084  1.0000
  H   H4044     1.0  0.80105  0.97118  0.29331  1.0000
  C   C2371     1.0  0.94446  0.52098  0.25189  1.0000
  H   H4045     1.0  0.78287  0.86970  0.24555  1.0000
  C   C2372     1.0  0.74177  0.85994  0.22476  1.0000
  H   H4046     1.0  0.94335  0.52378  0.18422  1.0000
  H   H4047     1.0  0.82479  0.96161  0.28665  1.0000
  H   H4048     1.0  0.73946  0.91937  0.30928  1.0000
  S   S677      1.0  0.76011  0.92482  0.16943  1.0000
  S   S678      1.0  0.97075  0.52371  0.26404  1.0000
  H   H4049     1.0  0.76562  0.81828  0.20868  1.0000
  H   H4050     1.0  0.98607  0.52874  0.22473  1.0000
  C   C2373     1.0  0.75786  0.87384  0.15497  1.0000
  C   C2374     1.0  0.76321  0.83399  0.19813  1.0000
  C   C2375     1.0  0.74514  0.98233  0.30098  1.0000
  H   H4051     1.0  0.96058  0.54172  0.22624  1.0000
  C   C2376     1.0  0.75338  0.83366  0.19040  1.0000
  C   C2377     1.0  0.79830  0.98321  0.30337  1.0000
  H   H4052     1.0  0.77016  0.83553  0.18468  1.0000
  H   H4053     1.0  0.97143  0.52874  0.20889  1.0000
  H   H4054     1.0  0.74649  0.84430  0.23161  1.0000
  H   H4055     1.0  0.81944  0.85574  0.26720  1.0000
  H   H4056     1.0  0.77458  0.95369  0.25901  1.0000
  H   H4057     1.0  0.75317  0.92314  0.27639  1.0000
  C   C2378     1.0  0.82081  0.95772  0.30354  1.0000
  C   C2379     1.0  0.80434  0.96548  0.19654  1.0000
  Fe  Fe336     1.0  0.75842  0.95698  0.17589  1.0000
  N   N167      1.0  0.79317  0.93991  0.22566  1.0000
  C   C2380     1.0  0.79460  0.92783  0.24752  1.0000
  C   C2381     1.0  0.78539  0.96091  0.22775  1.0000
  C   C2382     1.0  0.80395  0.94370  0.21230  1.0000
  C   C2383     1.0  0.78896  0.92638  0.21659  1.0000
  C   C2384     1.0  0.80280  0.90626  0.24876  1.0000
  C   C2385     1.0  0.77427  0.95955  0.24209  1.0000
  H   H4058     1.0  0.74572  0.50791  0.25073  1.0000
  C   C2386     1.0  0.78579  0.93718  0.19531  1.0000
  H   H4059     1.0  0.79693  0.93797  0.25539  1.0000
  H   H4060     1.0  0.78700  0.92396  0.25775  1.0000
  S   S679      1.0  0.74093  0.96711  0.17608  1.0000
  H   H4061     1.0  0.78878  0.97083  0.23400  1.0000
  H   H4062     1.0  0.80947  0.94271  0.22234  1.0000
  H   H4063     1.0  0.80803  0.93089  0.20328  1.0000
  H   H4064     1.0  0.79490  0.91136  0.21424  1.0000
  H   H4065     1.0  0.78180  0.92142  0.22783  1.0000
  H   H4066     1.0  0.81081  0.90773  0.23885  1.0000
  H   H4067     1.0  0.80379  0.90001  0.26530  1.0000
  H   H4068     1.0  0.79999  0.89405  0.24463  1.0000
  Fe  Fe337     1.0  0.78348  0.90464  0.31369  1.0000
  C   C2387     1.0  0.75055  0.87367  0.17711  1.0000
  Fe  Fe338     1.0  0.96352  0.51336  0.29856  1.0000
  H   H4069     1.0  0.76157  0.98865  0.19654  1.0000
  N   N168      1.0  0.74541  0.85459  0.18652  1.0000
  H   H4070     1.0  0.73849  0.92616  0.99269  1.0000
  H   H4071     1.0  0.78440  0.92478  0.18880  1.0000
  H   H4072     1.0  0.79202  0.94444  0.18332  1.0000
  H   H4073     1.0  0.77805  0.94873  0.19744  1.0000
  H   H4074     1.0  0.81970  0.85810  0.30346  1.0000
  H   H4075     1.0  0.95887  0.53843  0.20157  1.0000
  N   N169      1.0  0.80719  0.99385  0.30177  1.0000
  H   H4076     1.0  0.96451  0.50175  0.23936  1.0000
  S   S680      1.0  0.73880  0.91958  0.20734  1.0000
  N   N170      1.0  0.82800  0.82547  0.31350  1.0000
  H   H4077     1.0  0.76909  0.51102  0.18630  1.0000
  H   H4078     1.0  0.80239  0.97879  0.20488  1.0000
  H   H4079     1.0  0.74874  0.95337  0.28983  1.0000
  H   H4080     1.0  0.79907  0.96932  0.18534  1.0000
  H   H4081     1.0  0.74939  0.82114  0.20191  1.0000
  S   S681      1.0  0.76942  0.91472  0.29854  1.0000
  H   H4082     1.0  0.82707  0.94773  0.31220  1.0000
  H   H4083     1.0  0.75309  0.87841  0.14268  1.0000
  S   S682      1.0  0.79341  0.92877  0.30733  1.0000
  H   H4084     1.0  0.94116  0.53643  0.21384  1.0000
  H   H4085     1.0  0.74649  0.52884  0.17163  1.0000
  H   H4086     1.0  0.82433  0.82738  0.27324  1.0000
  H   H4087     1.0  0.94453  0.53824  0.24530  1.0000
  N   N171      1.0  0.94850  0.50833  0.23471  1.0000
  Fe  Fe339     1.0  0.74238  0.93372  0.17249  1.0000
  H   H4088     1.0  0.78400  0.97045  0.21210  1.0000
  H   H4089     1.0  0.76910  0.97590  0.24061  1.0000
  C   C2388     1.0  0.82512  0.84470  0.29636  1.0000
  H   H4090     1.0  0.83218  0.79965  0.29700  1.0000
  H   H4091     1.0  0.76859  0.53600  0.19168  1.0000
  H   H4092     1.0  0.74833  0.99196  0.28533  1.0000
  C   C2389     1.0  0.75420  0.52405  0.20686  1.0000
  C   C2390     1.0  0.73787  0.51178  0.22479  1.0000
  C   C2391     1.0  0.93307  0.52009  0.26508  1.0000
  H   H4093     1.0  0.83966  0.85973  0.30864  1.0000
  C   C2392     1.0  0.81979  0.84130  0.28030  1.0000
  H   H4094     1.0  0.75669  0.82763  0.17553  1.0000
  S   S683      1.0  0.77104  0.97547  0.15684  1.0000
  H   H4095     1.0  0.75528  0.87559  0.18731  1.0000
  H   H4096     1.0  0.76264  0.88620  0.15121  1.0000
  C   C2393     1.0  0.96271  0.53081  0.21520  1.0000
  C   C2394     1.0  0.98409  0.52602  0.25810  1.0000
  H   H4097     1.0  0.73722  0.54285  0.18988  1.0000
  C   C2395     1.0  0.94202  0.51872  0.21805  1.0000
  S   S684      1.0  0.94574  0.51786  0.30786  1.0000
  H   H4098     1.0  0.77023  0.94962  0.23749  1.0000
  H   H4099     1.0  0.76394  0.50598  0.31501  1.0000
  H   H4100     1.0  0.76135  0.53584  0.17323  1.0000
  H   H4101     1.0  0.98471  0.52343  0.29027  1.0000
  C   C2396     1.0  0.74083  0.52636  0.18705  1.0000
  H   H4102     1.0  0.83229  0.85092  0.28676  1.0000
  H   H4103     1.0  0.75011  0.54026  0.21000  1.0000
  H   H4104     1.0  0.81508  0.94761  0.30567  1.0000
  C   C2397     1.0  0.73740  0.85820  0.20660  1.0000
  H   H4105     1.0  0.94983  0.51543  0.26325  1.0000
  C   C2398     1.0  0.76375  0.52674  0.18819  1.0000
  H   H4106     1.0  0.84825  0.83346  0.30813  1.0000
  H   H4107     1.0  0.75168  0.97653  0.30966  1.0000
  C   C2399     1.0  0.84333  0.79147  0.31739  1.0000
  H   H4108     1.0  0.81337  0.98886  0.26979  1.0000
  C   C2400     1.0  0.74168  0.49876  0.24505  1.0000
  H   H4109     1.0  0.75956  0.50166  0.16765  1.0000
  C   C2401     1.0  0.81543  0.97786  0.31279  1.0000
  H   H4110     1.0  0.73846  0.99321  0.30917  1.0000
  Fe  Fe340     1.0  0.73872  0.95233  0.21079  1.0000
  H   H4111     1.0  0.98641  0.49951  0.19863  1.0000
  H   H4112     1.0  0.95447  0.50552  0.19225  1.0000
  H   H4113     1.0  0.79588  0.97380  0.31953  1.0000
  H   H4114     1.0  0.96405  0.49823  0.21495  1.0000
  H   H4115     1.0  0.94200  0.49712  0.19854  1.0000
  C   C2402     1.0  0.73921  0.99511  0.23013  1.0000
  C   C2403     1.0  0.76875  0.57553  0.57952  1.0000
  S   S685      1.0  0.79499  0.84128  0.36867  1.0000
  C   C2404     1.0  0.77747  0.55099  0.64536  1.0000
  Fe  Fe341     1.0  0.83943  0.73391  0.47893  1.0000
  S   S686      1.0  0.82414  0.73675  0.50317  1.0000
  S   S687      1.0  0.85338  0.71007  0.49008  1.0000
  Fe  Fe342     1.0  0.82937  0.76662  0.44468  1.0000
  S   S688      1.0  0.81314  0.77156  0.46608  1.0000
  S   S689      1.0  0.83323  0.78709  0.41191  1.0000
  Fe  Fe343     1.0  0.82188  0.77203  0.48986  1.0000
  S   S690      1.0  0.81527  0.79710  0.50956  1.0000
  Fe  Fe344     1.0  0.81691  0.73583  0.47731  1.0000
  S   S691      1.0  0.80530  0.71428  0.48720  1.0000
  S   S692      1.0  0.83790  0.76944  0.46789  1.0000
  S   S693      1.0  0.83239  0.73056  0.45375  1.0000
  H   H4116     1.0  0.79931  0.54971  0.58275  1.0000
  H   H4117     1.0  0.81183  0.83091  0.33194  1.0000
  H   H4118     1.0  0.76102  0.55157  0.56309  1.0000
  H   H4119     1.0  0.81234  0.55846  0.40788  1.0000
  S   S694      1.0  0.82659  0.74242  0.63042  1.0000
  C   C2405     1.0  0.79059  0.69550  0.62772  1.0000
  C   C2406     1.0  0.85508  0.63652  0.63952  1.0000
  H   H4120     1.0  0.83890  0.65523  0.53725  1.0000
  Fe  Fe345     1.0  0.83016  0.77504  0.61646  1.0000
  S   S695      1.0  0.83979  0.77794  0.58303  1.0000
  C   C2407     1.0  0.93583  0.54323  0.38837  1.0000
  S   S696      1.0  0.81365  0.79280  0.62865  1.0000
  Fe  Fe346     1.0  0.75944  0.50354  0.40068  1.0000
  C   C2408     1.0  0.92601  0.69318  0.65212  1.0000
  S   S697      1.0  0.76452  0.51091  0.42686  1.0000
  H   H4121     1.0  0.78606  0.64670  0.51586  1.0000
  S   S698      1.0  0.81810  0.65421  0.59195  1.0000
  H   H4122     1.0  0.92732  0.62638  0.47544  1.0000
  S   S699      1.0  0.82367  0.62898  0.54423  1.0000
  Fe  Fe347     1.0  0.80519  0.62885  0.43427  1.0000
  S   S700      1.0  0.80733  0.60631  0.41344  1.0000
  S   S701      1.0  0.80845  0.66174  0.41981  1.0000
  Fe  Fe348     1.0  0.79935  0.59659  0.47410  1.0000
  S   S702      1.0  0.80074  0.57107  0.45686  1.0000
  S   S703      1.0  0.79553  0.58999  0.50973  1.0000
  Fe  Fe349     1.0  0.81561  0.58179  0.43711  1.0000
  S   S704      1.0  0.82997  0.55700  0.42700  1.0000
  Fe  Fe350     1.0  0.79226  0.59746  0.43449  1.0000
  S   S705      1.0  0.78073  0.59510  0.41647  1.0000
  S   S706      1.0  0.81500  0.60501  0.45600  1.0000
  S   S707      1.0  0.78940  0.62226  0.45363  1.0000
  Fe  Fe351     1.0  0.90099  0.57933  0.45126  1.0000
  S   S708      1.0  0.89096  0.56149  0.47909  1.0000
  S   S709      1.0  0.91799  0.56157  0.44231  1.0000
  Fe  Fe352     1.0  0.88273  0.61705  0.44544  1.0000
  S   S710      1.0  0.87099  0.60224  0.47239  1.0000
  S   S711      1.0  0.87712  0.64960  0.42632  1.0000
  Fe  Fe353     1.0  0.88428  0.59250  0.48955  1.0000
  S   S712      1.0  0.88000  0.59052  0.52465  1.0000
  Fe  Fe354     1.0  0.87847  0.57241  0.46000  1.0000
  S   S713      1.0  0.87093  0.54556  0.46170  1.0000
  S   S714      1.0  0.89559  0.60965  0.46355  1.0000
  S   S715      1.0  0.88897  0.58804  0.43116  1.0000
  H   H4123     1.0  0.85062  0.61433  0.59114  1.0000
  S   S716      1.0  0.91137  0.64583  0.60889  1.0000
  C   C2409     1.0  0.80503  0.56879  0.38095  1.0000
  S   S717      1.0  0.88680  0.64125  0.61537  1.0000
  Fe  Fe355     1.0  0.90266  0.63066  0.59497  1.0000
  S   S718      1.0  0.90437  0.63773  0.55965  1.0000
  Fe  Fe356     1.0  0.89567  0.65410  0.63104  1.0000
  H   H4124     1.0  0.75620  0.52858  0.62062  1.0000
  Fe  Fe357     1.0  0.79561  0.87315  0.34583  1.0000
  C   C2410     1.0  0.88659  0.60404  0.53432  1.0000
  C   C2411     1.0  0.88694  0.59832  0.55576  1.0000
  C   C2412     1.0  0.89220  0.60886  0.56381  1.0000
  C   C2413     1.0  0.89714  0.62516  0.55040  1.0000
  C   C2414     1.0  0.89654  0.63127  0.52908  1.0000
  C   C2415     1.0  0.89133  0.62066  0.52100  1.0000
  H   H4125     1.0  0.88323  0.58554  0.56616  1.0000
  H   H4126     1.0  0.89256  0.60416  0.58032  1.0000
  H   H4127     1.0  0.90018  0.64416  0.51876  1.0000
  H   H4128     1.0  0.89089  0.62550  0.50455  1.0000
  H   H4129     1.0  0.76821  0.65247  0.59401  1.0000
  C   C2416     1.0  0.83479  0.55074  0.50523  1.0000
  C   C2417     1.0  0.93209  0.54508  0.40958  1.0000
  C   C2418     1.0  0.92287  0.56032  0.41551  1.0000
  C   C2419     1.0  0.91754  0.57403  0.40009  1.0000
  C   C2420     1.0  0.92134  0.57237  0.37890  1.0000
  H   H4130     1.0  0.77207  0.54113  0.61079  1.0000
  H   H4131     1.0  0.91057  0.58611  0.40439  1.0000
  H   H4132     1.0  0.78945  0.69249  0.56875  1.0000
  C   C2421     1.0  0.84134  0.55504  0.43623  1.0000
  C   C2422     1.0  0.84323  0.57238  0.44164  1.0000
  C   C2423     1.0  0.85247  0.56997  0.44899  1.0000
  C   C2424     1.0  0.85969  0.55015  0.45119  1.0000
  C   C2425     1.0  0.85774  0.53295  0.44581  1.0000
  C   C2426     1.0  0.84870  0.53546  0.43809  1.0000
  H   H4133     1.0  0.83764  0.58762  0.43999  1.0000
  H   H4134     1.0  0.85388  0.58320  0.45339  1.0000
  H   H4135     1.0  0.90558  0.51761  0.45719  1.0000
  H   H4136     1.0  0.79651  0.57341  0.38006  1.0000
  H   H4137     1.0  0.75288  0.98471  0.40122  1.0000
  C   C2427     1.0  0.81546  0.61885  0.53502  1.0000
  C   C2428     1.0  0.81004  0.60325  0.54842  1.0000
  C   C2429     1.0  0.80390  0.59449  0.54059  1.0000
  C   C2430     1.0  0.80307  0.60145  0.51943  1.0000
  C   C2431     1.0  0.80821  0.61758  0.50630  1.0000
  C   C2432     1.0  0.81451  0.62607  0.51398  1.0000
  H   H4138     1.0  0.81080  0.59749  0.56466  1.0000
  H   H4139     1.0  0.79992  0.58216  0.55089  1.0000
  H   H4140     1.0  0.80717  0.62386  0.49032  1.0000
  H   H4141     1.0  0.81851  0.63848  0.50367  1.0000
  N   N172      1.0  0.90131  0.52378  0.40631  1.0000
  H   H4142     1.0  0.85302  0.65207  0.57867  1.0000
  H   H4143     1.0  0.79355  0.53560  0.64890  1.0000
  C   C2433     1.0  0.76959  0.53378  0.42339  1.0000
  C   C2434     1.0  0.77185  0.53797  0.44080  1.0000
  C   C2435     1.0  0.77558  0.55641  0.43877  1.0000
  C   C2436     1.0  0.77689  0.57097  0.41936  1.0000
  C   C2437     1.0  0.77481  0.56661  0.40187  1.0000
  C   C2438     1.0  0.77137  0.54787  0.40377  1.0000
  H   H4144     1.0  0.77058  0.52701  0.45599  1.0000
  H   H4145     1.0  0.77714  0.55969  0.45234  1.0000
  H   H4146     1.0  0.77598  0.57769  0.38675  1.0000
  H   H4147     1.0  0.77013  0.54431  0.39007  1.0000
  H   H4148     1.0  0.77937  0.63823  0.57800  1.0000
  H   H4149     1.0  0.85287  0.65354  0.63894  1.0000
  H   H4150     1.0  0.77421  0.52078  0.59681  1.0000
  H   H4151     1.0  0.74004  0.55428  0.43734  1.0000
  H   H4152     1.0  0.83684  0.55737  0.48798  1.0000
  H   H4153     1.0  0.76709  0.69560  0.52968  1.0000
  H   H4154     1.0  0.77255  0.53056  0.55985  1.0000
  H   H4155     1.0  0.75165  0.57749  0.41311  1.0000
  Fe  Fe358     1.0  0.89116  0.61027  0.63805  1.0000
  C   C2439     1.0  0.86066  0.69432  0.47166  1.0000
  C   C2440     1.0  0.86679  0.67411  0.47853  1.0000
  C   C2441     1.0  0.87192  0.66051  0.46453  1.0000
  C   C2442     1.0  0.87130  0.66736  0.44334  1.0000
  C   C2443     1.0  0.86568  0.68806  0.43608  1.0000
  C   C2444     1.0  0.86021  0.70142  0.45032  1.0000
  H   H4156     1.0  0.86744  0.66868  0.49474  1.0000
  H   H4157     1.0  0.87640  0.64474  0.47020  1.0000
  H   H4158     1.0  0.86545  0.69372  0.41955  1.0000
  H   H4159     1.0  0.85580  0.71731  0.44473  1.0000
  C   C2445     1.0  0.83264  0.78312  0.56315  1.0000
  C   C2446     1.0  0.82321  0.79880  0.56287  1.0000
  C   C2447     1.0  0.81801  0.80346  0.54611  1.0000
  C   C2448     1.0  0.82211  0.79212  0.52986  1.0000
  C   C2449     1.0  0.83141  0.77619  0.53038  1.0000
  C   C2450     1.0  0.83673  0.77195  0.54680  1.0000
  H   H4160     1.0  0.82008  0.80770  0.57529  1.0000
  H   H4161     1.0  0.81081  0.81580  0.54578  1.0000
  H   H4162     1.0  0.83463  0.76734  0.51794  1.0000
  H   H4163     1.0  0.84402  0.75998  0.54679  1.0000
  C   C2451     1.0  0.80621  0.69984  0.46832  1.0000
  C   C2452     1.0  0.80233  0.68099  0.47466  1.0000
  C   C2453     1.0  0.80301  0.66921  0.45983  1.0000
  C   C2454     1.0  0.80736  0.67650  0.43852  1.0000
  C   C2455     1.0  0.81112  0.69551  0.43211  1.0000
  C   C2456     1.0  0.81066  0.70704  0.44702  1.0000
  H   H4164     1.0  0.79885  0.67543  0.49103  1.0000
  H   H4165     1.0  0.80001  0.65467  0.46481  1.0000
  H   H4166     1.0  0.81439  0.70132  0.41559  1.0000
  H   H4167     1.0  0.81352  0.72175  0.44197  1.0000
  H   H4168     1.0  0.75059  0.59772  0.35341  1.0000
  N   N173      1.0  0.85326  0.64389  0.54946  1.0000
  C   C2457     1.0  0.89657  0.54433  0.39254  1.0000
  C   C2458     1.0  0.85283  0.62045  0.55636  1.0000
  H   H4169     1.0  0.91136  0.50111  0.37301  1.0000
  C   C2459     1.0  0.80535  0.82737  0.38186  1.0000
  C   C2460     1.0  0.80459  0.80740  0.39545  1.0000
  C   C2461     1.0  0.81303  0.79513  0.40511  1.0000
  C   C2462     1.0  0.82234  0.80265  0.40092  1.0000
  C   C2463     1.0  0.82304  0.82278  0.38761  1.0000
  C   C2464     1.0  0.81448  0.83530  0.37838  1.0000
  H   H4170     1.0  0.79752  0.80123  0.39825  1.0000
  H   H4171     1.0  0.81243  0.77962  0.41536  1.0000
  H   H4172     1.0  0.83021  0.82872  0.38452  1.0000
  C   C2465     1.0  0.75352  0.97813  0.35811  1.0000
  H   H4173     1.0  0.85950  0.63683  0.50752  1.0000
  C   C2466     1.0  0.80218  0.51852  0.44343  1.0000
  C   C2467     1.0  0.77494  0.96012  0.35963  1.0000
  C   C2468     1.0  0.76735  0.94738  0.36768  1.0000
  C   C2469     1.0  0.75663  0.95643  0.36716  1.0000
  H   H4174     1.0  0.76976  0.93052  0.37437  1.0000
  H   H4175     1.0  0.89203  0.52774  0.43753  1.0000
  H   H4176     1.0  0.86438  0.60853  0.57749  1.0000
  N   N174      1.0  0.84416  0.65664  0.42386  1.0000
  C   C2470     1.0  0.83969  0.67095  0.43965  1.0000
  C   C2471     1.0  0.85104  0.66834  0.40498  1.0000
  C   C2472     1.0  0.85082  0.63615  0.43412  1.0000
  C   C2473     1.0  0.83493  0.65235  0.41822  1.0000
  C   C2474     1.0  0.83381  0.66088  0.46179  1.0000
  C   C2475     1.0  0.84553  0.69065  0.39409  1.0000
  C   C2476     1.0  0.85911  0.62230  0.41948  1.0000
  C   C2477     1.0  0.83741  0.63901  0.40134  1.0000
  H   H4177     1.0  0.84614  0.67701  0.44211  1.0000
  H   H4178     1.0  0.83388  0.68541  0.43370  1.0000
  H   H4179     1.0  0.85462  0.65905  0.39249  1.0000
  H   H4180     1.0  0.85799  0.67046  0.40961  1.0000
  H   H4181     1.0  0.85545  0.63976  0.44367  1.0000
  H   H4182     1.0  0.84560  0.62559  0.44532  1.0000
  H   H4183     1.0  0.83000  0.64372  0.43237  1.0000
  H   H4184     1.0  0.82931  0.66754  0.41328  1.0000
  H   H4185     1.0  0.82683  0.65528  0.46127  1.0000
  H   H4186     1.0  0.83921  0.64772  0.47035  1.0000
  H   H4187     1.0  0.83066  0.67336  0.47137  1.0000
  H   H4188     1.0  0.84335  0.70246  0.40425  1.0000
  H   H4189     1.0  0.85122  0.69680  0.37969  1.0000
  H   H4190     1.0  0.83844  0.69008  0.38897  1.0000
  H   H4191     1.0  0.86365  0.60851  0.42932  1.0000
  H   H4192     1.0  0.86516  0.63093  0.40841  1.0000
  H   H4193     1.0  0.85546  0.61546  0.41077  1.0000
  H   H4194     1.0  0.83779  0.62179  0.40884  1.0000
  H   H4195     1.0  0.84474  0.64080  0.38915  1.0000
  H   H4196     1.0  0.83089  0.64455  0.39256  1.0000
  H   H4197     1.0  0.75999  0.57296  0.35269  1.0000
  N   N175      1.0  0.79931  0.75190  0.57251  1.0000
  C   C2478     1.0  0.80434  0.76123  0.58444  1.0000
  C   C2479     1.0  0.80424  0.72830  0.57532  1.0000
  C   C2480     1.0  0.78748  0.75539  0.58183  1.0000
  C   C2481     1.0  0.80158  0.76323  0.54966  1.0000
  C   C2482     1.0  0.79860  0.78380  0.58845  1.0000
  C   C2483     1.0  0.81649  0.72216  0.56881  1.0000
  C   C2484     1.0  0.78138  0.74001  0.57912  1.0000
  C   C2485     1.0  0.79702  0.75682  0.53427  1.0000
  H   H4198     1.0  0.80494  0.75061  0.60023  1.0000
  H   H4199     1.0  0.81268  0.76228  0.57607  1.0000
  H   H4200     1.0  0.80110  0.72036  0.56668  1.0000
  H   H4201     1.0  0.80199  0.72034  0.59213  1.0000
  H   H4202     1.0  0.78595  0.75369  0.59922  1.0000
  H   H4203     1.0  0.78341  0.77207  0.57558  1.0000
  H   H4204     1.0  0.79844  0.78077  0.54796  1.0000
  H   H4205     1.0  0.81025  0.76188  0.54321  1.0000
  H   H4206     1.0  0.80369  0.78961  0.59518  1.0000
  H   H4207     1.0  0.79715  0.79568  0.57387  1.0000
  H   H4208     1.0  0.79099  0.78351  0.60035  1.0000
  H   H4209     1.0  0.81952  0.72870  0.55188  1.0000
  H   H4210     1.0  0.82041  0.72702  0.57871  1.0000
  H   H4211     1.0  0.81894  0.70445  0.57143  1.0000
  H   H4212     1.0  0.78207  0.73982  0.56251  1.0000
  H   H4213     1.0  0.77278  0.74525  0.58600  1.0000
  H   H4214     1.0  0.78391  0.72345  0.58801  1.0000
  H   H4215     1.0  0.78859  0.76531  0.53464  1.0000
  H   H4216     1.0  0.79782  0.73937  0.53690  1.0000
  H   H4217     1.0  0.80172  0.76134  0.51799  1.0000
  C   C2486     1.0  0.79179  0.56982  0.63842  1.0000
  C   C2487     1.0  0.92162  0.54750  0.64949  1.0000
  S   S719      1.0  0.78870  0.67627  0.61642  1.0000
  S   S720      1.0  0.74261  0.50052  0.40433  1.0000
  S   S721      1.0  0.83661  0.77630  0.64358  1.0000
  H   H4218     1.0  0.93628  0.53448  0.42143  1.0000
  H   H4219     1.0  0.80512  0.51180  0.45829  1.0000
  H   H4220     1.0  0.84483  0.60822  0.48147  1.0000
  Fe  Fe359     1.0  0.81041  0.60053  0.62221  1.0000
  H   H4221     1.0  0.91717  0.58301  0.36703  1.0000
  H   H4222     1.0  0.75081  0.94648  0.37330  1.0000
  H   H4223     1.0  0.83540  0.59152  0.49151  1.0000
  H   H4224     1.0  0.89427  0.50663  0.39236  1.0000
  C   C2488     1.0  0.80065  0.69576  0.63013  1.0000
  C   C2489     1.0  0.92083  0.71019  0.63500  1.0000
  H   H4225     1.0  0.76865  0.57682  0.59564  1.0000
  N   N176      1.0  0.80939  0.52973  0.40302  1.0000
  H   H4226     1.0  0.82567  0.84564  0.33530  1.0000
  H   H4227     1.0  0.76969  0.57759  0.53511  1.0000
  S   S722      1.0  0.83754  0.64301  0.62391  1.0000
  H   H4228     1.0  0.83198  0.53583  0.50761  1.0000
  S   S723      1.0  0.79471  0.75396  0.64517  1.0000
  S   S724      1.0  0.92987  0.59813  0.63999  1.0000
  H   H4229     1.0  0.75544  0.53029  0.59428  1.0000
  S   S725      1.0  0.89059  0.68766  0.63670  1.0000
  C   C2490     1.0  0.81182  0.51837  0.42445  1.0000
  H   H4230     1.0  0.79567  0.99237  0.34173  1.0000
  C   C2491     1.0  0.89523  0.50713  0.40808  1.0000
  C   C2492     1.0  0.79322  0.67919  0.56022  1.0000
  N   N177      1.0  0.92508  0.58047  0.49327  1.0000
  C   C2493     1.0  0.93174  0.58312  0.47098  1.0000
  C   C2494     1.0  0.91834  0.60224  0.49587  1.0000
  C   C2495     1.0  0.91788  0.56575  0.49527  1.0000
  C   C2496     1.0  0.93237  0.57109  0.50863  1.0000
  C   C2497     1.0  0.93948  0.56271  0.46476  1.0000
  C   C2498     1.0  0.92448  0.61989  0.49251  1.0000
  C   C2499     1.0  0.91038  0.56031  0.51689  1.0000
  C   C2500     1.0  0.92791  0.57509  0.53133  1.0000
  H   H4231     1.0  0.92654  0.58997  0.45927  1.0000
  H   H4232     1.0  0.93688  0.59469  0.46808  1.0000
  H   H4233     1.0  0.91301  0.60160  0.51166  1.0000
  H   H4234     1.0  0.91285  0.60823  0.48474  1.0000
  H   H4235     1.0  0.91280  0.57265  0.48338  1.0000
  H   H4236     1.0  0.92254  0.55002  0.49186  1.0000
  H   H4237     1.0  0.93512  0.55346  0.50991  1.0000
  H   H4238     1.0  0.93970  0.57777  0.50247  1.0000
  H   H4239     1.0  0.93530  0.55077  0.46404  1.0000
  H   H4240     1.0  0.94426  0.56723  0.44854  1.0000
  H   H4241     1.0  0.94518  0.55515  0.47528  1.0000
  H   H4242     1.0  0.93128  0.61433  0.50043  1.0000
  H   H4243     1.0  0.90505  0.55078  0.51553  1.0000
  H   H4244     1.0  0.90511  0.57467  0.52227  1.0000
  H   H4245     1.0  0.91487  0.55017  0.52900  1.0000
  H   H4246     1.0  0.93123  0.56084  0.54263  1.0000
  H   H4247     1.0  0.91916  0.57789  0.53683  1.0000
  S   S726      1.0  0.80672  0.89453  0.34193  1.0000
  N   N178      1.0  0.84657  0.56268  0.52304  1.0000
  C   C2501     1.0  0.85561  0.55295  0.53446  1.0000
  C   C2502     1.0  0.83705  0.57177  0.53857  1.0000
  C   C2503     1.0  0.84993  0.58040  0.50494  1.0000
  C   C2504     1.0  0.84462  0.54534  0.51502  1.0000
  C   C2505     1.0  0.86668  0.54563  0.52065  1.0000
  C   C2506     1.0  0.83278  0.55544  0.55807  1.0000
  C   C2507     1.0  0.84108  0.59789  0.49594  1.0000
  H   H4248     1.0  0.85654  0.56453  0.54273  1.0000
  H   H4249     1.0  0.85398  0.53861  0.54693  1.0000
  H   H4250     1.0  0.83023  0.58036  0.53111  1.0000
  H   H4251     1.0  0.83892  0.58423  0.54435  1.0000
  H   H4252     1.0  0.85453  0.58921  0.50980  1.0000
  H   H4253     1.0  0.85540  0.57363  0.49149  1.0000
  H   H4254     1.0  0.85154  0.54020  0.50249  1.0000
  H   H4255     1.0  0.84429  0.53038  0.52746  1.0000
  H   H4256     1.0  0.79543  0.66487  0.57253  1.0000
  C   C2508     1.0  0.81922  0.52346  0.38664  1.0000
  C   C2509     1.0  0.80020  0.52203  0.40081  1.0000
  H   H4257     1.0  0.83051  0.54275  0.55359  1.0000
  H   H4258     1.0  0.83850  0.54823  0.56857  1.0000
  H   H4259     1.0  0.82547  0.56390  0.56760  1.0000
  H   H4260     1.0  0.87943  0.54414  0.39956  1.0000
  H   H4261     1.0  0.92412  0.50691  0.36892  1.0000
  N   N179      1.0  0.86301  0.70944  0.59048  1.0000
  C   C2510     1.0  0.85451  0.70961  0.61059  1.0000
  C   C2511     1.0  0.87132  0.71995  0.59213  1.0000
  C   C2512     1.0  0.86783  0.68628  0.58939  1.0000
  C   C2513     1.0  0.85777  0.72123  0.57219  1.0000
  C   C2514     1.0  0.84534  0.69865  0.61280  1.0000
  C   C2515     1.0  0.86757  0.74384  0.59316  1.0000
  C   C2516     1.0  0.87887  0.68131  0.57458  1.0000
  C   C2517     1.0  0.86510  0.72597  0.55009  1.0000
  H   H4262     1.0  0.85812  0.70175  0.62457  1.0000
  H   H4263     1.0  0.85059  0.72624  0.61249  1.0000
  H   H4264     1.0  0.87834  0.71894  0.57883  1.0000
  H   H4265     1.0  0.87467  0.71112  0.60624  1.0000
  H   H4266     1.0  0.86878  0.67646  0.60534  1.0000
  H   H4267     1.0  0.86240  0.67934  0.58474  1.0000
  H   H4268     1.0  0.85228  0.71217  0.57063  1.0000
  H   H4269     1.0  0.85239  0.73661  0.57528  1.0000
  H   H4270     1.0  0.84813  0.68196  0.61065  1.0000
  H   H4271     1.0  0.84037  0.69778  0.62909  1.0000
  H   H4272     1.0  0.84005  0.70807  0.60186  1.0000
  H   H4273     1.0  0.86174  0.74638  0.60800  1.0000
  H   H4274     1.0  0.87454  0.74999  0.59293  1.0000
  H   H4275     1.0  0.86420  0.75375  0.57941  1.0000
  H   H4276     1.0  0.88078  0.66421  0.57359  1.0000
  H   H4277     1.0  0.88525  0.68338  0.58097  1.0000
  H   H4278     1.0  0.87927  0.69076  0.55828  1.0000
  H   H4279     1.0  0.86605  0.71350  0.54126  1.0000
  H   H4280     1.0  0.87304  0.72782  0.55015  1.0000
  H   H4281     1.0  0.86152  0.74158  0.54086  1.0000
  C   C2518     1.0  0.91542  0.51327  0.37368  1.0000
  H   H4282     1.0  0.88248  0.57007  0.39048  1.0000
  H   H4283     1.0  0.80766  0.58367  0.37961  1.0000
  C   C2519     1.0  0.78564  0.54781  0.57223  1.0000
  H   H4284     1.0  0.77471  0.53619  0.65001  1.0000
  C   C2520     1.0  0.86739  0.60248  0.64693  1.0000
  S   S727      1.0  0.80950  0.62604  0.63916  1.0000
  C   C2521     1.0  0.77000  0.53767  0.59740  1.0000
  H   H4285     1.0  0.74576  0.95208  0.33667  1.0000
  H   H4286     1.0  0.93861  0.66030  0.63198  1.0000
  H   H4287     1.0  0.81755  0.52542  0.42818  1.0000
  C   C2522     1.0  0.79339  0.73025  0.64025  1.0000
  H   H4288     1.0  0.74399  0.53858  0.41743  1.0000
  H   H4289     1.0  0.84741  0.62690  0.51851  1.0000
  H   H4290     1.0  0.81576  0.50122  0.42468  1.0000
  H   H4291     1.0  0.80489  0.51563  0.36869  1.0000
  N   N180      1.0  0.77362  0.55280  0.57693  1.0000
  C   C2523     1.0  0.75795  0.53801  0.60416  1.0000
  C   C2524     1.0  0.86714  0.66787  0.53743  1.0000
  H   H4292     1.0  0.77236  0.68760  0.57333  1.0000
  H   H4293     1.0  0.84729  0.52205  0.43391  1.0000
  H   H4294     1.0  0.80117  0.50442  0.40728  1.0000
  Fe  Fe360     1.0  0.94706  0.52627  0.33689  1.0000
  H   H4295     1.0  0.86482  0.67450  0.55170  1.0000
  S   S728      1.0  0.78081  0.89911  0.34884  1.0000
  C   C2525     1.0  0.93126  0.65899  0.62850  1.0000
  H   H4296     1.0  0.75303  0.55442  0.60414  1.0000
  H   H4297     1.0  0.80985  0.56262  0.36689  1.0000
  C   C2526     1.0  0.80208  0.71333  0.63614  1.0000
  N   N181      1.0  0.81130  0.84481  0.45084  1.0000
  C   C2527     1.0  0.82015  0.82525  0.44843  1.0000
  C   C2528     1.0  0.80100  0.83710  0.45881  1.0000
  C   C2529     1.0  0.81302  0.85413  0.46734  1.0000
  C   C2530     1.0  0.81187  0.86048  0.42977  1.0000
  C   C2531     1.0  0.83164  0.82890  0.44133  1.0000
  C   C2532     1.0  0.79798  0.82746  0.44346  1.0000
  C   C2533     1.0  0.80479  0.87414  0.47303  1.0000
  C   C2534     1.0  0.80171  0.87788  0.42629  1.0000
  H   H4298     1.0  0.81976  0.81295  0.46348  1.0000
  H   H4299     1.0  0.81926  0.81746  0.43665  1.0000
  H   H4300     1.0  0.79410  0.84988  0.46324  1.0000
  H   H4301     1.0  0.80126  0.82471  0.47379  1.0000
  H   H4302     1.0  0.81337  0.84177  0.48231  1.0000
  H   H4303     1.0  0.82080  0.85903  0.46226  1.0000
  H   H4304     1.0  0.81845  0.86892  0.42668  1.0000
  H   H4305     1.0  0.81401  0.85168  0.41678  1.0000
  H   H4306     1.0  0.83417  0.83256  0.45404  1.0000
  H   H4307     1.0  0.83717  0.81383  0.43781  1.0000
  H   H4308     1.0  0.83281  0.84136  0.42665  1.0000
  H   H4309     1.0  0.78974  0.82483  0.44986  1.0000
  H   H4310     1.0  0.79817  0.83803  0.42756  1.0000
  H   H4311     1.0  0.80317  0.81161  0.44190  1.0000
  H   H4312     1.0  0.80499  0.88810  0.45952  1.0000
  H   H4313     1.0  0.80695  0.87862  0.48575  1.0000
  H   H4314     1.0  0.79661  0.87134  0.47939  1.0000
  H   H4315     1.0  0.80382  0.89383  0.42002  1.0000
  H   H4316     1.0  0.79525  0.87924  0.44045  1.0000
  H   H4317     1.0  0.79845  0.87524  0.41395  1.0000
  Fe  Fe361     1.0  0.81858  0.62633  0.57921  1.0000
  N   N182      1.0  0.73915  0.58336  0.39606  1.0000
  C   C2535     1.0  0.91293  0.51765  0.39602  1.0000
  H   H4318     1.0  0.90122  0.54478  0.42600  1.0000
  H   H4319     1.0  0.91899  0.56502  0.64433  1.0000
  C   C2536     1.0  0.74443  0.58986  0.40978  1.0000
  C   C2537     1.0  0.84759  0.65444  0.56792  1.0000
  H   H4320     1.0  0.84094  0.64667  0.57778  1.0000
  H   H4321     1.0  0.78121  0.65386  0.59433  1.0000
  Fe  Fe362     1.0  0.79201  0.92084  0.34229  1.0000
  H   H4322     1.0  0.85586  0.59117  0.58016  1.0000
  H   H4323     1.0  0.77898  0.59852  0.57265  1.0000
  C   C2538     1.0  0.86072  0.59233  0.64212  1.0000
  Fe  Fe363     1.0  0.74474  0.51730  0.37014  1.0000
  C   C2539     1.0  0.92110  0.66164  0.64629  1.0000
  C   C2540     1.0  0.77627  0.65325  0.58389  1.0000
  H   H4324     1.0  0.83958  0.68450  0.57766  1.0000
  N   N183      1.0  0.78550  0.67572  0.54942  1.0000
  H   H4325     1.0  0.86310  0.67930  0.52525  1.0000
  H   H4326     1.0  0.85805  0.61147  0.54421  1.0000
  C   C2541     1.0  0.77054  0.57042  0.63923  1.0000
  H   H4327     1.0  0.77411  0.71179  0.63107  1.0000
  H   H4328     1.0  0.83671  0.60845  0.50714  1.0000
  C   C2542     1.0  0.85615  0.60826  0.57745  1.0000
  H   H4329     1.0  0.84459  0.61853  0.55807  1.0000
  C   C2543     1.0  0.78332  0.69549  0.53241  1.0000
  C   C2544     1.0  0.79065  0.55046  0.58916  1.0000
  H   H4330     1.0  0.86959  0.55923  0.50887  1.0000
  C   C2545     1.0  0.73940  0.92419  0.35179  1.0000
  H   H4331     1.0  0.92627  0.72120  0.62611  1.0000
  S   S729      1.0  0.80221  0.62298  0.59720  1.0000
  H   H4332     1.0  0.76887  0.60455  0.62830  1.0000
  H   H4333     1.0  0.79715  0.54253  0.37006  1.0000
  H   H4334     1.0  0.81499  0.85091  0.36837  1.0000
  H   H4335     1.0  0.77419  0.71249  0.50861  1.0000
  H   H4336     1.0  0.82781  0.56172  0.51258  1.0000
  H   H4337     1.0  0.91621  0.51673  0.43458  1.0000
  Fe  Fe364     1.0  0.80258  0.64859  0.61257  1.0000
  H   H4338     1.0  0.81183  0.97191  0.32967  1.0000
  C   C2546     1.0  0.82925  0.53030  0.38719  1.0000
  C   C2547     1.0  0.74765  0.61181  0.40186  1.0000
  H   H4339     1.0  0.77749  0.99206  0.34551  1.0000
  H   H4340     1.0  0.91438  0.66948  0.63813  1.0000
  H   H4341     1.0  0.78729  0.60412  0.62901  1.0000
  H   H4342     1.0  0.93074  0.58856  0.53318  1.0000
  H   H4343     1.0  0.91901  0.63349  0.49919  1.0000
  H   H4344     1.0  0.84736  0.65184  0.49984  1.0000
  C   C2548     1.0  0.77539  0.67341  0.56589  1.0000
  H   H4345     1.0  0.84755  0.68859  0.55136  1.0000
  C   C2549     1.0  0.78328  0.72916  0.63908  1.0000
  H   H4346     1.0  0.78414  0.62903  0.54104  1.0000
  H   H4347     1.0  0.82336  0.78327  0.33747  1.0000
  H   H4348     1.0  0.79716  0.65956  0.52638  1.0000
  H   H4349     1.0  0.78716  0.56600  0.59397  1.0000
  H   H4350     1.0  0.88687  0.51165  0.41691  1.0000
  C   C2550     1.0  0.85079  0.64144  0.51339  1.0000
  H   H4351     1.0  0.80917  0.68411  0.55601  1.0000
  S   S730      1.0  0.93424  0.55415  0.34658  1.0000
  H   H4352     1.0  0.93456  0.68842  0.64490  1.0000
  H   H4353     1.0  0.87584  0.66677  0.53136  1.0000
  H   H4354     1.0  0.88290  0.55618  0.41697  1.0000
  H   H4355     1.0  0.92990  0.67033  0.61350  1.0000
  H   H4356     1.0  0.75241  0.55735  0.38920  1.0000
  C   C2551     1.0  0.84766  0.65374  0.53133  1.0000
  C   C2552     1.0  0.93041  0.55683  0.37300  1.0000
  C   C2553     1.0  0.84227  0.67851  0.56281  1.0000
  C   C2554     1.0  0.77422  0.58947  0.63294  1.0000
  H   H4357     1.0  0.76881  0.67330  0.55905  1.0000
  H   H4358     1.0  0.92225  0.54045  0.63595  1.0000
  H   H4359     1.0  0.80277  0.70030  0.53543  1.0000
  H   H4360     1.0  0.94284  0.53124  0.38392  1.0000
  C   C2555     1.0  0.87700  0.69552  0.64809  1.0000
  H   H4361     1.0  0.77483  0.65379  0.53618  1.0000
  C   C2556     1.0  0.81894  0.79791  0.34349  1.0000
  Fe  Fe365     1.0  0.82531  0.62977  0.61733  1.0000
  H   H4362     1.0  0.86878  0.63829  0.52863  1.0000
  C   C2557     1.0  0.78812  0.55068  0.64468  1.0000
  H   H4363     1.0  0.86925  0.63595  0.55508  1.0000
  H   H4364     1.0  0.80822  0.67198  0.53641  1.0000
  H   H4365     1.0  0.79070  0.69733  0.52028  1.0000
  S   S731      1.0  0.75751  0.57138  0.63766  1.0000
  C   C2558     1.0  0.78337  0.64618  0.53309  1.0000
  H   H4366     1.0  0.79468  0.64316  0.55168  1.0000
  C   C2559     1.0  0.86482  0.64538  0.54264  1.0000
  H   H4367     1.0  0.84875  0.67032  0.52392  1.0000
  H   H4368     1.0  0.83505  0.68098  0.55665  1.0000
  S   S732      1.0  0.82705  0.60199  0.60279  1.0000
  H   H4369     1.0  0.83207  0.52230  0.40200  1.0000
  C   C2560     1.0  0.90806  0.51367  0.44133  1.0000
  C   C2561     1.0  0.79063  0.65612  0.54024  1.0000
  H   H4370     1.0  0.77797  0.68466  0.50973  1.0000
  S   S733      1.0  0.76112  0.52237  0.36716  1.0000
  H   H4371     1.0  0.76025  0.58002  0.57835  1.0000
  C   C2562     1.0  0.77512  0.69664  0.51977  1.0000
  C   C2563     1.0  0.80387  0.68415  0.54593  1.0000
  H   H4372     1.0  0.78072  0.71009  0.53917  1.0000
  S   S734      1.0  0.90642  0.59853  0.61639  1.0000
  H   H4373     1.0  0.79261  0.52954  0.41037  1.0000
  H   H4374     1.0  0.74605  0.91675  0.36015  1.0000
  H   H4375     1.0  0.78884  0.53102  0.57007  1.0000
  H   H4376     1.0  0.80739  0.68293  0.62655  1.0000
  C   C2564     1.0  0.90018  0.52828  0.42772  1.0000
  C   C2565     1.0  0.84859  0.62665  0.63393  1.0000
  H   H4377     1.0  0.87255  0.53861  0.53091  1.0000
  H   H4378     1.0  0.79897  0.55765  0.41374  1.0000
  H   H4379     1.0  0.76816  0.60768  0.55979  1.0000
  C   C2566     1.0  0.80651  0.55348  0.40224  1.0000
  Fe  Fe366     1.0  0.81057  0.75998  0.64463  1.0000
  C   C2567     1.0  0.77432  0.59331  0.56439  1.0000
  H   H4380     1.0  0.77951  0.58928  0.54958  1.0000
  C   C2568     1.0  0.78472  0.58922  0.63297  1.0000
  H   H4381     1.0  0.84011  0.78917  0.33459  1.0000
  H   H4382     1.0  0.86680  0.53311  0.51258  1.0000
  S   S735      1.0  0.80515  0.56919  0.63769  1.0000
  H   H4383     1.0  0.91697  0.53051  0.39495  1.0000
  C   C2569     1.0  0.88468  0.55397  0.40062  1.0000
  S   S736      1.0  0.78849  0.94829  0.35820  1.0000
  H   H4384     1.0  0.77041  0.55430  0.52641  1.0000
  C   C2570     1.0  0.77335  0.56025  0.53713  1.0000
  H   H4385     1.0  0.89714  0.54208  0.37651  1.0000
  H   H4386     1.0  0.78211  0.55757  0.53150  1.0000
  C   C2571     1.0  0.75488  0.58366  0.36337  1.0000
  H   H4387     1.0  0.90112  0.55691  0.39010  1.0000
  C   C2572     1.0  0.76988  0.54798  0.55993  1.0000
  H   H4388     1.0  0.82795  0.54792  0.38492  1.0000
  H   H4389     1.0  0.84625  0.59669  0.63149  1.0000
  H   H4390     1.0  0.76033  0.58844  0.37003  1.0000
  C   C2573     1.0  0.85129  0.60444  0.63557  1.0000
  C   C2574     1.0  0.78191  0.71200  0.63265  1.0000
  H   H4391     1.0  0.79690  0.50834  0.44321  1.0000
  H   H4392     1.0  0.81794  0.52998  0.37036  1.0000
  C   C2575     1.0  0.81791  0.81779  0.32534  1.0000
  H   H4393     1.0  0.78905  0.55764  0.55707  1.0000
  H   H4394     1.0  0.75287  0.61276  0.41172  1.0000
  H   H4395     1.0  0.75212  0.61465  0.38532  1.0000
  H   H4396     1.0  0.91925  0.70303  0.62346  1.0000
  H   H4397     1.0  0.73906  0.59077  0.42556  1.0000
  H   H4398     1.0  0.86297  0.57526  0.64292  1.0000
  H   H4399     1.0  0.86326  0.51757  0.44762  1.0000
  H   H4400     1.0  0.83582  0.52549  0.37404  1.0000
  Fe  Fe367     1.0  0.91369  0.61461  0.63250  1.0000
  H   H4401     1.0  0.78994  0.53724  0.60336  1.0000
  C   C2576     1.0  0.77171  0.98208  0.35158  1.0000
  C   C2577     1.0  0.87223  0.71738  0.64608  1.0000
  C   C2578     1.0  0.74336  0.94001  0.33144  1.0000
  C   C2579     1.0  0.79838  0.52557  0.37840  1.0000
  H   H4402     1.0  0.90829  0.49647  0.44365  1.0000
  H   H4403     1.0  0.91328  0.72018  0.64215  1.0000
  C   C2580     1.0  0.76102  0.99104  0.35061  1.0000
  H   H4404     1.0  0.80989  0.71394  0.63728  1.0000
  H   H4405     1.0  0.79742  0.53485  0.44428  1.0000
  H   H4406     1.0  0.91358  0.52819  0.36171  1.0000
  H   H4407     1.0  0.82127  0.50574  0.38822  1.0000
  H   H4408     1.0  0.91975  0.64533  0.65448  1.0000
  C   C2581     1.0  0.74729  0.57117  0.38071  1.0000
  H   H4409     1.0  0.79099  0.52025  0.37972  1.0000
  H   H4410     1.0  0.93291  0.64280  0.62517  1.0000
  H   H4411     1.0  0.82256  0.79977  0.35558  1.0000
  H   H4412     1.0  0.74332  0.56411  0.37266  1.0000
  H   H4413     1.0  0.77653  0.74206  0.64245  1.0000
  H   H4414     1.0  0.91725  0.50333  0.40563  1.0000
  H   H4415     1.0  0.75085  0.93110  0.32292  1.0000
  H   H4416     1.0  0.87696  0.72922  0.63774  1.0000
  H   H4417     1.0  0.84524  0.84483  0.33081  1.0000
  H   H4418     1.0  0.92973  0.54358  0.65260  1.0000
  C   C2582     1.0  0.86442  0.62449  0.64602  1.0000
  H   H4419     1.0  0.81083  0.79527  0.35174  1.0000
  C   C2583     1.0  0.83204  0.83323  0.32822  1.0000
  S   S737      1.0  0.87979  0.58821  0.65274  1.0000
  H   H4420     1.0  0.83396  0.82046  0.34195  1.0000
  C   C2584     1.0  0.86129  0.72401  0.65427  1.0000
  H   H4421     1.0  0.85763  0.74089  0.65228  1.0000
  H   H4422     1.0  0.94978  0.58113  0.65261  1.0000
  H   H4423     1.0  0.86930  0.63229  0.65048  1.0000
  S   S738      1.0  0.74027  0.98881  0.35592  1.0000
  H   H4424     1.0  0.74471  0.52524  0.32594  1.0000
  H   H4425     1.0  0.74053  0.62507  0.40366  1.0000
  S   S739      1.0  0.96474  0.52458  0.32618  1.0000
  C   C2585     1.0  0.73727  0.54933  0.42573  1.0000
  Fe  Fe368     1.0  0.76635  0.92791  0.89484  1.0000
  S   S740      1.0  0.76983  0.91703  0.86456  1.0000
  S   S741      1.0  0.77953  0.93967  0.90007  1.0000
  H   H4426     1.0  0.77884  0.53079  0.68796  1.0000
  H   H4427     1.0  0.95572  0.51036  0.77834  1.0000
  H   H4428     1.0  0.79000  0.50066  0.70130  1.0000
  Fe  Fe369     1.0  0.76567  0.88644  0.88484  1.0000
  S   S742      1.0  0.77522  0.85349  0.88185  1.0000
  Fe  Fe370     1.0  0.75228  0.92848  0.86634  1.0000
  H   H4429     1.0  0.81957  0.92452  0.89645  1.0000
  S   S743      1.0  0.76354  0.89618  0.91511  1.0000
  C   C2586     1.0  0.92107  0.54576  0.69410  1.0000
  Fe  Fe371     1.0  0.81550  0.88606  0.78318  1.0000
  S   S744      1.0  0.82988  0.89629  0.76025  1.0000
  S   S745      1.0  0.81752  0.86168  0.81307  1.0000
  Fe  Fe372     1.0  0.80040  0.91424  0.75585  1.0000
  S   S746      1.0  0.81350  0.92666  0.73084  1.0000
  S   S747      1.0  0.78326  0.92570  0.75367  1.0000
  Fe  Fe373     1.0  0.82246  0.89224  0.73572  1.0000
  S   S748      1.0  0.83170  0.87701  0.70767  1.0000
  Fe  Fe374     1.0  0.81944  0.92947  0.75787  1.0000
  S   S749      1.0  0.82299  0.96133  0.75671  1.0000
  S   S750      1.0  0.80882  0.87974  0.75903  1.0000
  S   S751      1.0  0.80563  0.91938  0.78249  1.0000
  H   H4430     1.0  0.79176  0.98393  0.69372  1.0000
  H   H4431     1.0  0.92225  0.64638  0.68786  1.0000
  C   C2587     1.0  0.77134  0.98771  0.84309  1.0000
  H   H4432     1.0  0.92592  0.70152  0.66445  1.0000
  C   C2588     1.0  0.95985  0.49611  0.78752  1.0000
  C   C2589     1.0  0.95064  0.53381  0.86978  1.0000
  H   H4433     1.0  0.80523  0.53876  0.69845  1.0000
  H   H4434     1.0  0.94093  0.64061  0.68807  1.0000
  S   S752      1.0  0.74762  0.52310  0.73923  1.0000
  H   H4435     1.0  0.96104  0.54403  0.83770  1.0000
  C   C2590     1.0  0.84630  0.72931  0.72288  1.0000
  C   C2591     1.0  0.80717  0.91032  0.68699  1.0000
  C   C2592     1.0  0.90524  0.57082  0.68208  1.0000
  S   S753      1.0  0.97273  0.58995  0.73261  1.0000
  Fe  Fe375     1.0  0.97310  0.52940  0.74421  1.0000
  S   S754      1.0  0.96074  0.55169  0.76252  1.0000
  H   H4436     1.0  0.77146  0.98034  0.81436  1.0000
  Fe  Fe376     1.0  0.96011  0.57418  0.73089  1.0000
  S   S755      1.0  0.94377  0.59226  0.72451  1.0000
  Fe  Fe377     1.0  0.97434  0.56522  0.76272  1.0000
  S   S756      1.0  0.97602  0.56684  0.79474  1.0000
  S   S757      1.0  0.97150  0.55048  0.71253  1.0000
  H   H4437     1.0  0.80643  0.90729  0.82755  1.0000
  H   H4438     1.0  0.92530  0.66909  0.69190  1.0000
  C   C2593     1.0  0.76310  0.57231  0.69380  1.0000
  H   H4439     1.0  0.75631  0.82012  0.90483  1.0000
  H   H4440     1.0  0.95877  0.56208  0.88144  1.0000
  H   H4441     1.0  0.75051  0.80285  0.88515  1.0000
  S   S758      1.0  0.98671  0.54131  0.74653  1.0000
  H   H4442     1.0  0.79489  0.88474  0.91472  1.0000
  H   H4443     1.0  0.91682  0.52048  0.67266  1.0000
  S   S759      1.0  0.81536  0.75943  0.67403  1.0000
  H   H4444     1.0  0.75693  0.57690  0.70754  1.0000
  H   H4445     1.0  0.76151  0.55039  0.73314  1.0000
  H   H4446     1.0  0.89402  0.52605  0.68838  1.0000
  C   C2594     1.0  0.87084  0.68028  0.65878  1.0000
  H   H4447     1.0  0.80085  0.86635  0.69030  1.0000
  H   H4448     1.0  0.94786  0.49827  0.81610  1.0000
  H   H4449     1.0  0.84830  0.71646  0.73659  1.0000
  C   C2595     1.0  0.93992  0.59284  0.70131  1.0000
  C   C2596     1.0  0.92930  0.60179  0.69958  1.0000
  C   C2597     1.0  0.92606  0.60346  0.68092  1.0000
  S   S760      1.0  0.75445  0.51659  0.68065  1.0000
  C   C2598     1.0  0.95627  0.51364  0.90277  1.0000
  C   C2599     1.0  0.94725  0.58522  0.68436  1.0000
  H   H4450     1.0  0.92588  0.52904  0.69519  1.0000
  H   H4451     1.0  0.95546  0.57842  0.68546  1.0000
  H   H4452     1.0  0.78209  0.89415  0.73428  1.0000
  C   C2600     1.0  0.78588  0.87048  0.68172  1.0000
  H   H4453     1.0  0.79854  0.98966  0.78096  1.0000
  C   C2601     1.0  0.77951  0.96715  0.89344  1.0000
  S   S761      1.0  0.81259  0.81547  0.67834  1.0000
  H   H4454     1.0  0.79604  0.96523  0.79801  1.0000
  N   N184      1.0  0.95997  0.51992  0.87907  1.0000
  N   N185      1.0  0.92089  0.67415  0.66206  1.0000
  H   H4455     1.0  0.74921  0.84546  0.85143  1.0000
  H   H4456     1.0  0.78394  0.92796  0.70104  1.0000
  C   C2602     1.0  0.82580  0.98004  0.81532  1.0000
  C   C2603     1.0  0.78417  0.88371  0.72273  1.0000
  H   H4457     1.0  0.92359  0.60762  0.71270  1.0000
  H   H4458     1.0  0.80286  0.92644  0.68016  1.0000
  C   C2604     1.0  0.77760  0.98053  0.82251  1.0000
  H   H4459     1.0  0.93939  0.63774  0.66381  1.0000
  H   H4460     1.0  0.91113  0.58060  0.67230  1.0000
  H   H4461     1.0  0.82291  0.89671  0.85097  1.0000
  C   C2605     1.0  0.82376  0.98933  0.77904  1.0000
  C   C2606     1.0  0.80001  0.89832  0.70610  1.0000
  C   C2607     1.0  0.84478  0.75132  0.72805  1.0000
  H   H4462     1.0  0.76553  0.53245  0.76731  1.0000
  H   H4463     1.0  0.96227  0.50921  0.83811  1.0000
  H   H4464     1.0  0.77947  0.86675  0.69557  1.0000
  H   H4465     1.0  0.75498  0.81925  0.84628  1.0000
  H   H4466     1.0  0.81476  0.88132  0.84901  1.0000
  C   C2608     1.0  0.74775  0.96987  0.82648  1.0000
  C   C2609     1.0  0.77003  0.98275  0.89493  1.0000
  H   H4467     1.0  0.82587  0.91214  0.87449  1.0000
  H   H4468     1.0  0.79793  0.88866  0.67041  1.0000
  H   H4469     1.0  0.82510  0.79313  0.74126  1.0000
  H   H4470     1.0  0.75477  0.84615  0.88832  1.0000
  H   H4471     1.0  0.97219  0.53655  0.85777  1.0000
  C   C2610     1.0  0.90277  0.66586  0.68474  1.0000
  C   C2611     1.0  0.79893  0.97649  0.83184  1.0000
  H   H4472     1.0  0.79665  0.96144  0.88582  1.0000
  H   H4473     1.0  0.98433  0.55904  0.83152  1.0000
  C   C2612     1.0  0.76989  0.54785  0.73433  1.0000
  H   H4474     1.0  0.81609  0.93729  0.87172  1.0000
  C   C2613     1.0  0.90941  0.68272  0.67192  1.0000
  H   H4475     1.0  0.83890  0.72719  0.72007  1.0000
  H   H4476     1.0  0.78147  0.96327  0.82672  1.0000
  H   H4477     1.0  0.98247  0.50072  0.70496  1.0000
  H   H4478     1.0  0.74014  0.80464  0.92146  1.0000
  H   H4479     1.0  0.76078  0.82913  0.86145  1.0000
  H   H4480     1.0  0.84324  0.79688  0.66974  1.0000
  C   C2614     1.0  0.77227  0.96728  0.74660  1.0000
  C   C2615     1.0  0.95322  0.54905  0.84795  1.0000
  C   C2616     1.0  0.89862  0.58206  0.70037  1.0000
  C   C2617     1.0  0.96868  0.50204  0.84707  1.0000
  H   H4481     1.0  0.81381  0.91274  0.69231  1.0000
  C   C2618     1.0  0.82405  0.96793  0.77962  1.0000
  C   C2619     1.0  0.82529  0.95247  0.79814  1.0000
  C   C2620     1.0  0.82639  0.95847  0.81580  1.0000
  H   H4482     1.0  0.83722  0.80511  0.70657  1.0000
  H   H4483     1.0  0.95241  0.56555  0.84980  1.0000
  H   H4484     1.0  0.82567  0.93587  0.79867  1.0000
  H   H4485     1.0  0.82761  0.94642  0.82991  1.0000
  C   C2621     1.0  0.93345  0.59615  0.66387  1.0000
  H   H4486     1.0  0.97586  0.51998  0.88086  1.0000
  C   C2622     1.0  0.84054  0.79097  0.71802  1.0000
  H   H4487     1.0  0.79785  0.88039  0.86919  1.0000
  H   H4488     1.0  0.82241  0.86948  0.89030  1.0000
  H   H4489     1.0  0.81799  0.75632  0.71835  1.0000
  C   C2623     1.0  0.78662  0.85464  0.86149  1.0000
  C   C2624     1.0  0.78642  0.87061  0.84299  1.0000
  C   C2625     1.0  0.79582  0.87225  0.82751  1.0000
  C   C2626     1.0  0.80546  0.85831  0.83082  1.0000
  C   C2627     1.0  0.80560  0.84212  0.84914  1.0000
  C   C2628     1.0  0.79617  0.84010  0.86433  1.0000
  H   H4490     1.0  0.77902  0.88167  0.84058  1.0000
  H   H4491     1.0  0.79564  0.88462  0.81327  1.0000
  H   H4492     1.0  0.81303  0.83127  0.85169  1.0000
  H   H4493     1.0  0.79634  0.82776  0.87861  1.0000
  C   C2629     1.0  0.78633  0.97931  0.70850  1.0000
  H   H4494     1.0  0.81689  0.84907  0.73051  1.0000
  H   H4495     1.0  0.85529  0.67506  0.67631  1.0000
  H   H4496     1.0  0.90169  0.59627  0.69944  1.0000
  H   H4497     1.0  0.94545  0.54434  0.88062  1.0000
  H   H4498     1.0  0.83337  0.80922  0.74239  1.0000
  C   C2630     1.0  0.83141  0.85346  0.68015  1.0000
  H   H4499     1.0  0.79082  0.86642  0.90523  1.0000
  C   C2631     1.0  0.78101  0.95206  0.73901  1.0000
  H   H4500     1.0  0.91790  0.61055  0.67971  1.0000
  H   H4501     1.0  0.79157  0.96939  0.76456  1.0000
  H   H4502     1.0  0.73811  0.57013  0.78165  1.0000
  H   H4503     1.0  0.79688  0.56054  0.68459  1.0000
  H   H4504     1.0  0.83735  0.86174  0.66925  1.0000
  H   H4505     1.0  0.79761  0.90761  0.71871  1.0000
  C   C2632     1.0  0.74768  0.84568  0.92078  1.0000
  C   C2633     1.0  0.78280  0.50508  0.71353  1.0000
  C   C2634     1.0  0.77188  0.91686  0.69497  1.0000
  C   C2635     1.0  0.79200  0.98160  0.79102  1.0000
  H   H4506     1.0  0.79768  0.93288  0.82656  1.0000
  H   H4507     1.0  0.88843  0.55139  0.69638  1.0000
  C   C2636     1.0  0.81980  0.84659  0.71457  1.0000
  H   H4508     1.0  0.79013  0.90188  0.88122  1.0000
  N   N186      1.0  0.77742  0.54601  0.71334  1.0000
  H   H4509     1.0  0.79180  0.84970  0.72280  1.0000
  H   H4510     1.0  0.90342  0.65364  0.67590  1.0000
  C   C2637     1.0  0.75148  0.49570  0.74999  1.0000
  H   H4511     1.0  0.82978  0.78498  0.69262  1.0000
  H   H4512     1.0  0.90493  0.65802  0.70022  1.0000
  C   C2638     1.0  0.77136  0.52850  0.75288  1.0000
  C   C2639     1.0  0.98544  0.50517  0.79466  1.0000
  H   H4513     1.0  0.84847  0.79322  0.71819  1.0000
  Fe  Fe378     1.0  0.74646  0.90916  0.91292  1.0000
  H   H4514     1.0  0.76740  0.91637  0.71157  1.0000
  C   C2640     1.0  0.96629  0.55097  0.88459  1.0000
  C   C2641     1.0  0.86000  0.68691  0.66777  1.0000
  H   H4515     1.0  0.92840  0.55012  0.71708  1.0000
  H   H4516     1.0  0.77638  0.88196  0.72152  1.0000
  C   C2642     1.0  0.89306  0.53484  0.70079  1.0000
  H   H4517     1.0  0.94718  0.55039  0.83893  1.0000
  H   H4518     1.0  0.97280  0.55991  0.87765  1.0000
  C   C2643     1.0  0.92617  0.66002  0.67965  1.0000
  C   C2644     1.0  0.90390  0.53431  0.70510  1.0000
  C   C2645     1.0  0.94401  0.58685  0.66574  1.0000
  H   H4519     1.0  0.90891  0.69333  0.68256  1.0000
  C   C2646     1.0  0.78587  0.97852  0.77612  1.0000
  H   H4520     1.0  0.76132  0.55918  0.68911  1.0000
  H   H4521     1.0  0.90500  0.69290  0.65961  1.0000
  S   S762      1.0  0.74841  0.89680  0.88411  1.0000
  H   H4522     1.0  0.73866  0.57867  0.75387  1.0000
  H   H4523     1.0  0.85313  0.80300  0.67936  1.0000
  C   C2647     1.0  0.74577  0.81870  0.87851  1.0000
  H   H4524     1.0  0.75334  0.96708  0.79402  1.0000
  H   H4525     1.0  0.73959  0.81469  0.87320  1.0000
  Fe  Fe379     1.0  0.81965  0.79115  0.65731  1.0000
  H   H4526     1.0  0.76240  0.58646  0.68046  1.0000
  H   H4527     1.0  0.76949  0.51431  0.75028  1.0000
  S   S763      1.0  0.73774  0.56158  0.69016  1.0000
  H   H4528     1.0  0.89852  0.57227  0.71647  1.0000
  H   H4529     1.0  0.88819  0.52669  0.71537  1.0000
  H   H4530     1.0  0.78419  0.85505  0.74777  1.0000
  C   C2648     1.0  0.77448  0.56673  0.69779  1.0000
  H   H4531     1.0  0.97507  0.51111  0.84119  1.0000
  S   S764      1.0  0.74895  0.94218  0.89516  1.0000
  H   H4532     1.0  0.91635  0.56900  0.71471  1.0000
  H   H4533     1.0  0.95247  0.52806  0.90963  1.0000
  H   H4534     1.0  0.74568  0.49929  0.78219  1.0000
  H   H4535     1.0  0.77553  0.58056  0.70274  1.0000
  S   S765      1.0  0.84163  0.71663  0.67692  1.0000
  H   H4536     1.0  0.79689  0.86165  0.73811  1.0000
  N   N187      1.0  0.74111  0.83187  0.89517  1.0000
  C   C2649     1.0  0.81937  0.82958  0.68710  1.0000
  H   H4537     1.0  0.85139  0.75667  0.68425  1.0000
  C   C2650     1.0  0.96896  0.53121  0.87482  1.0000
  H   H4538     1.0  0.80531  0.88323  0.71222  1.0000
  C   C2651     1.0  0.78861  0.54427  0.71532  1.0000
  H   H4539     1.0  0.94143  0.50484  0.90279  1.0000
  H   H4540     1.0  0.80957  0.82510  0.71854  1.0000
  N   N188      1.0  0.79035  0.89407  0.70185  1.0000
  H   H4541     1.0  0.85228  0.75175  0.73197  1.0000
  H   H4542     1.0  0.91628  0.54140  0.72898  1.0000
  H   H4543     1.0  0.92607  0.55611  0.68184  1.0000
  C   C2652     1.0  0.78802  0.95809  0.71993  1.0000
  H   H4544     1.0  0.85295  0.72657  0.70917  1.0000
  C   C2653     1.0  0.96417  0.49954  0.87094  1.0000
  H   H4545     1.0  0.76244  0.97799  0.90018  1.0000
  H   H4546     1.0  0.79135  0.52979  0.72691  1.0000
  S   S766      1.0  0.74687  0.94305  0.83585  1.0000
  C   C2654     1.0  0.82744  0.83948  0.67343  1.0000
  H   H4547     1.0  0.83672  0.78132  0.75298  1.0000
  C   C2655     1.0  0.85099  0.79037  0.67448  1.0000
  H   H4548     1.0  0.81858  0.85353  0.87689  1.0000
  H   H4549     1.0  0.96317  0.50532  0.91032  1.0000
  H   H4550     1.0  0.96590  0.54613  0.90186  1.0000
  C   C2656     1.0  0.77633  0.52769  0.70548  1.0000
  H   H4551     1.0  0.77035  0.56216  0.73933  1.0000
  C   C2657     1.0  0.79420  0.87986  0.68607  1.0000
  C   C2658     1.0  0.82737  0.85758  0.70055  1.0000
  H   H4552     1.0  0.76683  0.96260  0.76133  1.0000
  Fe  Fe380     1.0  0.74809  0.54889  0.66205  1.0000
  C   C2659     1.0  0.83205  0.77011  0.70426  1.0000
  C   C2660     1.0  0.85102  0.76970  0.69201  1.0000
  C   C2661     1.0  0.85518  0.70877  0.66535  1.0000
  C   C2662     1.0  0.77084  0.98873  0.73562  1.0000
  H   H4553     1.0  0.82318  0.76070  0.73774  1.0000
  H   H4554     1.0  0.85879  0.76582  0.69681  1.0000
  C   C2663     1.0  0.78973  0.86127  0.73315  1.0000
  H   H4555     1.0  0.79471  0.94643  0.71384  1.0000
  H   H4556     1.0  0.80432  0.96569  0.82168  1.0000
  H   H4557     1.0  0.83082  0.86294  0.86687  1.0000
  H   H4558     1.0  0.89021  0.58812  0.69866  1.0000
  H   H4559     1.0  0.83376  0.75735  0.69527  1.0000
  C   C2664     1.0  0.78930  0.97342  0.88684  1.0000
  N   N189      1.0  0.84182  0.77052  0.71101  1.0000
  C   C2665     1.0  0.82188  0.76750  0.72158  1.0000
  H   H4560     1.0  0.83883  0.75130  0.74313  1.0000
  H   H4561     1.0  0.78214  0.99395  0.76688  1.0000
  H   H4562     1.0  0.80464  0.86321  0.90402  1.0000
  H   H4563     1.0  0.78510  0.50262  0.72865  1.0000
  C   C2666     1.0  0.78380  0.91548  0.69302  1.0000
  H   H4564     1.0  0.79290  0.91015  0.84306  1.0000
  H   H4565     1.0  0.81609  0.78312  0.72139  1.0000
  C   C2667     1.0  0.81573  0.83287  0.70780  1.0000
  H   H4566     1.0  0.75490  0.85015  0.92184  1.0000
  H   H4567     1.0  0.77986  0.56654  0.68200  1.0000
  C   C2668     1.0  0.83349  0.79327  0.73995  1.0000
  H   H4568     1.0  0.89422  0.67400  0.68812  1.0000
  N   N190      1.0  0.80707  0.90141  0.87161  1.0000
  C   C2669     1.0  0.80377  0.92111  0.85531  1.0000
  C   C2670     1.0  0.80921  0.90894  0.88888  1.0000
  C   C2671     1.0  0.79789  0.89009  0.88017  1.0000
  C   C2672     1.0  0.81680  0.88742  0.86080  1.0000
  C   C2673     1.0  0.80001  0.91731  0.83726  1.0000
  C   C2674     1.0  0.81823  0.92138  0.88215  1.0000
  C   C2675     1.0  0.79722  0.87527  0.90230  1.0000
  C   C2676     1.0  0.82229  0.86724  0.87477  1.0000
  H   H4569     1.0  0.79716  0.93273  0.86302  1.0000
  H   H4570     1.0  0.81043  0.92951  0.84748  1.0000
  H   H4571     1.0  0.81116  0.89554  0.90213  1.0000
  H   H4572     1.0  0.80186  0.91945  0.89616  1.0000
  H   H4573     1.0  0.90216  0.53877  0.72050  1.0000
  N   N191      1.0  0.91079  0.54765  0.68787  1.0000
  H   H4574     1.0  0.74529  0.83433  0.93578  1.0000
  H   H4575     1.0  0.78235  0.88129  0.66846  1.0000
  C   C2677     1.0  0.94817  0.49899  0.91092  1.0000
  Fe  Fe381     1.0  0.74025  0.50721  0.67683  1.0000
  C   C2678     1.0  0.91355  0.53808  0.66863  1.0000
  H   H4576     1.0  0.79330  0.96792  0.84430  1.0000
  Fe  Fe382     1.0  0.74306  0.52838  0.70833  1.0000
  H   H4577     1.0  0.80443  0.99330  0.74319  1.0000
  C   C2679     1.0  0.74487  0.98356  0.84047  1.0000
  H   H4578     1.0  0.94555  0.52369  0.86845  1.0000
  H   H4579     1.0  0.79660  0.53326  0.68548  1.0000
  C   C2680     1.0  0.79721  0.54416  0.69467  1.0000
  H   H4580     1.0  0.76781  0.52666  0.70917  1.0000
  H   H4581     1.0  0.76888  0.97371  0.85506  1.0000
  H   H4582     1.0  0.78891  0.55784  0.72169  1.0000
  H   H4583     1.0  0.89974  0.57271  0.67160  1.0000
  H   H4584     1.0  0.97928  0.51968  0.79040  1.0000
  C   C2681     1.0  0.75307  0.82896  0.85839  1.0000
  H   H4585     1.0  0.77978  0.96891  0.78470  1.0000
  C   C2682     1.0  0.75112  0.97775  0.80480  1.0000
  H   H4586     1.0  0.77610  0.99362  0.85030  1.0000
  C   C2683     1.0  0.92021  0.55197  0.71498  1.0000
  H   H4587     1.0  0.74219  0.97753  0.85719  1.0000
  H   H4588     1.0  0.80200  0.98776  0.72105  1.0000
  H   H4589     1.0  0.90823  0.51722  0.70818  1.0000
  H   H4590     1.0  0.87444  0.66338  0.66040  1.0000
  H   H4591     1.0  0.76847  0.93257  0.68557  1.0000
  H   H4592     1.0  0.77936  0.52451  0.75644  1.0000
  Fe  Fe383     1.0  0.98417  0.56444  0.71640  1.0000
  H   H4593     1.0  0.98401  0.51599  0.94097  1.0000
  S   S767      1.0  0.82693  0.98739  0.83774  1.0000
  H   H4594     1.0  0.80394  0.98098  0.83989  1.0000
  H   H4595     1.0  0.94311  0.66157  0.66548  1.0000
  C   C2684     1.0  0.75039  0.83543  0.90149  1.0000
  C   C2685     1.0  0.93807  0.64969  0.67345  1.0000
  C   C2686     1.0  0.98550  0.50663  0.92921  1.0000
  H   H4596     1.0  0.81095  0.90083  0.67464  1.0000
  N   N192      1.0  0.78540  0.99365  0.80795  1.0000
  H   H4597     1.0  0.85709  0.78679  0.66021  1.0000
  H   H4598     1.0  0.78989  0.85481  0.67728  1.0000
  H   H4599     1.0  0.73745  0.55163  0.76766  1.0000
  H   H4600     1.0  0.90631  0.54007  0.66259  1.0000
  H   H4601     1.0  0.83023  0.83725  0.65737  1.0000
  H   H4602     1.0  0.77045  0.90427  0.68898  1.0000
  H   H4603     1.0  0.78725  0.92115  0.67599  1.0000
  H   H4604     1.0  0.94483  0.49839  0.92803  1.0000
  Fe  Fe384     1.0  0.83183  0.74486  0.65833  1.0000
  S   S768      1.0  0.89862  0.62406  0.65585  1.0000
  H   H4605     1.0  0.74144  0.86053  0.91934  1.0000
  H   H4606     1.0  0.73963  0.86466  0.87753  1.0000
  H   H4607     1.0  0.98717  0.51289  0.66471  1.0000
  H   H4608     1.0  0.81418  0.99507  0.71844  1.0000
  C   C2687     1.0  0.78965  0.99517  0.88104  1.0000
  C   C2688     1.0  0.77790  0.99474  0.71659  1.0000
