data_image0
_chemical_formula_structural       HSHFeS2FeSFeS2CHSHCSCFeSFeSHSFeS2FeS2FeSFeHS2FeS2FeCSHFeS3H3C6H8C3HCH3CHC6H4CSC6H4C7H2CH2C6H3C6H4NC8H20NHCH2C2H9CH2C2HC2SH8NCHC2HCH3CHCH2NCH4SCHCH2CH3CHC2SNH7CH2CH5CNC2H2CH2CH3FeCH4NH2SHCH2CHCHCH7CH5SH2CH2CH6CH2NHC2H3CH8CHCH2CFeHC2HCHCH4CH4FeS2FeS2FeSFeHS2FeS2FeS2HFeS3FeS2FeS2FeHCHS2FeS2FeSHFeSFeS3C2HC2H3C6H6C3H5C6H4C6H3C8H4C6H3C6H4C6H12CFeH5CH2CH2C3HC2HCNH2NH9SCH4NC7H18NSC3H2C2HNHSH10NH3CNC7H16NC6H22CHCHSH3C2H3CH4CH4CHCH4C2HSCH4CH4C2SHC3H3CSHC4H2C2H3CHCHCHCH2NH5FeCH2CH2SC2H2CH3CHCH2CH3SFeS2FeS2FeCFeS3FeS2FeS2FeHFeHS2C2HC6H5C3H2C6H4C3H3CH5NH3CH11SNCH2CHC2H9CH4C2H2CH2C4H2CHC2H6NHCH2CHCH4CH2C3H6CH8CSHFeCSFeS2FeS2H2FeS3FeS2FeS2FeSH2S2HC6H5C3HC5H2CH2C4H2C6H4CHCH3CNCH12CHC4H3CSH2C3H3CH2CHNC3HNHC2H12FeCH5CH4C2FeH2CHCHFeHC3HNH6SCSHFeSCFeSFeS2HFeS2HSHFeSFeS3C6H4C3HCH2SHC5H4C6H4C3HCH3CSHCH3CH4NFeH3CHC2H4CHCHC2H6CHCH2CHCHC2H3NC8H19FeH2CH4C2H2CH2SH2CFeH2NCHSHCHSFeSCHSHFeSFeSFeSFeHSFeHSH2SCS2CHCH4C6H4C6H5C3H4SHCHCHCHC2H2CH3C2N2HCH4NCHSHC2H2CHCFeH3CH4CFeH3CH3C2H2CH2CHNH2FeH4C2H3CSH2CHC2H2C4S2FeS2FeSFeS3FeCSFeS2H2FeCS2FeNSFeHSFeSHS2FeS2FeS2FeSFeHS2H4C6H3SC6H3C5H3C6H4C4NCH4CSHCH2C6H4C6H4C6H5C2H3CSH2SH5CH3CFeH4C2HNHNC3H11CH3C2H2C2HCHCHCH2C2H2CH8CH6CH4C2HCH4CH2CFeH2CHCHC3HCHCH2NHCH4C2H2CHCHCH3SCHCH2C2H2NCH5CH2C3H9CH2CH4CHCH3CHCHNHCNCH7C3H2CH2C2H2CH4SH2CH3C2H5C2HC2HCH2CH8CSH8CHSH3CNH2FeCSFeHSFeSHSHFeS2FeS2FeSFeS3FeS2FeS2FeSH2S2FeS2Fe2SFeSH2S3HC6H6C6H5C6HCH2C6H3C6H4C6H3C6H3NC8H9CH12SH2C2H2CHCH2CH2NC2HCHCH2SH3CHCH8CH7CH4C2HCHNH2CH3CH2CHCH2CSC2H2CH3NHCH2CH5NH2CH4CH3FeCHCH10C2HNC6HCH20NC8H13CHCH3CSCH2NH3CH6SCH9CH4C2H3FeS2FeS2H2FeS3HSCFeS2FeSFeS2CFeS2FeS2FeSFeHS2HSFeS2FeSFeSHSH3C4H2C6H4C6H4C2H2CH3C6H5C6H4C6SH3C6H4C6H17SNHCH2C3HCHC2H4CH5SH10C2SH3CH2CHCHCH2NC8H20NC5HC2H9CH2CH7NC4HC3H8SCSH9NC8H12C3H2CHCHSCFeH5CHNH2CFeNH4C3HCHCFeHSFeS2HFeSHSFeS2FeS2FeSFeHS2FeS2FeS2H2FeS3FeS2FeS2FeSFeHS2HC6H3CHC6H2CHC6H4C6H4C6H4C6H3C6H4C2H3CHCH6C2SNH2NC8H20CH5CHSCH2CHCHC2HCNH5CHC4H11NH5NCH4CH4CHCH2CHCH3CH10CH3CHCH5CHCHCH3FeHNH2SNC8H20CHSC2HCHNH3CHC2HCH4C2H2CH3CHCH3SH4CH4NCH3C3H12CHCNHCH2CHC2HCSCSHFeS2FeSFeS3FeS2FeS2FeSFeHS2HC7H4C7H2C4H5C6H5C3H8CH5C2HCH3CH5CH2FeH5C2H2C2HC2H2NC8H14CH5CHCH4NCHC2H3CH7CHCNH2CH3C2H3C3H5NC2SH2CFeS2FeHSCHFeCS2FeCSFeS2HCFeHS3CH3C6H5CNHC7H2CH2C5H6CH2CHCH4C4H3CH2NC3HFeCH6FeH11SH4CHC2S2H2CH8CFeSFeS2FeSHFeSFeS3FeSHFeS2FeSFeS3CHC7H3C6H4C4H6CH3C3H2CHC4H4CHNC8H20NHCHCH2NH4FeH3CH7CH7CH2CNH4CHCHCHCH2CH2CH6SCHC4H9CHCNCHCHCSFeS2CSCFeSFeS3CSHFeS2FeSFeS2HC6H5C2H3C4H4FeC3HCH2C6H9C2H2CH9CHCH4CH5CH2C2HCNH3FeCHC2H2NCH3CH4CHCH3CHCH3CH2CSCHCHSHCH5CSHFeHCHNHCFeS2FeS2FeSFeS3HSHFeSFe2SFeSHSHS2FeS2FeSFeS2CFeCSFeS2FeSNS2C6H3CHCH3C2H4C6H4CFeH2NHC6H4C6H4C6H3C6H5FeHCH6NH4NC8H20CH7CH3CH2CH4C3H3CHCH2CH2C2HN2H6C3HCH2CHC2H4CH9CH6NC4HC3H3CH4SHCHNCHCH2SCH3CH2SH9C2H2CH2C2HSCHC4H2C2H3SH2CH2CH4CH2CH2CH2CH3NH3SHCH2C2FeS2FeS2FeSFeS3FeHSFeHSHFeS3FeS2FeS2HCFeS3FeS2FeS2CHFeHS2HCHC3H4C4HCH4FeC3HCNHC6H4C6H3C6H4C6H6C6H4C6H4CH3CH8CHCHCH7NC2H9SC2H2CH2SCH4CHCH3C2H4SH3FeCH5S2HC2H11C4SHC3H2CNCH6CHNCH2CHCNHNC3H9NC8H21CH2CH5CH2NHCHCHCHCHCHCH6C2H6CHCHCH2CHC4H6SHC2H3CH3C2H13
_chemical_formula_sum              "H2304 S384 Fe192 C1344 N96"
_cell_length_a       58.7863
_cell_length_b       58.9655
_cell_length_c       64.3011
_cell_angle_alpha    86.7096
_cell_angle_beta     86.9651
_cell_angle_gamma    87.5657

_space_group_name_H-M_alt    "P 1"
_space_group_IT_number       1

loop_
  _space_group_symop_operation_xyz
  'x, y, z'

loop_
  _atom_site_type_symbol
  _atom_site_label
  _atom_site_symmetry_multiplicity
  _atom_site_fract_x
  _atom_site_fract_y
  _atom_site_fract_z
  _atom_site_occupancy
  H   H1        1.0  0.17832  0.47617  0.13323  1.0000
  S   S1        1.0  0.09673  0.36514  0.22224  1.0000
  H   H2        1.0  0.06628  0.18602  0.17252  1.0000
  Fe  Fe1       1.0  0.11046  0.30358  0.20441  1.0000
  S   S2        1.0  0.09139  0.33022  0.18508  1.0000
  S   S3        1.0  0.11721  0.26958  0.18983  1.0000
  Fe  Fe2       1.0  0.11809  0.35414  0.19386  1.0000
  S   S4        1.0  0.13731  0.37499  0.16775  1.0000
  Fe  Fe3       1.0  0.07173  0.33862  0.21490  1.0000
  S   S5        1.0  0.03313  0.33675  0.22328  1.0000
  S   S6        1.0  0.13819  0.32675  0.21116  1.0000
  C   C1        1.0  0.22459  0.05073  0.20642  1.0000
  H   H3        1.0  0.40647  0.04162  0.17215  1.0000
  S   S7        1.0  0.08686  0.08832  0.20148  1.0000
  H   H4        1.0  0.32308  0.05649  0.99806  1.0000
  C   C2        1.0  0.28491  0.37639  0.20669  1.0000
  S   S8        1.0  0.09292  0.14300  0.19352  1.0000
  C   C3        1.0  0.22048  0.03749  0.22764  1.0000
  Fe  Fe4       1.0  0.06597  0.12030  0.20857  1.0000
  S   S9        1.0  0.02839  0.13266  0.20749  1.0000
  Fe  Fe5       1.0  0.11523  0.11108  0.18963  1.0000
  S   S10       1.0  0.13950  0.10710  0.16106  1.0000
  H   H5        1.0  0.31050  0.14099  0.00614  1.0000
  S   S11       1.0  0.13091  0.11285  0.22047  1.0000
  Fe  Fe6       1.0  0.29174  0.41125  0.10272  1.0000
  S   S12       1.0  0.26182  0.43626  0.10563  1.0000
  S   S13       1.0  0.29107  0.38617  0.07729  1.0000
  Fe  Fe7       1.0  0.31410  0.42884  0.13977  1.0000
  S   S14       1.0  0.28601  0.45523  0.14487  1.0000
  S   S15       1.0  0.34282  0.42950  0.16183  1.0000
  Fe  Fe8       1.0  0.26200  0.42729  0.14016  1.0000
  S   S16       1.0  0.23347  0.42258  0.16576  1.0000
  Fe  Fe9       1.0  0.28853  0.46180  0.11013  1.0000
  H   H6        1.0  0.35053  0.48459  0.05050  1.0000
  S   S17       1.0  0.29020  0.40055  0.13703  1.0000
  S   S18       1.0  0.31820  0.43723  0.10519  1.0000
  Fe  Fe10      1.0  0.28288  0.05050  0.09755  1.0000
  S   S19       1.0  0.25593  0.02478  0.09661  1.0000
  S   S20       1.0  0.28281  0.07791  0.07160  1.0000
  Fe  Fe11      1.0  0.30191  0.02836  0.13671  1.0000
  C   C4        1.0  0.35761  0.42292  0.99093  1.0000
  S   S21       1.0  0.32667  0.02760  0.16265  1.0000
  H   H7        1.0  0.30862  0.43797  0.01249  1.0000
  Fe  Fe12      1.0  0.25082  0.02887  0.13112  1.0000
  S   S22       1.0  0.21802  0.02911  0.15194  1.0000
  S   S23       1.0  0.31156  0.02468  0.10256  1.0000
  S   S24       1.0  0.27571  0.05664  0.13153  1.0000
  H   H8        1.0  0.36626  0.07667  0.06169  1.0000
  H   H9        1.0  0.25747  0.49798  0.13225  1.0000
  H   H10       1.0  0.06942  0.21500  0.17771  1.0000
  C   C5        1.0  0.16187  0.08582  0.15934  1.0000
  C   C6        1.0  0.17883  0.08771  0.14309  1.0000
  C   C7        1.0  0.19636  0.07076  0.14077  1.0000
  C   C8        1.0  0.19688  0.05146  0.15448  1.0000
  C   C9        1.0  0.18001  0.04964  0.17081  1.0000
  C   C10       1.0  0.16277  0.06680  0.17338  1.0000
  H   H11       1.0  0.17828  0.10230  0.13211  1.0000
  H   H12       1.0  0.20915  0.07240  0.12810  1.0000
  H   H13       1.0  0.18011  0.03472  0.18141  1.0000
  H   H14       1.0  0.14979  0.06499  0.18586  1.0000
  H   H15       1.0  0.01346  0.19326  0.21561  1.0000
  H   H16       1.0  0.37738  0.14772  0.02999  1.0000
  H   H17       1.0  0.47133  0.17528  0.22867  1.0000
  H   H18       1.0  0.43659  0.08135  0.17524  1.0000
  C   C11       1.0  0.11799  0.24347  0.20466  1.0000
  C   C12       1.0  0.11988  0.22317  0.19419  1.0000
  C   C13       1.0  0.11921  0.20198  0.20536  1.0000
  H   H19       1.0  0.00605  0.05594  0.22611  1.0000
  C   C14       1.0  0.30793  0.42019  0.00764  1.0000
  H   H20       1.0  0.34751  0.19682  0.02563  1.0000
  H   H21       1.0  0.12155  0.22382  0.17733  1.0000
  H   H22       1.0  0.12053  0.18646  0.19711  1.0000
  C   C15       1.0  0.42550  0.09407  0.18351  1.0000
  H   H23       1.0  0.47230  0.32406  0.00726  1.0000
  C   C16       1.0  0.16483  0.38665  0.16771  1.0000
  C   C17       1.0  0.17466  0.39195  0.18609  1.0000
  C   C18       1.0  0.19583  0.40257  0.18520  1.0000
  C   C19       1.0  0.20777  0.40747  0.16599  1.0000
  C   C20       1.0  0.19835  0.40141  0.14766  1.0000
  C   C21       1.0  0.17684  0.39146  0.14852  1.0000
  H   H24       1.0  0.16550  0.38867  0.20092  1.0000
  H   H25       1.0  0.20279  0.40738  0.19946  1.0000
  H   H26       1.0  0.20722  0.40510  0.13276  1.0000
  H   H27       1.0  0.16938  0.38758  0.13418  1.0000
  C   C22       1.0  0.47298  0.30574  0.00397  1.0000
  S   S25       1.0  0.37730  0.36929  0.01538  1.0000
  C   C23       1.0  0.32754  0.08779  0.20459  1.0000
  C   C24       1.0  0.33435  0.06595  0.21204  1.0000
  C   C25       1.0  0.33386  0.04755  0.19908  1.0000
  C   C26       1.0  0.32614  0.05081  0.17879  1.0000
  C   C27       1.0  0.31871  0.07256  0.17159  1.0000
  C   C28       1.0  0.31946  0.09098  0.18444  1.0000
  H   H28       1.0  0.37605  0.47684  0.09096  1.0000
  H   H29       1.0  0.33941  0.03071  0.20481  1.0000
  H   H30       1.0  0.31288  0.07528  0.15594  1.0000
  H   H31       1.0  0.31402  0.10783  0.17864  1.0000
  C   C29       1.0  0.36098  0.36439  0.20073  1.0000
  C   C30       1.0  0.36989  0.38505  0.20535  1.0000
  C   C31       1.0  0.36491  0.40488  0.19285  1.0000
  C   C32       1.0  0.35084  0.40414  0.17591  1.0000
  C   C33       1.0  0.34241  0.38338  0.17110  1.0000
  C   C34       1.0  0.34758  0.36359  0.18339  1.0000
  C   C35       1.0  0.33593  0.19198  0.01360  1.0000
  H   H32       1.0  0.37158  0.42091  0.19655  1.0000
  H   H33       1.0  0.33192  0.38254  0.15789  1.0000
  C   C36       1.0  0.29810  0.44025  0.20314  1.0000
  H   H34       1.0  0.30013  0.37074  0.19691  1.0000
  H   H35       1.0  0.01726  0.21757  0.19920  1.0000
  C   C37       1.0  0.30877  0.08254  0.05759  1.0000
  C   C38       1.0  0.32964  0.07690  0.06641  1.0000
  C   C39       1.0  0.35012  0.08073  0.05472  1.0000
  C   C40       1.0  0.34978  0.08946  0.03399  1.0000
  C   C41       1.0  0.32888  0.09466  0.02510  1.0000
  C   C42       1.0  0.30845  0.09163  0.03699  1.0000
  H   H36       1.0  0.32998  0.06997  0.08234  1.0000
  H   H37       1.0  0.32838  0.10119  0.00915  1.0000
  H   H38       1.0  0.29230  0.09587  0.03010  1.0000
  C   C43       1.0  0.35324  0.37330  0.03260  1.0000
  C   C44       1.0  0.35409  0.38913  0.04800  1.0000
  C   C45       1.0  0.33520  0.39316  0.06183  1.0000
  C   C46       1.0  0.31534  0.38122  0.06047  1.0000
  C   C47       1.0  0.31454  0.36525  0.04515  1.0000
  C   C48       1.0  0.33338  0.36135  0.03118  1.0000
  H   H39       1.0  0.36946  0.39830  0.04928  1.0000
  H   H40       1.0  0.33610  0.40535  0.07364  1.0000
  H   H41       1.0  0.29927  0.35585  0.04409  1.0000
  H   H42       1.0  0.33262  0.34896  0.01949  1.0000
  N   N1        1.0  0.17539  0.30477  0.14955  1.0000
  C   C49       1.0  0.15720  0.30553  0.13375  1.0000
  C   C50       1.0  0.19696  0.29471  0.13942  1.0000
  C   C51       1.0  0.17886  0.32892  0.15534  1.0000
  C   C52       1.0  0.16706  0.29045  0.16835  1.0000
  C   C53       1.0  0.13392  0.31660  0.14063  1.0000
  C   C54       1.0  0.19565  0.27042  0.13189  1.0000
  C   C55       1.0  0.20304  0.33481  0.16115  1.0000
  C   C56       1.0  0.18393  0.28538  0.18563  1.0000
  H   H43       1.0  0.16321  0.31477  0.11899  1.0000
  H   H44       1.0  0.15331  0.28812  0.12953  1.0000
  H   H45       1.0  0.21123  0.29397  0.15010  1.0000
  H   H46       1.0  0.20267  0.30583  0.12568  1.0000
  H   H47       1.0  0.17472  0.34139  0.14224  1.0000
  H   H48       1.0  0.16686  0.33369  0.16850  1.0000
  H   H49       1.0  0.15189  0.29887  0.17604  1.0000
  H   H50       1.0  0.16114  0.27388  0.16368  1.0000
  H   H51       1.0  0.13533  0.33405  0.14578  1.0000
  H   H52       1.0  0.12274  0.31789  0.12718  1.0000
  H   H53       1.0  0.12499  0.30606  0.15311  1.0000
  H   H54       1.0  0.21300  0.26440  0.12644  1.0000
  H   H55       1.0  0.18981  0.25812  0.14454  1.0000
  H   H56       1.0  0.18478  0.26993  0.11835  1.0000
  H   H57       1.0  0.21482  0.33587  0.14707  1.0000
  H   H58       1.0  0.21041  0.32273  0.17297  1.0000
  H   H59       1.0  0.20228  0.35184  0.16773  1.0000
  H   H60       1.0  0.19955  0.27592  0.18006  1.0000
  H   H61       1.0  0.17556  0.27440  0.19817  1.0000
  H   H62       1.0  0.18825  0.30109  0.19291  1.0000
  N   N2        1.0  0.33278  0.16662  0.01518  1.0000
  H   H63       1.0  0.21346  0.47204  0.15577  1.0000
  C   C57       1.0  0.37639  0.15786  0.01495  1.0000
  H   H64       1.0  0.25425  0.41161  0.22191  1.0000
  H   H65       1.0  0.45906  0.29786  0.01382  1.0000
  C   C58       1.0  0.26758  0.02633  0.19315  1.0000
  C   C59       1.0  0.30020  0.02185  0.04236  1.0000
  H   H66       1.0  0.30334  0.01223  0.05744  1.0000
  H   H67       1.0  0.47896  0.11847  0.98927  1.0000
  H   H68       1.0  0.24762  0.47998  0.16675  1.0000
  H   H69       1.0  0.21241  0.09022  0.18082  1.0000
  H   H70       1.0  0.38620  0.03819  0.20433  1.0000
  H   H71       1.0  0.07381  0.04430  0.22452  1.0000
  H   H72       1.0  0.32415  0.01597  0.99206  1.0000
  H   H73       1.0  0.40025  0.50347  0.07948  1.0000
  H   H74       1.0  0.40804  0.48206  0.05028  1.0000
  C   C60       1.0  0.38907  0.47920  0.02262  1.0000
  H   H75       1.0  0.35595  0.16122  0.98829  1.0000
  H   H76       1.0  0.28444  0.45689  0.98933  1.0000
  C   C61       1.0  0.22505  0.49877  0.10792  1.0000
  C   C62       1.0  0.05700  0.19308  0.20474  1.0000
  H   H77       1.0  0.28247  0.36268  0.21913  1.0000
  C   C63       1.0  0.35347  0.15500  0.00488  1.0000
  C   C64       1.0  0.26904  0.40457  0.23072  1.0000
  S   S26       1.0  0.28596  0.49603  0.09163  1.0000
  H   H78       1.0  0.38524  0.09030  0.16657  1.0000
  H   H79       1.0  0.48976  0.29868  0.00881  1.0000
  H   H80       1.0  0.35533  0.42211  0.00817  1.0000
  H   H81       1.0  0.26130  0.35810  0.18948  1.0000
  H   H82       1.0  0.23214  0.10064  0.16103  1.0000
  H   H83       1.0  0.38039  0.38575  0.21860  1.0000
  H   H84       1.0  0.04145  0.07403  0.22691  1.0000
  H   H85       1.0  0.26576  0.03057  0.17630  1.0000
  N   N3        1.0  0.40490  0.08301  0.19394  1.0000
  C   C65       1.0  0.35133  0.01842  0.04924  1.0000
  H   H86       1.0  0.37549  0.09144  0.21410  1.0000
  C   C66       1.0  0.40075  0.05727  0.16324  1.0000
  C   C67       1.0  0.30677  0.04757  0.99940  1.0000
  H   H87       1.0  0.19154  0.49865  0.16713  1.0000
  C   C68       1.0  0.24602  0.08073  0.22007  1.0000
  H   H88       1.0  0.37045  0.11913  0.18428  1.0000
  H   H89       1.0  0.25430  0.01441  0.19899  1.0000
  H   H90       1.0  0.45581  0.26405  0.00061  1.0000
  C   C69       1.0  0.31122  0.39610  0.22655  1.0000
  H   H91       1.0  0.26613  0.03714  0.03717  1.0000
  C   C70       1.0  0.26703  0.04777  0.20585  1.0000
  H   H92       1.0  0.34091  0.34759  0.17960  1.0000
  H   H93       1.0  0.49597  0.26450  0.99433  1.0000
  N   N4        1.0  0.04536  0.20992  0.21909  1.0000
  C   C71       1.0  0.11675  0.20092  0.22714  1.0000
  H   H94       1.0  0.32058  0.41079  0.01749  1.0000
  H   H95       1.0  0.30245  0.03991  0.04556  1.0000
  H   H96       1.0  0.00704  0.17384  0.17840  1.0000
  H   H97       1.0  0.31032  0.18387  0.05366  1.0000
  S   S27       1.0  0.32879  0.11153  0.21992  1.0000
  C   C72       1.0  0.31019  0.16545  0.05111  1.0000
  H   H98       1.0  0.35246  0.02170  0.01567  1.0000
  C   C73       1.0  0.44102  0.10551  0.19814  1.0000
  H   H99       1.0  0.29520  0.01373  0.99938  1.0000
  H   H100      1.0  0.04683  0.03404  0.21919  1.0000
  C   C74       1.0  0.33117  0.15761  0.03765  1.0000
  H   H101      1.0  0.19029  0.44836  0.13849  1.0000
  H   H102      1.0  0.40062  0.10364  0.22093  1.0000
  H   H103      1.0  0.02023  0.36603  0.18667  1.0000
  C   C75       1.0  0.05835  0.20033  0.18123  1.0000
  H   H104      1.0  0.41511  0.06384  0.15308  1.0000
  C   C76       1.0  0.27462  0.01993  0.03836  1.0000
  C   C77       1.0  0.39009  0.07565  0.17732  1.0000
  S   S28       1.0  0.37565  0.09394  0.01967  1.0000
  N   N5        1.0  0.24629  0.06353  0.20362  1.0000
  H   H105      1.0  0.26953  0.04223  0.22242  1.0000
  H   H106      1.0  0.04134  0.20414  0.17499  1.0000
  H   H107      1.0  0.27445  0.41931  0.19036  1.0000
  H   H108      1.0  0.37419  0.13287  0.20758  1.0000
  H   H109      1.0  0.34609  0.16248  0.04609  1.0000
  H   H110      1.0  0.39048  0.15107  0.00463  1.0000
  H   H111      1.0  0.11439  0.25800  0.23468  1.0000
  C   C78       1.0  0.23037  0.09498  0.17780  1.0000
  H   H112      1.0  0.38184  0.46007  0.06822  1.0000
  H   H113      1.0  0.28247  0.08583  0.22349  1.0000
  C   C79       1.0  0.41290  0.06305  0.20781  1.0000
  H   H114      1.0  0.35438  0.46087  0.08125  1.0000
  H   H115      1.0  0.38792  0.48967  0.00776  1.0000
  H   H116      1.0  0.21054  0.02228  0.22534  1.0000
  H   H117      1.0  0.32529  0.39319  0.21478  1.0000
  H   H118      1.0  0.33741  0.04408  0.02842  1.0000
  C   C80       1.0  0.24749  0.07484  0.18194  1.0000
  N   N6        1.0  0.28893  0.39881  0.21592  1.0000
  C   C81       1.0  0.26405  0.37593  0.19312  1.0000
  C   C82       1.0  0.28463  0.41111  0.01553  1.0000
  H   H119      1.0  0.29508  0.05527  0.01136  1.0000
  H   H120      1.0  0.27076  0.01072  0.02462  1.0000
  C   C83       1.0  0.39724  0.49337  0.04002  1.0000
  H   H121      1.0  0.31504  0.35975  0.23641  1.0000
  H   H122      1.0  0.28608  0.39273  0.02019  1.0000
  C   C84       1.0  0.31076  0.02174  0.00376  1.0000
  H   H123      1.0  0.28277  0.05684  0.20089  1.0000
  H   H124      1.0  0.43226  0.12020  0.20561  1.0000
  H   H125      1.0  0.35112  0.13639  0.00449  1.0000
  Fe  Fe13      1.0  0.10684  0.14298  0.22522  1.0000
  C   C85       1.0  0.33975  0.02527  0.02870  1.0000
  H   H126      1.0  0.26486  0.08102  0.17767  1.0000
  H   H127      1.0  0.31780  0.22251  0.02427  1.0000
  H   H128      1.0  0.38105  0.05581  0.22627  1.0000
  H   H129      1.0  0.30971  0.21487  0.99963  1.0000
  N   N7        1.0  0.22058  0.49848  0.13130  1.0000
  H   H130      1.0  0.01633  0.08750  0.19514  1.0000
  H   H131      1.0  0.42115  0.06901  0.22161  1.0000
  S   S29       1.0  0.36502  0.33928  0.21646  1.0000
  H   H132      1.0  0.39736  0.13174  0.18870  1.0000
  C   C86       1.0  0.36919  0.47133  0.07641  1.0000
  H   H133      1.0  0.29387  0.16086  0.04491  1.0000
  H   H134      1.0  0.24815  0.38259  0.20103  1.0000
  C   C87       1.0  0.05540  0.23287  0.21387  1.0000
  H   H135      1.0  0.37362  0.06949  0.18426  1.0000
  C   C88       1.0  0.29092  0.41647  0.19803  1.0000
  H   H136      1.0  0.06006  0.26675  0.22415  1.0000
  C   C89       1.0  0.26685  0.09586  0.21920  1.0000
  H   H137      1.0  0.30331  0.41035  0.18569  1.0000
  H   H138      1.0  0.28436  0.01712  0.19468  1.0000
  H   H139      1.0  0.23382  0.10981  0.18681  1.0000
  H   H140      1.0  0.22304  0.03887  0.19380  1.0000
  H   H141      1.0  0.40151  0.46477  0.02006  1.0000
  H   H142      1.0  0.38758  0.05221  0.15278  1.0000
  H   H143      1.0  0.26992  0.10483  0.20375  1.0000
  C   C90       1.0  0.39114  0.09939  0.20724  1.0000
  H   H144      1.0  0.37270  0.47106  0.02652  1.0000
  H   H145      1.0  0.36604  0.02941  0.05053  1.0000
  H   H146      1.0  0.04777  0.24135  0.19980  1.0000
  H   H147      1.0  0.27850  0.42021  0.02957  1.0000
  H   H148      1.0  0.23853  0.48569  0.10374  1.0000
  S   S30       1.0  0.08986  0.31049  0.23370  1.0000
  H   H149      1.0  0.40228  0.03344  0.22702  1.0000
  H   H150      1.0  0.28453  0.44929  0.21241  1.0000
  C   C91       1.0  0.02025  0.21066  0.21530  1.0000
  H   H151      1.0  0.31570  0.41170  0.23389  1.0000
  H   H152      1.0  0.33975  0.02107  0.06311  1.0000
  C   C92       1.0  0.31226  0.15976  0.00423  1.0000
  H   H153      1.0  0.29610  0.16689  0.01118  1.0000
  H   H154      1.0  0.04839  0.17660  0.20609  1.0000
  H   H155      1.0  0.31095  0.15653  0.06678  1.0000
  H   H156      1.0  0.30059  0.45062  0.18830  1.0000
  H   H157      1.0  0.42042  0.10702  0.17116  1.0000
  H   H158      1.0  0.31470  0.43995  0.21055  1.0000
  C   C93       1.0  0.11586  0.24245  0.22646  1.0000
  H   H159      1.0  0.42634  0.05254  0.19958  1.0000
  H   H160      1.0  0.22991  0.46262  0.13422  1.0000
  N   N8        1.0  0.31742  0.01442  0.02558  1.0000
  H   H161      1.0  0.26400  0.10906  0.23081  1.0000
  C   C94       1.0  0.36092  0.49169  0.06225  1.0000
  C   C95       1.0  0.39433  0.04691  0.21665  1.0000
  H   H162      1.0  0.19585  0.46180  0.11340  1.0000
  H   H163      1.0  0.45602  0.11215  0.18886  1.0000
  H   H164      1.0  0.33163  0.13866  0.03853  1.0000
  C   C96       1.0  0.38310  0.12193  0.19598  1.0000
  H   H165      1.0  0.34464  0.19701  0.99830  1.0000
  H   H166      1.0  0.23030  0.09193  0.21960  1.0000
  H   H167      1.0  0.33998  0.06324  0.22775  1.0000
  H   H168      1.0  0.07391  0.23076  0.20970  1.0000
  H   H169      1.0  0.26705  0.38545  0.17792  1.0000
  H   H170      1.0  0.24528  0.07210  0.23594  1.0000
  H   H171      1.0  0.44763  0.09338  0.21041  1.0000
  H   H172      1.0  0.37981  0.17590  0.01704  1.0000
  C   C97       1.0  0.21532  0.47438  0.13856  1.0000
  H   H173      1.0  0.29905  0.19984  0.02319  1.0000
  C   C98       1.0  0.05674  0.04038  0.23172  1.0000
  H   H174      1.0  0.20946  0.06251  0.20468  1.0000
  H   H175      1.0  0.24454  0.06236  0.17016  1.0000
  C   C99       1.0  0.05386  0.25024  0.23099  1.0000
  Fe  Fe14      1.0  0.10175  0.09175  0.23269  1.0000
  H   H176      1.0  0.07478  0.18897  0.20926  1.0000
  C   C100      1.0  0.31416  0.20763  0.01530  1.0000
  C   C101      1.0  0.24506  0.49865  0.16400  1.0000
  H   H177      1.0  0.27098  0.41424  0.00447  1.0000
  C   C102      1.0  0.19365  0.46503  0.13022  1.0000
  H   H178      1.0  0.48296  0.36878  0.99204  1.0000
  C   C103      1.0  0.11534  0.22122  0.23765  1.0000
  H   H179      1.0  0.20967  0.49420  0.09999  1.0000
  H   H180      1.0  0.19530  0.37121  0.22603  1.0000
  H   H181      1.0  0.23633  0.03087  0.23471  1.0000
  H   H182      1.0  0.26608  0.01081  0.05203  1.0000
  C   C104      1.0  0.00716  0.34204  0.21031  1.0000
  H   H183      1.0  0.33053  0.38516  0.99265  1.0000
  H   H184      1.0  0.34843  0.50203  0.07170  1.0000
  H   H185      1.0  0.28732  0.37888  0.98830  1.0000
  H   H186      1.0  0.03634  0.25352  0.23744  1.0000
  Fe  Fe15      1.0  0.18971  0.40995  0.37970  1.0000
  S   S31       1.0  0.21934  0.43301  0.37660  1.0000
  S   S32       1.0  0.18482  0.38439  0.40713  1.0000
  Fe  Fe16      1.0  0.17104  0.42823  0.33888  1.0000
  S   S33       1.0  0.19855  0.45349  0.33320  1.0000
  S   S34       1.0  0.14320  0.42698  0.31602  1.0000
  Fe  Fe17      1.0  0.22248  0.42416  0.34282  1.0000
  S   S35       1.0  0.25398  0.41923  0.32047  1.0000
  Fe  Fe18      1.0  0.19294  0.46023  0.36731  1.0000
  H   H187      1.0  0.13929  0.36539  0.47166  1.0000
  S   S36       1.0  0.19492  0.39873  0.34680  1.0000
  S   S37       1.0  0.16344  0.43737  0.37203  1.0000
  Fe  Fe19      1.0  0.17635  0.04368  0.40432  1.0000
  S   S38       1.0  0.20436  0.02034  0.39170  1.0000
  S   S39       1.0  0.17757  0.05430  0.43756  1.0000
  Fe  Fe20      1.0  0.15011  0.04301  0.36475  1.0000
  S   S40       1.0  0.17541  0.01844  0.34990  1.0000
  S   S41       1.0  0.12027  0.06220  0.35008  1.0000
  H   H188      1.0  0.15795  0.48570  0.41993  1.0000
  Fe  Fe21      1.0  0.20217  0.04077  0.36106  1.0000
  S   S42       1.0  0.22685  0.05779  0.33642  1.0000
  S   S43       1.0  0.14763  0.02293  0.39558  1.0000
  S   S44       1.0  0.17651  0.06583  0.37488  1.0000
  Fe  Fe22      1.0  0.41257  0.34256  0.28239  1.0000
  S   S45       1.0  0.41358  0.31978  0.25553  1.0000
  S   S46       1.0  0.44272  0.35828  0.29664  1.0000
  Fe  Fe23      1.0  0.36193  0.33418  0.29398  1.0000
  S   S47       1.0  0.35975  0.30984  0.26859  1.0000
  S   S48       1.0  0.33197  0.34024  0.31756  1.0000
  Fe  Fe24      1.0  0.39411  0.29550  0.27728  1.0000
  H   H189      1.0  0.38773  0.17969  0.27209  1.0000
  C   C105      1.0  0.14901  0.35490  0.36948  1.0000
  H   H190      1.0  0.14062  0.33974  0.37650  1.0000
  S   S49       1.0  0.39490  0.31735  0.30464  1.0000
  S   S50       1.0  0.37943  0.36106  0.27358  1.0000
  Fe  Fe25      1.0  0.35751  0.14021  0.28525  1.0000
  S   S51       1.0  0.37869  0.11277  0.30161  1.0000
  S   S52       1.0  0.34788  0.17336  0.30016  1.0000
  Fe  Fe26      1.0  0.34796  0.10991  0.24971  1.0000
  S   S53       1.0  0.36843  0.08031  0.26348  1.0000
  H   H191      1.0  0.12110  0.42188  0.35840  1.0000
  Fe  Fe27      1.0  0.35073  0.08968  0.29406  1.0000
  S   S54       1.0  0.33465  0.06517  0.31893  1.0000
  Fe  Fe28      1.0  0.39443  0.10612  0.26961  1.0000
  S   S55       1.0  0.43138  0.10427  0.25602  1.0000
  S   S56       1.0  0.32891  0.11767  0.27969  1.0000
  S   S57       1.0  0.37463  0.13525  0.25386  1.0000
  C   C106      1.0  0.45825  0.10169  0.26770  1.0000
  C   C107      1.0  0.47825  0.10438  0.25488  1.0000
  H   H192      1.0  0.31493  0.11055  0.32459  1.0000
  C   C108      1.0  0.48205  0.09486  0.29752  1.0000
  C   C109      1.0  0.46027  0.09711  0.28913  1.0000
  H   H193      1.0  0.04542  0.17441  0.26488  1.0000
  H   H194      1.0  0.48340  0.09091  0.31405  1.0000
  H   H195      1.0  0.44509  0.09488  0.29918  1.0000
  C   C110      1.0  0.38974  0.23600  0.28169  1.0000
  C   C111      1.0  0.39586  0.21497  0.27335  1.0000
  C   C112      1.0  0.38288  0.19579  0.27859  1.0000
  C   C113      1.0  0.36373  0.19747  0.29234  1.0000
  C   C114      1.0  0.35736  0.21858  0.30042  1.0000
  C   C115      1.0  0.37024  0.23784  0.29501  1.0000
  H   H196      1.0  0.47271  0.29453  0.26771  1.0000
  H   H197      1.0  0.10973  0.38482  0.33962  1.0000
  H   H198      1.0  0.34251  0.22002  0.31100  1.0000
  H   H199      1.0  0.36541  0.25396  0.30154  1.0000
  H   H200      1.0  0.11532  0.42362  0.43471  1.0000
  H   H201      1.0  0.16506  0.35541  0.37781  1.0000
  C   C116      1.0  0.47752  0.35215  0.26614  1.0000
  C   C117      1.0  0.47166  0.35629  0.28698  1.0000
  C   C118      1.0  0.48922  0.35967  0.30045  1.0000
  H   H202      1.0  0.09742  0.09501  0.28226  1.0000
  H   H203      1.0  0.22115  0.34338  0.31521  1.0000
  H   H204      1.0  0.20454  0.09413  0.26222  1.0000
  H   H205      1.0  0.48490  0.36299  0.31658  1.0000
  H   H206      1.0  0.25961  0.12684  0.31744  1.0000
  C   C119      1.0  0.25695  0.05915  0.33211  1.0000
  C   C120      1.0  0.27239  0.04979  0.34639  1.0000
  C   C121      1.0  0.29611  0.05165  0.34213  1.0000
  C   C122      1.0  0.30466  0.06290  0.32362  1.0000
  C   C123      1.0  0.28918  0.07225  0.30939  1.0000
  C   C124      1.0  0.26553  0.07045  0.31365  1.0000
  H   H207      1.0  0.26609  0.04101  0.36064  1.0000
  H   H208      1.0  0.30791  0.04424  0.35322  1.0000
  H   H209      1.0  0.29547  0.08056  0.29493  1.0000
  H   H210      1.0  0.25383  0.07760  0.30240  1.0000
  C   C125      1.0  0.11678  0.06120  0.32312  1.0000
  C   C126      1.0  0.12342  0.04185  0.31240  1.0000
  C   C127      1.0  0.12017  0.04148  0.29092  1.0000
  C   C128      1.0  0.11102  0.06071  0.27993  1.0000
  C   C129      1.0  0.10459  0.08016  0.29059  1.0000
  C   C130      1.0  0.10714  0.08025  0.31221  1.0000
  H   H211      1.0  0.13073  0.02705  0.32073  1.0000
  H   H212      1.0  0.12510  0.02637  0.28274  1.0000
  H   H213      1.0  0.10191  0.09522  0.32049  1.0000
  C   C131      1.0  0.15329  0.47137  0.43104  1.0000
  C   C132      1.0  0.13826  0.46236  0.46713  1.0000
  C   C133      1.0  0.27556  0.39713  0.32013  1.0000
  C   C134      1.0  0.29389  0.39876  0.30517  1.0000
  C   C135      1.0  0.31098  0.38127  0.30376  1.0000
  C   C136      1.0  0.31010  0.36205  0.31755  1.0000
  C   C137      1.0  0.29188  0.36053  0.33261  1.0000
  C   C138      1.0  0.27463  0.37787  0.33384  1.0000
  H   H214      1.0  0.29499  0.41376  0.29475  1.0000
  H   H215      1.0  0.32496  0.38279  0.29222  1.0000
  H   H216      1.0  0.29113  0.34584  0.34348  1.0000
  H   H217      1.0  0.26070  0.37637  0.34546  1.0000
  C   C139      1.0  0.13941  0.40165  0.30365  1.0000
  C   C140      1.0  0.12796  0.40237  0.28501  1.0000
  C   C141      1.0  0.12542  0.38237  0.27457  1.0000
  C   C142      1.0  0.13380  0.36150  0.28305  1.0000
  C   C143      1.0  0.14456  0.36073  0.30205  1.0000
  C   C144      1.0  0.14772  0.38078  0.31209  1.0000
  H   H218      1.0  0.12145  0.41850  0.27840  1.0000
  H   H219      1.0  0.11703  0.38315  0.25997  1.0000
  H   H220      1.0  0.15682  0.38019  0.32619  1.0000
  C   C145      1.0  0.11895  0.10104  0.46210  1.0000
  C   C146      1.0  0.13514  0.09159  0.47561  1.0000
  C   C147      1.0  0.15310  0.07729  0.46794  1.0000
  C   C148      1.0  0.15482  0.07216  0.44683  1.0000
  C   C149      1.0  0.13850  0.08145  0.43340  1.0000
  C   C150      1.0  0.12075  0.09597  0.44099  1.0000
  H   H221      1.0  0.17909  0.38879  0.28028  1.0000
  H   H222      1.0  0.49293  0.25567  0.27238  1.0000
  H   H223      1.0  0.13962  0.07759  0.41712  1.0000
  H   H224      1.0  0.10827  0.10318  0.43046  1.0000
  C   C151      1.0  0.12521  0.39498  0.45499  1.0000
  C   C152      1.0  0.12776  0.40985  0.43730  1.0000
  C   C153      1.0  0.14630  0.40706  0.42296  1.0000
  C   C154      1.0  0.16223  0.38904  0.42582  1.0000
  C   C155      1.0  0.15959  0.37397  0.44342  1.0000
  C   C156      1.0  0.14117  0.37699  0.45807  1.0000
  H   H225      1.0  0.14809  0.41876  0.40961  1.0000
  H   H226      1.0  0.17182  0.35993  0.44575  1.0000
  H   H227      1.0  0.05865  0.06374  0.28175  1.0000
  H   H228      1.0  0.27069  0.14577  0.29710  1.0000
  H   H229      1.0  0.04850  0.04402  0.30155  1.0000
  H   H230      1.0  0.49682  0.29259  0.30936  1.0000
  H   H231      1.0  0.17331  0.48930  0.47502  1.0000
  H   H232      1.0  0.15551  0.45884  0.47297  1.0000
  H   H233      1.0  0.01872  0.11316  0.27397  1.0000
  H   H234      1.0  0.18125  0.35777  0.24832  1.0000
  H   H235      1.0  0.19584  0.39166  0.30193  1.0000
  H   H236      1.0  0.12113  0.49194  0.40830  1.0000
  C   C157      1.0  0.20285  0.41568  0.27671  1.0000
  Fe  Fe29      1.0  0.37912  0.33578  0.24859  1.0000
  H   H237      1.0  0.43190  0.20696  0.30150  1.0000
  H   H238      1.0  0.19385  0.35823  0.31839  1.0000
  H   H239      1.0  0.08237  0.37941  0.35138  1.0000
  H   H240      1.0  0.22942  0.10397  0.27189  1.0000
  H   H241      1.0  0.10133  0.37578  0.41848  1.0000
  C   C158      1.0  0.05131  0.04685  0.28439  1.0000
  H   H242      1.0  0.41885  0.14920  0.30976  1.0000
  H   H243      1.0  0.14126  0.38934  0.35894  1.0000
  C   C159      1.0  0.14027  0.17045  0.44392  1.0000
  H   H244      1.0  0.09096  0.16924  0.46923  1.0000
  H   H245      1.0  0.46627  0.27676  0.29104  1.0000
  C   C160      1.0  0.46770  0.18448  0.26100  1.0000
  C   C161      1.0  0.14370  0.19121  0.45705  1.0000
  C   C162      1.0  0.19675  0.39140  0.28468  1.0000
  H   H246      1.0  0.32862  0.37833  0.25211  1.0000
  C   C163      1.0  0.13521  0.37758  0.37198  1.0000
  C   C164      1.0  0.47380  0.29288  0.28482  1.0000
  H   H247      1.0  0.18347  0.04084  0.28611  1.0000
  C   C165      1.0  0.02759  0.09621  0.27288  1.0000
  N   N9        1.0  0.21264  0.37239  0.27745  1.0000
  H   H248      1.0  0.24323  0.39147  0.27836  1.0000
  H   H249      1.0  0.10809  0.40426  0.39454  1.0000
  N   N10       1.0  0.10952  0.37701  0.37300  1.0000
  H   H250      1.0  0.12720  0.35944  0.41159  1.0000
  H   H251      1.0  0.13826  0.20679  0.44769  1.0000
  H   H252      1.0  0.25792  0.35481  0.26413  1.0000
  H   H253      1.0  0.10736  0.46571  0.43927  1.0000
  H   H254      1.0  0.18530  0.34876  0.28164  1.0000
  H   H255      1.0  0.41070  0.21355  0.26278  1.0000
  H   H256      1.0  0.46268  0.30682  0.29122  1.0000
  H   H257      1.0  0.28689  0.12071  0.30449  1.0000
  H   H258      1.0  0.29824  0.37661  0.25492  1.0000
  S   S58       1.0  0.10172  0.39973  0.47253  1.0000
  C   C166      1.0  0.20362  0.34513  0.30962  1.0000
  H   H259      1.0  0.15381  0.35222  0.35289  1.0000
  H   H260      1.0  0.16790  0.15788  0.47905  1.0000
  H   H261      1.0  0.17242  0.44127  0.44403  1.0000
  H   H262      1.0  0.33168  0.41925  0.33450  1.0000
  N   N11       1.0  0.37706  0.39359  0.33542  1.0000
  C   C167      1.0  0.35409  0.39131  0.34693  1.0000
  C   C168      1.0  0.38658  0.36982  0.33216  1.0000
  C   C169      1.0  0.37315  0.40556  0.31446  1.0000
  C   C170      1.0  0.39199  0.40711  0.34812  1.0000
  C   C171      1.0  0.38914  0.35437  0.35215  1.0000
  C   C172      1.0  0.39440  0.40979  0.29994  1.0000
  C   C173      1.0  0.41814  0.40357  0.34436  1.0000
  H   H263      1.0  0.35600  0.38366  0.36300  1.0000
  H   H264      1.0  0.40339  0.36966  0.32364  1.0000
  H   H265      1.0  0.37551  0.36099  0.32196  1.0000
  H   H266      1.0  0.36115  0.39594  0.30578  1.0000
  H   H267      1.0  0.36495  0.42271  0.31626  1.0000
  H   H268      1.0  0.38772  0.42564  0.34575  1.0000
  H   H269      1.0  0.38847  0.40287  0.36507  1.0000
  H   H270      1.0  0.32494  0.41001  0.36077  1.0000
  H   H271      1.0  0.34355  0.37940  0.33918  1.0000
  H   H272      1.0  0.37236  0.34808  0.35816  1.0000
  H   H273      1.0  0.40003  0.33914  0.34836  1.0000
  H   H274      1.0  0.39728  0.36294  0.36454  1.0000
  H   H275      1.0  0.40521  0.42261  0.30604  1.0000
  H   H276      1.0  0.38883  0.41694  0.28458  1.0000
  H   H277      1.0  0.40465  0.39408  0.29679  1.0000
  H   H278      1.0  0.42634  0.41992  0.34619  1.0000
  H   H279      1.0  0.42401  0.39798  0.32880  1.0000
  H   H280      1.0  0.42522  0.39154  0.35653  1.0000
  N   N12       1.0  0.46566  0.17524  0.28338  1.0000
  S   S59       1.0  0.19298  0.49311  0.38459  1.0000
  C   C174      1.0  0.02860  0.04375  0.27384  1.0000
  C   C175      1.0  0.46779  0.19441  0.29755  1.0000
  C   C176      1.0  0.48417  0.15753  0.28802  1.0000
  H   H281      1.0  0.18919  0.42774  0.28248  1.0000
  H   H282      1.0  0.06906  0.20084  0.24305  1.0000
  C   C177      1.0  0.44889  0.21333  0.29641  1.0000
  C   C178      1.0  0.10837  0.36032  0.41102  1.0000
  H   H283      1.0  0.14357  0.10321  0.26499  1.0000
  N   N13       1.0  0.13216  0.19102  0.47861  1.0000
  H   H284      1.0  0.46854  0.18792  0.31412  1.0000
  S   S60       1.0  0.07920  0.12183  0.24060  1.0000
  H   H285      1.0  0.20372  0.41790  0.25948  1.0000
  H   H286      1.0  0.10504  0.34163  0.38387  1.0000
  H   H287      1.0  0.48276  0.15122  0.30466  1.0000
  H   H288      1.0  0.01443  0.04604  0.28583  1.0000
  H   H289      1.0  0.16974  0.11722  0.25709  1.0000
  H   H290      1.0  0.21259  0.33551  0.27828  1.0000
  H   H291      1.0  0.42885  0.17616  0.28139  1.0000
  H   H292      1.0  0.48840  0.15748  0.24553  1.0000
  H   H293      1.0  0.13902  0.17639  0.42730  1.0000
  H   H294      1.0  0.08959  0.33849  0.35268  1.0000
  N   N14       1.0  0.13829  0.47984  0.44905  1.0000
  H   H295      1.0  0.45248  0.22670  0.30713  1.0000
  H   H296      1.0  0.15678  0.02417  0.47553  1.0000
  H   H297      1.0  0.49917  0.27490  0.24376  1.0000
  C   C179      1.0  0.10781  0.20007  0.47787  1.0000
  N   N15       1.0  0.29783  0.13507  0.34442  1.0000
  C   C180      1.0  0.28718  0.14841  0.32636  1.0000
  C   C181      1.0  0.30310  0.15181  0.36023  1.0000
  C   C182      1.0  0.28079  0.11829  0.35376  1.0000
  C   C183      1.0  0.31915  0.12294  0.33598  1.0000
  C   C184      1.0  0.31971  0.17047  0.35253  1.0000
  C   C185      1.0  0.28207  0.11105  0.37716  1.0000
  C   C186      1.0  0.33381  0.10960  0.35198  1.0000
  H   H298      1.0  0.27406  0.16108  0.33211  1.0000
  H   H299      1.0  0.30017  0.15844  0.31699  1.0000
  H   H300      1.0  0.31056  0.14319  0.37421  1.0000
  H   H301      1.0  0.28704  0.16054  0.36612  1.0000
  H   H302      1.0  0.26302  0.12539  0.35242  1.0000
  H   H303      1.0  0.28170  0.10252  0.34495  1.0000
  H   H304      1.0  0.33043  0.13510  0.32706  1.0000
  H   H305      1.0  0.33678  0.16324  0.34771  1.0000
  H   H306      1.0  0.31300  0.18166  0.33962  1.0000
  H   H307      1.0  0.32224  0.18156  0.36554  1.0000
  H   H308      1.0  0.27095  0.09641  0.38086  1.0000
  H   H309      1.0  0.27548  0.12499  0.38701  1.0000
  H   H310      1.0  0.29935  0.10562  0.38181  1.0000
  H   H311      1.0  0.33929  0.12028  0.36424  1.0000
  H   H312      1.0  0.34962  0.10299  0.34378  1.0000
  H   H313      1.0  0.32502  0.09451  0.35890  1.0000
  N   N16       1.0  0.17671  0.09807  0.29868  1.0000
  C   C187      1.0  0.17204  0.09427  0.32192  1.0000
  C   C188      1.0  0.17223  0.07617  0.28887  1.0000
  C   C189      1.0  0.16035  0.11686  0.29104  1.0000
  C   C190      1.0  0.20110  0.10480  0.29501  1.0000
  C   C191      1.0  0.17331  0.11535  0.33496  1.0000
  C   C192      1.0  0.18753  0.05536  0.29536  1.0000
  H   H314      1.0  0.04476  0.09927  0.26577  1.0000
  H   H315      1.0  0.09262  0.49770  0.41792  1.0000
  H   H316      1.0  0.15484  0.08738  0.32533  1.0000
  H   H317      1.0  0.18418  0.08130  0.32870  1.0000
  H   H318      1.0  0.17364  0.07777  0.27161  1.0000
  H   H319      1.0  0.15433  0.07161  0.29257  1.0000
  H   H320      1.0  0.14353  0.11581  0.29989  1.0000
  H   H321      1.0  0.16674  0.13386  0.29391  1.0000
  H   H322      1.0  0.20344  0.12161  0.30142  1.0000
  H   H323      1.0  0.21290  0.09323  0.30405  1.0000
  H   H324      1.0  0.16137  0.12942  0.32998  1.0000
  H   H325      1.0  0.16818  0.11052  0.35145  1.0000
  H   H326      1.0  0.19092  0.12137  0.33491  1.0000
  H   H327      1.0  0.15543  0.15854  0.44428  1.0000
  H   H328      1.0  0.20591  0.05843  0.29234  1.0000
  H   H329      1.0  0.48158  0.19675  0.25850  1.0000
  H   H330      1.0  0.05865  0.07065  0.24837  1.0000
  H   H331      1.0  0.50260  0.31308  0.28880  1.0000
  H   H332      1.0  0.00942  0.22471  0.24591  1.0000
  H   H333      1.0  0.02236  0.17797  0.24780  1.0000
  H   H334      1.0  0.19544  0.32872  0.31374  1.0000
  H   H335      1.0  0.18566  0.45502  0.42145  1.0000
  C   C193      1.0  0.09192  0.18752  0.46455  1.0000
  H   H336      1.0  0.46425  0.34970  0.25554  1.0000
  C   C194      1.0  0.10013  0.39975  0.38008  1.0000
  H   H337      1.0  0.18665  0.46774  0.44581  1.0000
  S   S61       1.0  0.40798  0.25892  0.27653  1.0000
  H   H338      1.0  0.09744  0.35037  0.32735  1.0000
  H   H339      1.0  0.00973  0.37972  0.24624  1.0000
  H   H340      1.0  0.12484  0.16080  0.44812  1.0000
  C   C195      1.0  0.43618  0.15612  0.30945  1.0000
  C   C196      1.0  0.10051  0.35907  0.38861  1.0000
  H   H341      1.0  0.09809  0.43619  0.37204  1.0000
  H   H342      1.0  0.21890  0.42090  0.28307  1.0000
  H   H343      1.0  0.14142  0.38535  0.38585  1.0000
  C   C197      1.0  0.21441  0.37254  0.25396  1.0000
  H   H344      1.0  0.11929  0.34143  0.34433  1.0000
  H   H345      1.0  0.22457  0.35740  0.24869  1.0000
  H   H346      1.0  0.14444  0.13341  0.26409  1.0000
  H   H347      1.0  0.08149  0.39913  0.38421  1.0000
  C   C198      1.0  0.44285  0.16440  0.28685  1.0000
  H   H348      1.0  0.43522  0.17006  0.32034  1.0000
  H   H349      1.0  0.09680  0.18983  0.44769  1.0000
  H   H350      1.0  0.18416  0.04975  0.31194  1.0000
  H   H351      1.0  0.24910  0.33971  0.28832  1.0000
  C   C199      1.0  0.00748  0.04706  0.24175  1.0000
  H   H352      1.0  0.48424  0.20286  0.29403  1.0000
  C   C200      1.0  0.23591  0.37556  0.28536  1.0000
  H   H353      1.0  0.20678  0.12429  0.26514  1.0000
  H   H354      1.0  0.13400  0.02160  0.44301  1.0000
  H   H355      1.0  0.08150  0.35991  0.38943  1.0000
  H   H356      1.0  0.09226  0.41945  0.35081  1.0000
  C   C201      1.0  0.20331  0.35001  0.28576  1.0000
  C   C202      1.0  0.10206  0.34952  0.34394  1.0000
  H   H357      1.0  0.10194  0.34557  0.42079  1.0000
  S   S62       1.0  0.09659  0.11975  0.47071  1.0000
  C   C203      1.0  0.21062  0.10700  0.27220  1.0000
  H   H358      1.0  0.45200  0.19463  0.25684  1.0000
  H   H359      1.0  0.44773  0.14206  0.31520  1.0000
  H   H360      1.0  0.44815  0.22178  0.28058  1.0000
  H   H361      1.0  0.15094  0.34460  0.30873  1.0000
  C   C204      1.0  0.33944  0.41344  0.34936  1.0000
  H   H362      1.0  0.34915  0.42722  0.35527  1.0000
  H   H363      1.0  0.11351  0.22053  0.25450  1.0000
  H   H364      1.0  0.19262  0.00563  0.46362  1.0000
  H   H365      1.0  0.48210  0.14202  0.27950  1.0000
  C   C205      1.0  0.27551  0.13437  0.31065  1.0000
  C   C206      1.0  0.25398  0.35639  0.28103  1.0000
  S   S63       1.0  0.13213  0.33615  0.27014  1.0000
  H   H366      1.0  0.23480  0.37790  0.30247  1.0000
  C   C207      1.0  0.10071  0.37381  0.35176  1.0000
  C   C208      1.0  0.19161  0.37251  0.24305  1.0000
  C   C209      1.0  0.27320  0.42120  0.24778  1.0000
  H   H367      1.0  0.44213  0.14930  0.27732  1.0000
  H   H368      1.0  0.16567  0.07015  0.47841  1.0000
  H   H369      1.0  0.13315  0.44569  0.46198  1.0000
  C   C210      1.0  0.10321  0.42027  0.36427  1.0000
  S   S64       1.0  0.10773  0.05969  0.25297  1.0000
  H   H370      1.0  0.16250  0.19216  0.45812  1.0000
  C   C211      1.0  0.15452  0.11748  0.26793  1.0000
  C   C212      1.0  0.49999  0.10258  0.26332  1.0000
  C   C213      1.0  0.16558  0.01143  0.48597  1.0000
  C   C214      1.0  0.17571  0.45821  0.43626  1.0000
  H   H371      1.0  0.14393  0.45965  0.42185  1.0000
  H   H372      1.0  0.27011  0.36050  0.28796  1.0000
  C   C215      1.0  0.04535  0.06215  0.24050  1.0000
  C   C216      1.0  0.01358  0.08141  0.25981  1.0000
  H   H373      1.0  0.02875  0.08885  0.28907  1.0000
  H   H374      1.0  0.16845  0.00521  0.43570  1.0000
  H   H375      1.0  0.18123  0.38848  0.24500  1.0000
  C   C217      1.0  0.04115  0.17830  0.24840  1.0000
  H   H376      1.0  0.45792  0.15405  0.24541  1.0000
  C   C218      1.0  0.11417  0.48260  0.44197  1.0000
  H   H377      1.0  0.07433  0.19495  0.46672  1.0000
  C   C219      1.0  0.50204  0.09764  0.28471  1.0000
  H   H378      1.0  0.28702  0.43309  0.24410  1.0000
  C   C220      1.0  0.31298  0.37653  0.24346  1.0000
  H   H379      1.0  0.12301  0.15547  0.48153  1.0000
  H   H380      1.0  0.04352  0.21375  0.25274  1.0000
  N   N17       1.0  0.02415  0.05859  0.25441  1.0000
  H   H381      1.0  0.27633  0.41168  0.26280  1.0000
  H   H382      1.0  0.00937  0.09167  0.24534  1.0000
  H   H383      1.0  0.05936  0.02672  0.24401  1.0000
  H   H384      1.0  0.06434  0.03362  0.27976  1.0000
  H   H385      1.0  0.14766  0.23526  0.46848  1.0000
  Fe  Fe30      1.0  0.11576  0.33625  0.23896  1.0000
  C   C221      1.0  0.05030  0.20172  0.24112  1.0000
  H   H386      1.0  0.10256  0.49013  0.45421  1.0000
  H   H387      1.0  0.10692  0.21795  0.47142  1.0000
  C   C222      1.0  0.50055  0.35204  0.25876  1.0000
  H   H388      1.0  0.22372  0.38748  0.24727  1.0000
  H   H389      1.0  0.50185  0.24937  0.29780  1.0000
  S   S65       1.0  0.11451  0.17463  0.24161  1.0000
  C   C223      1.0  0.14376  0.23189  0.48539  1.0000
  C   C224      1.0  0.11075  0.49792  0.42196  1.0000
  H   H390      1.0  0.06525  0.24494  0.24379  1.0000
  H   H391      1.0  0.25740  0.43180  0.25076  1.0000
  C   C225      1.0  0.47154  0.16656  0.24444  1.0000
  H   H392      1.0  0.10425  0.46675  0.48288  1.0000
  H   H393      1.0  0.02885  0.02548  0.27022  1.0000
  H   H394      1.0  0.50478  0.34949  0.24246  1.0000
  C   C226      1.0  0.49824  0.29507  0.29202  1.0000
  H   H395      1.0  0.04931  0.16446  0.23933  1.0000
  C   C227      1.0  0.12248  0.46796  0.48620  1.0000
  H   H396      1.0  0.49983  0.30556  0.24269  1.0000
  H   H397      1.0  0.26329  0.38876  0.23928  1.0000
  C   C228      1.0  0.14538  0.50280  0.45501  1.0000
  H   H398      1.0  0.21077  0.04829  0.23891  1.0000
  H   H399      1.0  0.47694  0.10792  0.23828  1.0000
  H   H400      1.0  0.01362  0.02940  0.23865  1.0000
  S   S66       1.0  0.17927  0.47486  0.58433  1.0000
  Fe  Fe31      1.0  0.10254  0.37421  0.54883  1.0000
  S   S67       1.0  0.08076  0.39771  0.52900  1.0000
  S   S68       1.0  0.11767  0.38867  0.57727  1.0000
  Fe  Fe32      1.0  0.08889  0.33175  0.52647  1.0000
  S   S69       1.0  0.06682  0.35351  0.50484  1.0000
  S   S70       1.0  0.08252  0.29419  0.52142  1.0000
  Fe  Fe33      1.0  0.09527  0.37784  0.50228  1.0000
  C   C229      1.0  0.02617  0.31070  0.56850  1.0000
  Fe  Fe34      1.0  0.05420  0.37138  0.53310  1.0000
  S   S71       1.0  0.01725  0.38272  0.53980  1.0000
  S   S72       1.0  0.11878  0.35516  0.52174  1.0000
  S   S73       1.0  0.07466  0.34895  0.55505  1.0000
  Fe  Fe35      1.0  0.08756  0.10737  0.55020  1.0000
  S   S74       1.0  0.06324  0.10503  0.52447  1.0000
  S   S75       1.0  0.08935  0.07612  0.57311  1.0000
  Fe  Fe36      1.0  0.09497  0.15861  0.53852  1.0000
  S   S76       1.0  0.07134  0.15901  0.51238  1.0000
  S   S77       1.0  0.11300  0.19076  0.54587  1.0000
  Fe  Fe37      1.0  0.04824  0.13856  0.53437  1.0000
  H   H401      1.0  0.24439  0.02922  0.64296  1.0000
  Fe  Fe38      1.0  0.08869  0.12543  0.50493  1.0000
  H   H402      1.0  0.02156  0.05770  0.55017  1.0000
  S   S78       1.0  0.07094  0.14008  0.56126  1.0000
  S   S79       1.0  0.11408  0.12591  0.52986  1.0000
  C   C230      1.0  0.12523  0.01757  0.58945  1.0000
  C   C231      1.0  0.15192  0.04282  0.57137  1.0000
  H   H403      1.0  0.01819  0.34549  0.57665  1.0000
  C   C232      1.0  0.09178  0.26569  0.52838  1.0000
  C   C233      1.0  0.11096  0.26032  0.53997  1.0000
  C   C234      1.0  0.11715  0.23735  0.54527  1.0000
  C   C235      1.0  0.10410  0.21950  0.53936  1.0000
  C   C236      1.0  0.08476  0.22493  0.52803  1.0000
  C   C237      1.0  0.07887  0.24781  0.52235  1.0000
  H   H404      1.0  0.12108  0.27382  0.54477  1.0000
  H   H405      1.0  0.13214  0.23339  0.55406  1.0000
  H   H406      1.0  0.07436  0.21150  0.52356  1.0000
  H   H407      1.0  0.06396  0.25171  0.51343  1.0000
  H   H408      1.0  0.30907  0.44377  0.60715  1.0000
  C   C238      1.0  0.10759  0.03423  0.58627  1.0000
  C   C239      1.0  0.11194  0.05518  0.57545  1.0000
  C   C240      1.0  0.13420  0.05926  0.56779  1.0000
  H   H409      1.0  0.27644  0.49907  0.60904  1.0000
  H   H410      1.0  0.13785  0.07532  0.55955  1.0000
  C   C241      1.0  0.16153  0.45123  0.58276  1.0000
  C   C242      1.0  0.16256  0.43951  0.56423  1.0000
  C   C243      1.0  0.14861  0.42098  0.56197  1.0000
  C   C244      1.0  0.13396  0.41336  0.57854  1.0000
  C   C245      1.0  0.13317  0.42490  0.59719  1.0000
  C   C246      1.0  0.14658  0.44392  0.59920  1.0000
  H   H411      1.0  0.17415  0.44487  0.55143  1.0000
  H   H412      1.0  0.14969  0.41211  0.54766  1.0000
  H   H413      1.0  0.12208  0.41904  0.61018  1.0000
  H   H414      1.0  0.14563  0.45261  0.61361  1.0000
  C   C247      1.0  0.22241  0.44107  0.61543  1.0000
  C   C248      1.0  0.13250  0.16775  0.48964  1.0000
  C   C249      1.0  0.02497  0.32944  0.58437  1.0000
  H   H415      1.0  0.30265  0.46354  0.58636  1.0000
  H   H416      1.0  0.24984  0.45172  0.64348  1.0000
  H   H417      1.0  0.09188  0.27174  0.58776  1.0000
  C   C250      1.0  0.27545  0.47511  0.64736  1.0000
  H   H418      1.0  0.03665  0.06435  0.59490  1.0000
  H   H419      1.0  0.16308  0.20103  0.49212  1.0000
  H   H420      1.0  0.09308  0.45750  0.58211  1.0000
  H   H421      1.0  0.27206  0.43592  0.61552  1.0000
  H   H422      1.0  0.11075  0.45573  0.55895  1.0000
  N   N18       1.0  0.22999  0.00725  0.62167  1.0000
  H   H423      1.0  0.01341  0.25691  0.53685  1.0000
  H   H424      1.0  0.00916  0.10513  0.52283  1.0000
  H   H425      1.0  0.04411  0.10181  0.58723  1.0000
  C   C251      1.0  0.07376  0.26773  0.58625  1.0000
  H   H426      1.0  0.20725  0.43727  0.60679  1.0000
  H   H427      1.0  0.07375  0.25514  0.57408  1.0000
  H   H428      1.0  0.24164  0.49736  0.57540  1.0000
  H   H429      1.0  0.26834  0.44683  0.58954  1.0000
  H   H430      1.0  0.03651  0.31688  0.55442  1.0000
  H   H431      1.0  0.27151  0.03714  0.60282  1.0000
  H   H432      1.0  0.02732  0.28961  0.60963  1.0000
  H   H433      1.0  0.01017  0.10333  0.56454  1.0000
  H   H434      1.0  0.28924  0.46184  0.64561  1.0000
  H   H435      1.0  0.21924  0.47738  0.60995  1.0000
  H   H436      1.0  0.17656  0.02130  0.49539  1.0000
  S   S80       1.0  0.01104  0.14992  0.53976  1.0000
  N   N19       1.0  0.25530  0.46933  0.61314  1.0000
  C   C252      1.0  0.27267  0.45181  0.60529  1.0000
  H   H437      1.0  0.01404  0.28712  0.53499  1.0000
  H   H438      1.0  0.04881  0.27203  0.54834  1.0000
  C   C253      1.0  0.06017  0.28999  0.58035  1.0000
  H   H439      1.0  0.15988  0.49128  0.51619  1.0000
  C   C254      1.0  0.01311  0.27215  0.54626  1.0000
  C   C255      1.0  0.25557  0.04173  0.61196  1.0000
  H   H440      1.0  0.15460  0.13836  0.49770  1.0000
  H   H441      1.0  0.21629  0.44241  0.63196  1.0000
  H   H442      1.0  0.06223  0.30145  0.59320  1.0000
  H   H443      1.0  0.09047  0.03093  0.59235  1.0000
  H   H444      1.0  0.22933  0.01822  0.58860  1.0000
  H   H445      1.0  0.12428  0.47882  0.53087  1.0000
  H   H446      1.0  0.12339  0.16850  0.50523  1.0000
  H   H447      1.0  0.02555  0.11115  0.60882  1.0000
  H   H448      1.0  0.24239  0.04787  0.60116  1.0000
  C   C256      1.0  0.02780  0.11087  0.59163  1.0000
  H   H449      1.0  0.20059  0.03973  0.59905  1.0000
  H   H450      1.0  0.09325  0.49889  0.58082  1.0000
  H   H451      1.0  0.01863  0.04314  0.58768  1.0000
  H   H452      1.0  0.21014  0.05453  0.62100  1.0000
  C   C257      1.0  0.24880  0.02190  0.62761  1.0000
  C   C258      1.0  0.03406  0.27052  0.55978  1.0000
  H   H453      1.0  0.30239  0.47245  0.61280  1.0000
  H   H454      1.0  0.12585  0.45507  0.49909  1.0000
  C   C259      1.0  0.25936  0.49698  0.58063  1.0000
  H   H455      1.0  0.04841  0.05016  0.56087  1.0000
  H   H456      1.0  0.06934  0.29799  0.56635  1.0000
  C   C260      1.0  0.25390  0.46892  0.63666  1.0000
  C   C261      1.0  0.23212  0.46364  0.60622  1.0000
  C   C262      1.0  0.00729  0.10109  0.58172  1.0000
  C   C263      1.0  0.19996  0.04049  0.61624  1.0000
  H   H457      1.0  0.08224  0.46868  0.55809  1.0000
  H   H458      1.0  0.01312  0.32530  0.59791  1.0000
  C   C264      1.0  0.15635  0.15672  0.49320  1.0000
  H   H459      1.0  0.06765  0.25991  0.60150  1.0000
  C   C265      1.0  0.14758  0.02189  0.58222  1.0000
  C   C266      1.0  0.02324  0.27936  0.59638  1.0000
  H   H460      1.0  0.03540  0.25280  0.56676  1.0000
  H   H461      1.0  0.18189  0.04489  0.62086  1.0000
  H   H462      1.0  0.25968  0.05655  0.62081  1.0000
  H   H463      1.0  0.23227  0.46259  0.58898  1.0000
  H   H464      1.0  0.16913  0.04640  0.56575  1.0000
  H   H465      1.0  0.23972  0.48059  0.64219  1.0000
  N   N20       1.0  0.03530  0.28762  0.57630  1.0000
  H   H466      1.0  0.26982  0.48397  0.57229  1.0000
  C   C267      1.0  0.09784  0.46679  0.56708  1.0000
  H   H467      1.0  0.23477  0.42647  0.61390  1.0000
  H   H468      1.0  0.13815  0.20464  0.50845  1.0000
  C   C268      1.0  0.20684  0.01771  0.62759  1.0000
  H   H469      1.0  0.27124  0.47586  0.66437  1.0000
  C   C269      1.0  0.29783  0.45879  0.60293  1.0000
  H   H470      1.0  0.26472  0.01126  0.62982  1.0000
  H   H471      1.0  0.16431  0.16435  0.50629  1.0000
  H   H472      1.0  0.04013  0.07937  0.55740  1.0000
  H   H473      1.0  0.12697  0.23998  0.49004  1.0000
  C   C270      1.0  0.02289  0.06120  0.58426  1.0000
  H   H474      1.0  0.04188  0.33318  0.58982  1.0000
  H   H475      1.0  0.13390  0.09538  0.49189  1.0000
  C   C271      1.0  0.10718  0.49001  0.57170  1.0000
  C   C272      1.0  0.13277  0.49066  0.54056  1.0000
  C   C273      1.0  0.03352  0.06240  0.56180  1.0000
  H   H476      1.0  0.09981  0.20026  0.49394  1.0000
  H   H477      1.0  0.12123  0.48645  0.58261  1.0000
  H   H478      1.0  0.15662  0.24046  0.49391  1.0000
  H   H479      1.0  0.14327  0.47968  0.55125  1.0000
  H   H480      1.0  0.08845  0.49628  0.53338  1.0000
  H   H481      1.0  0.20541  0.02113  0.64443  1.0000
  C   C274      1.0  0.14468  0.20626  0.49188  1.0000
  H   H482      1.0  0.01495  0.33714  0.52483  1.0000
  H   H483      1.0  0.19329  0.00555  0.62526  1.0000
  H   H484      1.0  0.02927  0.12885  0.58571  1.0000
  H   H485      1.0  0.28156  0.49210  0.64210  1.0000
  H   H486      1.0  0.02971  0.26194  0.60119  1.0000
  H   H487      1.0  0.01062  0.07879  0.62043  1.0000
  H   H488      1.0  0.00866  0.31009  0.56309  1.0000
  H   H489      1.0  0.12558  0.48488  0.49183  1.0000
  C   C275      1.0  0.25988  0.49316  0.60455  1.0000
  S   S81       1.0  0.19071  0.50125  0.64123  1.0000
  H   H490      1.0  0.20204  0.50288  0.69999  1.0000
  Fe  Fe39      1.0  0.18039  0.50258  0.60789  1.0000
  C   C276      1.0  0.15036  0.50350  0.52626  1.0000
  S   S82       1.0  0.30758  0.47447  0.90774  1.0000
  Fe  Fe40      1.0  0.35720  0.35033  0.94335  1.0000
  S   S83       1.0  0.38322  0.37173  0.95602  1.0000
  S   S84       1.0  0.32807  0.36751  0.92495  1.0000
  Fe  Fe41      1.0  0.37827  0.30502  0.96304  1.0000
  S   S85       1.0  0.40491  0.32459  0.97769  1.0000
  S   S86       1.0  0.38524  0.26648  0.97080  1.0000
  H   H491      1.0  0.44581  0.17567  0.98399  1.0000
  H   H492      1.0  0.47079  0.16228  0.89109  1.0000
  Fe  Fe42      1.0  0.40876  0.34420  0.94702  1.0000
  S   S87       1.0  0.44328  0.34948  0.93026  1.0000
  S   S88       1.0  0.34981  0.32975  0.97372  1.0000
  S   S89       1.0  0.38334  0.32393  0.93169  1.0000
  Fe  Fe43      1.0  0.35565  0.08141  0.94550  1.0000
  S   S90       1.0  0.38602  0.07061  0.96415  1.0000
  S   S91       1.0  0.33110  0.05252  0.94178  1.0000
  Fe  Fe44      1.0  0.36630  0.13310  0.94844  1.0000
  S   S92       1.0  0.39653  0.12466  0.96749  1.0000
  S   S93       1.0  0.35710  0.17050  0.93907  1.0000
  Fe  Fe45      1.0  0.40492  0.09749  0.94502  1.0000
  S   S94       1.0  0.44022  0.09245  0.92959  1.0000
  H   H493      1.0  0.46815  0.16149  0.96946  1.0000
  H   H494      1.0  0.40032  0.15975  0.90598  1.0000
  S   S95       1.0  0.37545  0.10679  0.92470  1.0000
  S   S96       1.0  0.34344  0.10881  0.96724  1.0000
  H   H495      1.0  0.47122  0.14815  0.93783  1.0000
  C   C277      1.0  0.36530  0.19694  0.94815  1.0000
  C   C278      1.0  0.38034  0.19818  0.96420  1.0000
  C   C279      1.0  0.38610  0.21955  0.97090  1.0000
  C   C280      1.0  0.37716  0.24004  0.96158  1.0000
  C   C281      1.0  0.36231  0.23878  0.94542  1.0000
  C   C282      1.0  0.35642  0.21741  0.93883  1.0000
  H   H496      1.0  0.28069  0.44683  0.84122  1.0000
  H   H497      1.0  0.29892  0.05069  0.98409  1.0000
  H   H498      1.0  0.35525  0.25428  0.93805  1.0000
  H   H499      1.0  0.34482  0.21676  0.92637  1.0000
  H   H500      1.0  0.34381  0.49731  0.84177  1.0000
  C   C283      1.0  0.46520  0.36048  0.96511  1.0000
  C   C284      1.0  0.46734  0.35256  0.94498  1.0000
  C   C285      1.0  0.46964  0.30367  0.98053  1.0000
  H   H501      1.0  0.45260  0.31161  0.97756  1.0000
  C   C286      1.0  0.42037  0.20826  0.91597  1.0000
  C   C287      1.0  0.48610  0.09682  0.93350  1.0000
  C   C288      1.0  0.46422  0.09872  0.94329  1.0000
  C   C289      1.0  0.46177  0.10635  0.96350  1.0000
  C   C290      1.0  0.48101  0.11246  0.97367  1.0000
  H   H502      1.0  0.48811  0.09091  0.91786  1.0000
  H   H503      1.0  0.44508  0.10752  0.97133  1.0000
  C   C291      1.0  0.44987  0.16703  0.96927  1.0000
  H   H504      1.0  0.31668  0.47537  0.86000  1.0000
  H   H505      1.0  0.48185  0.31491  0.97176  1.0000
  C   C292      1.0  0.32580  0.03449  0.92128  1.0000
  C   C293      1.0  0.33522  0.03798  0.90094  1.0000
  C   C294      1.0  0.47251  0.15039  0.90492  1.0000
  C   C295      1.0  0.36356  0.42239  0.85705  1.0000
  H   H506      1.0  0.40508  0.19781  0.91731  1.0000
  H   H507      1.0  0.34636  0.05196  0.89731  1.0000
  C   C296      1.0  0.31304  0.44454  0.91132  1.0000
  C   C297      1.0  0.29683  0.42861  0.90795  1.0000
  C   C298      1.0  0.30183  0.40514  0.91190  1.0000
  C   C299      1.0  0.32293  0.39726  0.91954  1.0000
  C   C300      1.0  0.33915  0.41320  0.92282  1.0000
  C   C301      1.0  0.33420  0.43664  0.91878  1.0000
  H   H508      1.0  0.28025  0.43436  0.90278  1.0000
  H   H509      1.0  0.28908  0.39300  0.90940  1.0000
  H   H510      1.0  0.35551  0.40749  0.92855  1.0000
  H   H511      1.0  0.34685  0.44877  0.92159  1.0000
  C   C302      1.0  0.44518  0.18389  0.95057  1.0000
  H   H512      1.0  0.33620  0.45781  0.87341  1.0000
  C   C303      1.0  0.35104  0.48301  0.85167  1.0000
  H   H513      1.0  0.41584  0.13337  0.90771  1.0000
  H   H514      1.0  0.48231  0.17401  0.92690  1.0000
  H   H515      1.0  0.36676  0.47592  0.84394  1.0000
  C   C304      1.0  0.48474  0.36257  0.97650  1.0000
  N   N21       1.0  0.44540  0.17398  0.92939  1.0000
  C   C305      1.0  0.44278  0.19374  0.91360  1.0000
  H   H516      1.0  0.27768  0.42629  0.86251  1.0000
  H   H517      1.0  0.49752  0.25274  0.96961  1.0000
  H   H518      1.0  0.45792  0.19736  0.95063  1.0000
  H   H519      1.0  0.41870  0.22001  0.90195  1.0000
  H   H520      1.0  0.35669  0.48988  0.86620  1.0000
  H   H521      1.0  0.38001  0.41406  0.85180  1.0000
  H   H522      1.0  0.43164  0.14108  0.93745  1.0000
  H   H523      1.0  0.34901  0.42010  0.82711  1.0000
  H   H524      1.0  0.31108  0.44461  0.81459  1.0000
  H   H525      1.0  0.30780  0.47149  0.82575  1.0000
  H   H526      1.0  0.42879  0.15677  0.89422  1.0000
  H   H527      1.0  0.44850  0.36508  0.97188  1.0000
  C   C306      1.0  0.41770  0.15202  0.90800  1.0000
  H   H528      1.0  0.28733  0.45355  0.86734  1.0000
  C   C307      1.0  0.45207  0.24162  0.97621  1.0000
  C   C308      1.0  0.33292  0.46531  0.85755  1.0000
  C   C309      1.0  0.30095  0.37886  0.97584  1.0000
  C   C310      1.0  0.42641  0.15754  0.92941  1.0000
  H   H529      1.0  0.29364  0.38377  0.96057  1.0000
  H   H530      1.0  0.42835  0.19234  0.95447  1.0000
  H   H531      1.0  0.44669  0.29073  0.92450  1.0000
  C   C311      1.0  0.31227  0.16637  0.98066  1.0000
  S   S97       1.0  0.26659  0.49968  0.85900  1.0000
  H   H532      1.0  0.45713  0.20541  0.91427  1.0000
  H   H533      1.0  0.49088  0.34070  0.92076  1.0000
  C   C312      1.0  0.46835  0.16201  0.92569  1.0000
  C   C313      1.0  0.31501  0.00559  0.88940  1.0000
  C   C314      1.0  0.31312  0.43071  0.85224  1.0000
  H   H534      1.0  0.43917  0.15200  0.96968  1.0000
  H   H535      1.0  0.41117  0.16404  0.93864  1.0000
  H   H536      1.0  0.27502  0.45787  0.96327  1.0000
  C   C315      1.0  0.33767  0.46695  0.80539  1.0000
  H   H537      1.0  0.48123  0.29455  0.94189  1.0000
  H   H538      1.0  0.44410  0.18836  0.89738  1.0000
  C   C316      1.0  0.46967  0.28165  0.94941  1.0000
  H   H539      1.0  0.33670  0.02703  0.86941  1.0000
  N   N22       1.0  0.47188  0.28004  0.97274  1.0000
  C   C317      1.0  0.35200  0.43374  0.83786  1.0000
  C   C318      1.0  0.32972  0.02373  0.88513  1.0000
  C   C319      1.0  0.50287  0.11070  0.96387  1.0000
  H   H540      1.0  0.30359  0.01351  0.94115  1.0000
  N   N23       1.0  0.33007  0.44721  0.84239  1.0000
  H   H541      1.0  0.28102  0.41858  0.97228  1.0000
  C   C320      1.0  0.32055  0.45745  0.82239  1.0000
  C   C321      1.0  0.31116  0.01628  0.92556  1.0000
  H   H542      1.0  0.48857  0.41542  0.93160  1.0000
  H   H543      1.0  0.36759  0.43492  0.86841  1.0000
  H   H544      1.0  0.31227  0.41566  0.84260  1.0000
  H   H545      1.0  0.33246  0.39328  0.96572  1.0000
  H   H546      1.0  0.35327  0.40880  0.86501  1.0000
  H   H547      1.0  0.36506  0.44427  0.82941  1.0000
  H   H548      1.0  0.31844  0.42389  0.86779  1.0000
  H   H549      1.0  0.39751  0.22023  0.98348  1.0000
  H   H550      1.0  0.43892  0.30452  0.94778  1.0000
  H   H551      1.0  0.34893  0.47949  0.81110  1.0000
  H   H552      1.0  0.32799  0.47594  0.79278  1.0000
  H   H553      1.0  0.47522  0.26536  0.94241  1.0000
  Fe  Fe46      1.0  0.37461  0.09881  0.98468  1.0000
  C   C322      1.0  0.32083  0.39398  0.97996  1.0000
  H   H554      1.0  0.37165  0.43460  0.98663  1.0000
  H   H555      1.0  0.30758  0.36102  0.97481  1.0000
  H   H556      1.0  0.30280  0.42637  0.95402  1.0000
  H   H557      1.0  0.46139  0.13574  0.90417  1.0000
  H   H558      1.0  0.43312  0.27506  0.94590  1.0000
  C   C323      1.0  0.29687  0.42815  0.97059  1.0000
  H   H559      1.0  0.31702  0.18415  0.97681  1.0000
  H   H560      1.0  0.34035  0.43309  0.96306  1.0000
  H   H561      1.0  0.42027  0.21907  0.92956  1.0000
  H   H562      1.0  0.38753  0.18271  0.97145  1.0000
  C   C324      1.0  0.48911  0.34677  0.93635  1.0000
  C   C325      1.0  0.28842  0.44023  0.85583  1.0000
  Fe  Fe47      1.0  0.37710  0.35033  0.98570  1.0000
  H   H563      1.0  0.34806  0.45308  0.79811  1.0000
  H   H564      1.0  0.44831  0.24144  0.95953  1.0000
  C   C326      1.0  0.44568  0.28829  0.94178  1.0000
  H   H565      1.0  0.30355  0.46476  0.96711  1.0000
  C   C327      1.0  0.49487  0.26910  0.97737  1.0000
  H   H566      1.0  0.43638  0.27473  0.98196  1.0000
  Fe  Fe48      1.0  0.28718  0.50098  0.88763  1.0000
  H   H567      1.0  0.29495  0.16444  0.97503  1.0000
  C   C328      1.0  0.28980  0.45338  0.97301  1.0000
  C   C329      1.0  0.33592  0.43195  0.98014  1.0000
  C   C330      1.0  0.45346  0.26598  0.98354  1.0000
  H   H568      1.0  0.43786  0.23316  0.98523  1.0000
  N   N24       1.0  0.31484  0.41836  0.98482  1.0000
  H   H569      1.0  0.49029  0.14316  0.90411  1.0000
  H   H570      1.0  0.46788  0.23124  0.97906  1.0000
  H   H571      1.0  0.33296  0.44977  0.98474  1.0000
  H   H572      1.0  0.36351  0.40602  0.98562  1.0000
  H   H573      1.0  0.50360  0.43917  0.92022  1.0000
  H   H574      1.0  0.32389  0.15486  0.97167  1.0000
  S   S98       1.0  0.28559  0.96744  0.08374  1.0000
  C   C331      1.0  0.30500  0.63959  0.98841  1.0000
  S   S99       1.0  0.33211  0.61674  0.03613  1.0000
  H   H575      1.0  0.39964  0.55060  0.05599  1.0000
  Fe  Fe49      1.0  0.39663  0.61609  0.01961  1.0000
  S   S100      1.0  0.38262  0.63163  0.04895  1.0000
  C   C332      1.0  0.46291  0.68772  0.02771  1.0000
  Fe  Fe50      1.0  0.36120  0.60018  0.05332  1.0000
  S   S101      1.0  0.35644  0.57639  0.08249  1.0000
  Fe  Fe51      1.0  0.35468  0.64664  0.02894  1.0000
  S   S102      1.0  0.34221  0.68338  0.02098  1.0000
  S   S103      1.0  0.37781  0.58387  0.02547  1.0000
  H   H576      1.0  0.26074  0.50629  0.16892  1.0000
  Fe  Fe52      1.0  0.40958  0.83804  0.01533  1.0000
  S   S104      1.0  0.39330  0.83664  0.04770  1.0000
  S   S105      1.0  0.44677  0.83349  0.00427  1.0000
  H   H577      1.0  0.24788  0.52795  0.10352  1.0000
  S   S106      1.0  0.34329  0.84246  0.02654  1.0000
  H   H578      1.0  0.17244  0.52026  0.15821  1.0000
  Fe  Fe53      1.0  0.36987  0.86570  0.03634  1.0000
  S   S107      1.0  0.36635  0.89818  0.05453  1.0000
  Fe  Fe54      1.0  0.36817  0.81342  0.03532  1.0000
  S   S108      1.0  0.36033  0.78077  0.05496  1.0000
  S   S109      1.0  0.38822  0.86850  0.00474  1.0000
  S   S110      1.0  0.38605  0.81305  0.00377  1.0000
  C   C333      1.0  0.34888  0.70996  0.03061  1.0000
  C   C334      1.0  0.35361  0.71233  0.05146  1.0000
  C   C335      1.0  0.35735  0.73403  0.05859  1.0000
  C   C336      1.0  0.35679  0.75360  0.04495  1.0000
  C   C337      1.0  0.35260  0.75112  0.02399  1.0000
  C   C338      1.0  0.34837  0.72951  0.01697  1.0000
  H   H579      1.0  0.35367  0.69757  0.06226  1.0000
  H   H580      1.0  0.36041  0.73572  0.07486  1.0000
  H   H581      1.0  0.35196  0.76598  0.01331  1.0000
  H   H582      1.0  0.34455  0.72800  0.00085  1.0000
  C   C339      1.0  0.48549  0.85731  0.04830  1.0000
  C   C340      1.0  0.46656  0.85102  0.03772  1.0000
  C   C341      1.0  0.46963  0.84335  0.01756  1.0000
  H   H583      1.0  0.32303  0.50805  0.11751  1.0000
  C   C342      1.0  0.41268  0.73666  0.99448  1.0000
  H   H584      1.0  0.48308  0.86288  0.06403  1.0000
  H   H585      1.0  0.44969  0.85174  0.04528  1.0000
  S   S111      1.0  0.36964  0.63202  0.99942  1.0000
  H   H586      1.0  0.50323  0.76305  0.04515  1.0000
  C   C343      1.0  0.47479  0.62829  0.05129  1.0000
  C   C344      1.0  0.45515  0.62426  0.04066  1.0000
  C   C345      1.0  0.45684  0.62134  0.01920  1.0000
  C   C346      1.0  0.47831  0.62213  0.00855  1.0000
  C   C347      1.0  0.41533  0.70725  0.03641  1.0000
  H   H587      1.0  0.47336  0.63080  0.06785  1.0000
  H   H588      1.0  0.43871  0.62368  0.04903  1.0000
  H   H589      1.0  0.19931  0.52795  0.16736  1.0000
  H   H590      1.0  0.32196  0.90573  0.99650  1.0000
  C   C348      1.0  0.34361  0.91757  0.06179  1.0000
  C   C349      1.0  0.34843  0.93610  0.07350  1.0000
  C   C350      1.0  0.33096  0.95147  0.08043  1.0000
  C   C351      1.0  0.30836  0.94848  0.07574  1.0000
  C   C352      1.0  0.30355  0.93001  0.06393  1.0000
  C   C353      1.0  0.32104  0.91467  0.05695  1.0000
  H   H591      1.0  0.36582  0.93849  0.07741  1.0000
  H   H592      1.0  0.33496  0.96557  0.08947  1.0000
  H   H593      1.0  0.28612  0.92755  0.06019  1.0000
  H   H594      1.0  0.31698  0.90051  0.04801  1.0000
  C   C354      1.0  0.33641  0.55439  0.08506  1.0000
  C   C355      1.0  0.32017  0.55216  0.07023  1.0000
  C   C356      1.0  0.30485  0.53429  0.07259  1.0000
  H   H595      1.0  0.41510  0.54118  0.07803  1.0000
  C   C357      1.0  0.33716  0.53841  0.10218  1.0000
  H   H596      1.0  0.31935  0.56427  0.05696  1.0000
  H   H597      1.0  0.34959  0.53998  0.11379  1.0000
  H   H598      1.0  0.36832  0.82365  0.14512  1.0000
  C   C358      1.0  0.49165  0.84244  0.00793  1.0000
  S   S112      1.0  0.43247  0.61792  0.00489  1.0000
  H   H599      1.0  0.36226  0.53986  0.04901  1.0000
  C   C359      1.0  0.36887  0.52587  0.03915  1.0000
  H   H600      1.0  0.49098  0.80304  0.03921  1.0000
  H   H601      1.0  0.27363  0.63460  0.00854  1.0000
  H   H602      1.0  0.34620  0.90640  0.01256  1.0000
  C   C360      1.0  0.43121  0.71908  0.00181  1.0000
  H   H603      1.0  0.39697  0.67383  0.01599  1.0000
  H   H604      1.0  0.29399  0.61144  0.00942  1.0000
  H   H605      1.0  0.43533  0.66516  0.02479  1.0000
  H   H606      1.0  0.42260  0.67610  0.05648  1.0000
  N   N25       1.0  0.42277  0.69901  0.01523  1.0000
  Fe  Fe55      1.0  0.34947  0.60127  0.00806  1.0000
  H   H607      1.0  0.26809  0.69383  0.00784  1.0000
  H   H608      1.0  0.39318  0.68009  0.04941  1.0000
  H   H609      1.0  0.18680  0.51326  0.12537  1.0000
  C   C361      1.0  0.44168  0.68103  0.01674  1.0000
  H   H610      1.0  0.45905  0.69078  0.04440  1.0000
  C   C362      1.0  0.28612  0.62470  0.99883  1.0000
  C   C363      1.0  0.40280  0.68874  0.00605  1.0000
  H   H611      1.0  0.23649  0.51913  0.08040  1.0000
  H   H612      1.0  0.37778  0.52449  0.08111  1.0000
  H   H613      1.0  0.30736  0.95614  0.02446  1.0000
  H   H614      1.0  0.36151  0.85308  0.14557  1.0000
  C   C364      1.0  0.39073  0.51676  0.07007  1.0000
  H   H615      1.0  0.47100  0.70270  0.01972  1.0000
  C   C365      1.0  0.28347  0.68390  0.00227  1.0000
  H   H616      1.0  0.40414  0.69707  0.06817  1.0000
  C   C366      1.0  0.40791  0.53535  0.06370  1.0000
  C   C367      1.0  0.32212  0.52025  0.10432  1.0000
  H   H617      1.0  0.44337  0.72867  0.01030  1.0000
  H   H618      1.0  0.29228  0.53290  0.06107  1.0000
  H   H619      1.0  0.40031  0.71928  0.03524  1.0000
  H   H620      1.0  0.42879  0.71724  0.04274  1.0000
  H   H621      1.0  0.34446  0.53569  0.01573  1.0000
  H   H622      1.0  0.29738  0.69605  0.99971  1.0000
  C   C368      1.0  0.20104  0.51518  0.13582  1.0000
  H   H623      1.0  0.20634  0.53287  0.13183  1.0000
  C   C369      1.0  0.49627  0.62911  0.04063  1.0000
  H   H624      1.0  0.29511  0.97745  0.00737  1.0000
  H   H625      1.0  0.38759  0.70056  0.00606  1.0000
  C   C370      1.0  0.30582  0.51812  0.08952  1.0000
  H   H626      1.0  0.33619  0.98391  0.01645  1.0000
  C   C371      1.0  0.30152  0.97428  0.02319  1.0000
  H   H627      1.0  0.35241  0.50617  0.01603  1.0000
  C   C372      1.0  0.40858  0.68879  0.05332  1.0000
  C   C373      1.0  0.23229  0.52166  0.09719  1.0000
  H   H628      1.0  0.47973  0.61990  0.99195  1.0000
  H   H629      1.0  0.35829  0.00063  0.04959  1.0000
  H   H630      1.0  0.32670  0.98328  0.04323  1.0000
  N   N26       1.0  0.34051  0.85827  0.10836  1.0000
  C   C374      1.0  0.33616  0.85447  0.08594  1.0000
  C   C375      1.0  0.35816  0.87610  0.10869  1.0000
  C   C376      1.0  0.31911  0.86657  0.12001  1.0000
  C   C377      1.0  0.34858  0.83602  0.11869  1.0000
  C   C378      1.0  0.31721  0.83796  0.08239  1.0000
  C   C379      1.0  0.38284  0.86843  0.10236  1.0000
  C   C380      1.0  0.30687  0.88785  0.10999  1.0000
  C   C381      1.0  0.35465  0.83674  0.14174  1.0000
  H   H631      1.0  0.33195  0.87078  0.07723  1.0000
  H   H632      1.0  0.35184  0.84763  0.07767  1.0000
  H   H633      1.0  0.35840  0.88340  0.12424  1.0000
  H   H634      1.0  0.35377  0.89098  0.09809  1.0000
  H   H635      1.0  0.30656  0.85294  0.12238  1.0000
  H   H636      1.0  0.32293  0.87087  0.13607  1.0000
  H   H637      1.0  0.33517  0.82325  0.11870  1.0000
  H   H638      1.0  0.36317  0.82802  0.10961  1.0000
  H   H639      1.0  0.30063  0.84288  0.09017  1.0000
  H   H640      1.0  0.31436  0.83820  0.06545  1.0000
  H   H641      1.0  0.32226  0.82014  0.08713  1.0000
  H   H642      1.0  0.38420  0.86136  0.08675  1.0000
  H   H643      1.0  0.39371  0.88347  0.10144  1.0000
  H   H644      1.0  0.39010  0.85594  0.11400  1.0000
  H   H645      1.0  0.31805  0.90260  0.10801  1.0000
  H   H646      1.0  0.29207  0.89301  0.12038  1.0000
  H   H647      1.0  0.30002  0.88452  0.09477  1.0000
  H   H648      1.0  0.33950  0.83333  0.15235  1.0000
  H   H649      1.0  0.31408  0.64701  0.00100  1.0000
  Fe  Fe56      1.0  0.28437  0.99891  0.10344  1.0000
  H   H650      1.0  0.21836  0.53490  0.09794  1.0000
  H   H651      1.0  0.48432  0.79453  0.06570  1.0000
  C   C382      1.0  0.32168  0.98899  0.02727  1.0000
  H   H652      1.0  0.42246  0.52902  0.05370  1.0000
  H   H653      1.0  0.38204  0.53356  0.02815  1.0000
  H   H654      1.0  0.47582  0.67342  0.02721  1.0000
  H   H655      1.0  0.28753  0.97609  0.03531  1.0000
  C   C383      1.0  0.34866  0.52053  0.02611  1.0000
  C   C384      1.0  0.49872  0.79766  0.05415  1.0000
  H   H656      1.0  0.23078  0.50486  0.17426  1.0000
  H   H657      1.0  0.28773  0.67129  0.01507  1.0000
  C   C385      1.0  0.49800  0.62588  0.01923  1.0000
  H   H658      1.0  0.33299  0.93213  0.00340  1.0000
  H   H659      1.0  0.37131  0.94873  0.99966  1.0000
  S   S113      1.0  0.27680  0.00052  0.13810  1.0000
  H   H660      1.0  0.24382  0.52416  0.13886  1.0000
  H   H661      1.0  0.40225  0.74359  0.00770  1.0000
  C   C386      1.0  0.33775  0.91472  0.99891  1.0000
  Fe  Fe57      1.0  0.36334  0.84353  0.99567  1.0000
  H   H662      1.0  0.40971  0.50509  0.03210  1.0000
  H   H663      1.0  0.33311  0.51730  0.03623  1.0000
  N   N27       1.0  0.37928  0.50658  0.05247  1.0000
  C   C387      1.0  0.19089  0.51535  0.15845  1.0000
  H   H664      1.0  0.44778  0.67583  0.00095  1.0000
  S   S114      1.0  0.32812  0.57844  0.99054  1.0000
  H   H665      1.0  0.49411  0.83657  0.99230  1.0000
  C   C388      1.0  0.24210  0.50541  0.14071  1.0000
  H   H666      1.0  0.37320  0.97699  0.98835  1.0000
  S   S115      1.0  0.17791  0.96195  0.39152  1.0000
  Fe  Fe58      1.0  0.07189  0.59592  0.46290  1.0000
  S   S116      1.0  0.08182  0.61719  0.43411  1.0000
  C   C389      1.0  0.15674  0.76951  0.45384  1.0000
  H   H667      1.0  0.02907  0.60233  0.43282  1.0000
  S   S117      1.0  0.13534  0.60734  0.44611  1.0000
  H   H668      1.0  0.01347  0.64011  0.48299  1.0000
  Fe  Fe59      1.0  0.10668  0.63298  0.45413  1.0000
  S   S118      1.0  0.10654  0.67013  0.46369  1.0000
  Fe  Fe60      1.0  0.10944  0.58960  0.42880  1.0000
  S   S119      1.0  0.11525  0.57097  0.39869  1.0000
  Fe  Fe61      1.0  0.12193  0.58584  0.47369  1.0000
  S   S120      1.0  0.09718  0.56735  0.45618  1.0000
  Fe  Fe62      1.0  0.09879  0.80574  0.44622  1.0000
  H   H669      1.0  0.13781  0.76902  0.45484  1.0000
  S   S121      1.0  0.10089  0.77361  0.42763  1.0000
  Fe  Fe63      1.0  0.10211  0.85848  0.44306  1.0000
  H   H670      1.0  0.20127  0.98691  0.42629  1.0000
  S   S122      1.0  0.10086  0.89304  0.42473  1.0000
  H   H671      1.0  0.11423  0.51593  0.42423  1.0000
  H   H672      1.0  0.17156  0.72857  0.43643  1.0000
  S   S123      1.0  0.09272  0.86056  0.47723  1.0000
  C   C390      1.0  0.04813  0.92824  0.41621  1.0000
  S   S124      1.0  0.12802  0.82937  0.44796  1.0000
  S   S125      1.0  0.07387  0.83476  0.43821  1.0000
  C   C391      1.0  0.01128  0.59743  0.46276  1.0000
  H   H673      1.0  0.02371  0.82085  0.45049  1.0000
  C   C392      1.0  0.02572  0.85766  0.40530  1.0000
  H   H674      1.0  0.16859  0.51893  0.47423  1.0000
  H   H675      1.0  0.03114  0.84741  0.41921  1.0000
  H   H676      1.0  0.14609  0.51488  0.44110  1.0000
  H   H677      1.0  0.14034  0.97401  0.48279  1.0000
  C   C393      1.0  0.10359  0.69856  0.45295  1.0000
  C   C394      1.0  0.10038  0.71628  0.46672  1.0000
  C   C395      1.0  0.09870  0.73924  0.45921  1.0000
  C   C396      1.0  0.10064  0.74484  0.43777  1.0000
  C   C397      1.0  0.10352  0.72711  0.42397  1.0000
  C   C398      1.0  0.10494  0.70410  0.43148  1.0000
  H   H678      1.0  0.04738  0.94698  0.41310  1.0000
  H   H679      1.0  0.09635  0.75261  0.47004  1.0000
  H   H680      1.0  0.10506  0.73121  0.40735  1.0000
  H   H681      1.0  0.10754  0.69072  0.42067  1.0000
  C   C399      1.0  0.15619  0.94341  0.40144  1.0000
  C   C400      1.0  0.16249  0.92147  0.40954  1.0000
  C   C401      1.0  0.14590  0.90604  0.41723  1.0000
  C   C402      1.0  0.12269  0.91225  0.41663  1.0000
  C   C403      1.0  0.11640  0.93431  0.40879  1.0000
  C   C404      1.0  0.13301  0.94986  0.40140  1.0000
  H   H682      1.0  0.18036  0.91627  0.40964  1.0000
  H   H683      1.0  0.15107  0.88915  0.42311  1.0000
  H   H684      1.0  0.09856  0.93936  0.40817  1.0000
  H   H685      1.0  0.12786  0.96663  0.39521  1.0000
  H   H686      1.0  0.16037  0.76084  0.42064  1.0000
  C   C405      1.0  0.15579  0.54701  0.40740  1.0000
  C   C406      1.0  0.13670  0.54906  0.39522  1.0000
  C   C407      1.0  0.13475  0.53352  0.37962  1.0000
  H   H687      1.0  0.19516  0.76815  0.47213  1.0000
  H   H688      1.0  0.15762  0.55888  0.41937  1.0000
  H   H689      1.0  0.12011  0.53499  0.37005  1.0000
  H   H690      1.0  0.18247  0.50615  0.45188  1.0000
  S   S126      1.0  0.03595  0.59203  0.47711  1.0000
  H   H691      1.0  0.16084  0.78484  0.46204  1.0000
  C   C408      1.0  0.20895  0.74521  0.44911  1.0000
  H   H692      1.0  0.05900  0.92470  0.42969  1.0000
  C   C409      1.0  0.02370  0.92004  0.42088  1.0000
  H   H693      1.0  0.05912  0.65362  0.46089  1.0000
  C   C410      1.0  0.16867  0.70445  0.46249  1.0000
  H   H694      1.0  0.15346  0.78972  0.42491  1.0000
  C   C411      1.0  0.16388  0.77475  0.43075  1.0000
  C   C412      1.0  0.16255  0.72793  0.45198  1.0000
  H   H695      1.0  0.04968  0.71023  0.44767  1.0000
  H   H696      1.0  0.05651  0.92090  0.40212  1.0000
  C   C413      1.0  0.19199  0.75065  0.46757  1.0000
  H   H697      1.0  0.16322  0.95452  0.48648  1.0000
  H   H698      1.0  0.20212  0.74776  0.43346  1.0000
  H   H699      1.0  0.19737  0.73904  0.48087  1.0000
  C   C414      1.0  0.03544  0.88602  0.44336  1.0000
  C   C415      1.0  0.04234  0.65822  0.45427  1.0000
  N   N28       1.0  0.16924  0.97871  0.46035  1.0000
  N   N29       1.0  0.16697  0.74817  0.46433  1.0000
  H   H700      1.0  0.18186  0.77970  0.42878  1.0000
  C   C416      1.0  0.15352  0.96398  0.47405  1.0000
  H   H701      1.0  0.13669  0.74013  0.48372  1.0000
  H   H702      1.0  0.02431  0.89181  0.39172  1.0000
  H   H703      1.0  0.03161  0.91565  0.46308  1.0000
  H   H704      1.0  0.04985  0.88394  0.40447  1.0000
  N   N30       1.0  0.02745  0.67153  0.46944  1.0000
  C   C417      1.0  0.20733  0.97428  0.43833  1.0000
  H   H705      1.0  0.21762  0.96107  0.42996  1.0000
  S   S127      1.0  0.08908  0.80501  0.48043  1.0000
  H   H706      1.0  0.15256  0.93226  0.45742  1.0000
  C   C418      1.0  0.17095  0.51445  0.38814  1.0000
  C   C419      1.0  0.17290  0.53001  0.40369  1.0000
  H   H707      1.0  0.03509  0.68257  0.42706  1.0000
  H   H708      1.0  0.01345  0.92591  0.40734  1.0000
  C   C420      1.0  0.04146  0.71293  0.46324  1.0000
  H   H709      1.0  0.05393  0.88791  0.43943  1.0000
  C   C421      1.0  0.03091  0.88308  0.40616  1.0000
  Fe  Fe64      1.0  0.11648  0.83025  0.48188  1.0000
  H   H710      1.0  0.22364  0.75645  0.44925  1.0000
  H   H711      1.0  0.02452  0.72172  0.46181  1.0000
  H   H712      1.0  0.18601  0.70363  0.46853  1.0000
  C   C422      1.0  0.04021  0.69083  0.47725  1.0000
  H   H713      1.0  0.03346  0.86752  0.44656  1.0000
  H   H714      1.0  0.18779  0.52891  0.41295  1.0000
  H   H715      1.0  0.12048  0.99581  0.43928  1.0000
  H   H716      1.0  0.16806  0.69126  0.45087  1.0000
  C   C423      1.0  0.04787  0.66968  0.43249  1.0000
  Fe  Fe65      1.0  0.06614  0.83537  0.47264  1.0000
  H   H717      1.0  0.17995  0.95168  0.43996  1.0000
  H   H718      1.0  0.06476  0.67748  0.43204  1.0000
  H   H719      1.0  0.05209  0.72495  0.47071  1.0000
  C   C424      1.0  0.15160  0.51611  0.37628  1.0000
  H   H720      1.0  0.12786  0.93841  0.47362  1.0000
  H   H721      1.0  0.01654  0.92987  0.43406  1.0000
  H   H722      1.0  0.04276  0.89014  0.47551  1.0000
  C   C425      1.0  0.01262  0.60237  0.44121  1.0000
  C   C426      1.0  0.18741  0.96291  0.45091  1.0000
  H   H723      1.0  0.03527  0.64137  0.45201  1.0000
  H   H724      1.0  0.14985  0.50432  0.36424  1.0000
  C   C427      1.0  0.16884  0.50399  0.46441  1.0000
  H   H725      1.0  0.14427  0.72792  0.44846  1.0000
  H   H726      1.0  0.13184  0.95407  0.44915  1.0000
  C   C428      1.0  0.14086  0.94631  0.46266  1.0000
  H   H727      1.0  0.01314  0.89228  0.47107  1.0000
  N   N31       1.0  0.02155  0.89478  0.42531  1.0000
  H   H728      1.0  0.15595  0.69978  0.47525  1.0000
  H   H729      1.0  0.15491  0.98045  0.42994  1.0000
  Fe  Fe66      1.0  0.17528  0.00005  0.38191  1.0000
  H   H730      1.0  0.21629  0.72760  0.45121  1.0000
  H   H731      1.0  0.04866  0.65659  0.42068  1.0000
  H   H732      1.0  0.19508  0.95132  0.46320  1.0000
  H   H733      1.0  0.19172  0.98476  0.48487  1.0000
  C   C429      1.0  0.03011  0.89696  0.46428  1.0000
  C   C430      1.0  0.15738  0.99173  0.44287  1.0000
  H   H734      1.0  0.21895  0.98223  0.44857  1.0000
  H   H735      1.0  0.05815  0.68524  0.48029  1.0000
  H   H736      1.0  0.13234  0.51115  0.46555  1.0000
  C   C431      1.0  0.18093  0.99464  0.47351  1.0000
  S   S128      1.0  0.09565  0.61221  0.48318  1.0000
  H   H737      1.0  0.03532  0.85062  0.39161  1.0000
  H   H738      1.0  0.00808  0.69352  0.44767  1.0000
  C   C432      1.0  0.00752  0.82733  0.45695  1.0000
  H   H739      1.0  0.09928  0.71222  0.48336  1.0000
  C   C433      1.0  0.13375  0.00327  0.44817  1.0000
  C   C434      1.0  0.00658  0.83800  0.47587  1.0000
  H   H740      1.0  0.00741  0.85506  0.40326  1.0000
  H   H741      1.0  0.12805  0.00261  0.46479  1.0000
  C   C435      1.0  0.02123  0.65566  0.48800  1.0000
  C   C436      1.0  0.00538  0.68037  0.46043  1.0000
  C   C437      1.0  0.15464  0.74474  0.48545  1.0000
  C   C438      1.0  0.05668  0.93114  0.71971  1.0000
  S   S129      1.0  0.36420  0.58374  0.71212  1.0000
  S   S130      1.0  0.13888  0.82504  0.50938  1.0000
  Fe  Fe67      1.0  0.36843  0.64861  0.69701  1.0000
  S   S131      1.0  0.38337  0.62133  0.67682  1.0000
  S   S132      1.0  0.37538  0.68415  0.68328  1.0000
  Fe  Fe68      1.0  0.35021  0.60356  0.68409  1.0000
  S   S133      1.0  0.32922  0.59416  0.65689  1.0000
  Fe  Fe69      1.0  0.39598  0.60446  0.70652  1.0000
  S   S134      1.0  0.43208  0.59223  0.71509  1.0000
  S   S135      1.0  0.33475  0.63218  0.70242  1.0000
  S   S136      1.0  0.14586  0.56339  0.49311  1.0000
  Fe  Fe70      1.0  0.39041  0.84280  0.69456  1.0000
  C   C439      1.0  0.50097  0.60028  0.71074  1.0000
  S   S137      1.0  0.42711  0.84258  0.68032  1.0000
  Fe  Fe71      1.0  0.34056  0.84638  0.67975  1.0000
  S   S138      1.0  0.32588  0.83700  0.71181  1.0000
  S   S139      1.0  0.31825  0.85100  0.65146  1.0000
  H   H742      1.0  0.24722  0.88873  0.69738  1.0000
  H   H743      1.0  0.47890  0.64776  0.71583  1.0000
  Fe  Fe72      1.0  0.35475  0.81068  0.71394  1.0000
  C   C440      1.0  0.08753  0.90254  0.52610  1.0000
  S   S140      1.0  0.36436  0.87170  0.69037  1.0000
  S   S141      1.0  0.36765  0.81807  0.68100  1.0000
  Fe  Fe73      1.0  0.17602  0.55402  0.60589  1.0000
  N   N32       1.0  0.08078  0.92156  0.72133  1.0000
  S   S142      1.0  0.16380  0.58449  0.58618  1.0000
  Fe  Fe74      1.0  0.16314  0.52819  0.64640  1.0000
  H   H744      1.0  0.21670  0.99233  0.59516  1.0000
  S   S143      1.0  0.14114  0.52640  0.67630  1.0000
  Fe  Fe75      1.0  0.21320  0.53077  0.63232  1.0000
  S   S144      1.0  0.24567  0.52904  0.65074  1.0000
  H   H745      1.0  0.12028  0.55546  0.57805  1.0000
  S   S145      1.0  0.18582  0.55735  0.63887  1.0000
  S   S146      1.0  0.15080  0.52703  0.61402  1.0000
  Fe  Fe76      1.0  0.15663  0.91950  0.61767  1.0000
  S   S147      1.0  0.17681  0.94754  0.62879  1.0000
  S   S148      1.0  0.12939  0.90104  0.63728  1.0000
  Fe  Fe77      1.0  0.18189  0.91992  0.57551  1.0000
  S   S149      1.0  0.20487  0.94703  0.58418  1.0000
  S   S150      1.0  0.18359  0.91170  0.54148  1.0000
  Fe  Fe78      1.0  0.20721  0.92766  0.61524  1.0000
  S   S151      1.0  0.23756  0.92564  0.63644  1.0000
  Fe  Fe79      1.0  0.17266  0.96451  0.59681  1.0000
  H   H746      1.0  0.22126  0.86041  0.71568  1.0000
  S   S152      1.0  0.18697  0.89886  0.60546  1.0000
  S   S153      1.0  0.14973  0.93810  0.58689  1.0000
  H   H747      1.0  0.37385  0.91299  0.61309  1.0000
  H   H748      1.0  0.17936  0.54587  0.52099  1.0000
  H   H749      1.0  0.15707  0.83348  0.54863  1.0000
  H   H750      1.0  0.10516  0.52047  0.50736  1.0000
  C   C441      1.0  0.15154  0.84910  0.51808  1.0000
  C   C442      1.0  0.15384  0.86882  0.50512  1.0000
  C   C443      1.0  0.16394  0.88781  0.51244  1.0000
  C   C444      1.0  0.17089  0.88755  0.53302  1.0000
  C   C445      1.0  0.16806  0.86804  0.54615  1.0000
  C   C446      1.0  0.15884  0.84869  0.53854  1.0000
  H   H751      1.0  0.05332  0.88898  0.70686  1.0000
  H   H752      1.0  0.16621  0.90283  0.50219  1.0000
  H   H753      1.0  0.17355  0.86767  0.56197  1.0000
  S   S154      1.0  0.12806  0.61644  0.72558  1.0000
  C   C447      1.0  0.15984  0.57959  0.55987  1.0000
  C   C448      1.0  0.14328  0.59257  0.54899  1.0000
  C   C449      1.0  0.13915  0.58816  0.52828  1.0000
  C   C450      1.0  0.15193  0.57108  0.51824  1.0000
  C   C451      1.0  0.16910  0.55875  0.52886  1.0000
  C   C452      1.0  0.17278  0.56269  0.54973  1.0000
  H   H754      1.0  0.13331  0.60574  0.55674  1.0000
  H   H755      1.0  0.12594  0.59781  0.52018  1.0000
  H   H756      1.0  0.18578  0.55281  0.55790  1.0000
  C   C453      1.0  0.45321  0.84922  0.69114  1.0000
  C   C454      1.0  0.45394  0.85852  0.71062  1.0000
  C   C455      1.0  0.47503  0.86398  0.71826  1.0000
  C   C456      1.0  0.40357  0.88558  0.63656  1.0000
  C   C457      1.0  0.47388  0.84523  0.67958  1.0000
  H   H757      1.0  0.09592  0.54787  0.56505  1.0000
  H   H758      1.0  0.08297  0.59112  0.72553  1.0000
  H   H759      1.0  0.47357  0.83819  0.66444  1.0000
  C   C458      1.0  0.29586  0.87188  0.64756  1.0000
  C   C459      1.0  0.28123  0.86992  0.63116  1.0000
  C   C460      1.0  0.26321  0.88607  0.62755  1.0000
  C   C461      1.0  0.25985  0.90462  0.64015  1.0000
  C   C462      1.0  0.27458  0.90666  0.65646  1.0000
  C   C463      1.0  0.29237  0.89034  0.66026  1.0000
  H   H760      1.0  0.28378  0.85575  0.62121  1.0000
  H   H761      1.0  0.25209  0.88427  0.61492  1.0000
  H   H762      1.0  0.27216  0.92092  0.66633  1.0000
  H   H763      1.0  0.30346  0.89212  0.67293  1.0000
  C   C464      1.0  0.36787  0.70920  0.69628  1.0000
  C   C465      1.0  0.37272  0.73032  0.68618  1.0000
  C   C466      1.0  0.36689  0.75070  0.69590  1.0000
  C   C467      1.0  0.35611  0.75012  0.71583  1.0000
  N   N33       1.0  0.21337  0.55953  0.70902  1.0000
  C   C468      1.0  0.35721  0.70854  0.71624  1.0000
  H   H764      1.0  0.38096  0.73097  0.67072  1.0000
  H   H765      1.0  0.37067  0.76686  0.68795  1.0000
  H   H766      1.0  0.19540  0.52574  0.68186  1.0000
  H   H767      1.0  0.21980  0.97252  0.62813  1.0000
  C   C469      1.0  0.45994  0.59949  0.70516  1.0000
  S   S155      1.0  0.15258  0.87592  0.73110  1.0000
  H   H768      1.0  0.21982  0.82345  0.70407  1.0000
  C   C470      1.0  0.46415  0.60870  0.68484  1.0000
  H   H769      1.0  0.02613  0.60185  0.70712  1.0000
  H   H770      1.0  0.45013  0.61174  0.67467  1.0000
  C   C471      1.0  0.30462  0.57744  0.65672  1.0000
  C   C472      1.0  0.29035  0.58043  0.63976  1.0000
  C   C473      1.0  0.27161  0.56651  0.63814  1.0000
  C   C474      1.0  0.26725  0.54896  0.65321  1.0000
  C   C475      1.0  0.28131  0.54615  0.67032  1.0000
  C   C476      1.0  0.29967  0.56049  0.67224  1.0000
  H   H771      1.0  0.29407  0.59336  0.62758  1.0000
  H   H772      1.0  0.26110  0.56882  0.62480  1.0000
  H   H773      1.0  0.27828  0.53254  0.68201  1.0000
  H   H774      1.0  0.31056  0.55780  0.68528  1.0000
  C   C477      1.0  0.14613  0.88207  0.70494  1.0000
  C   C478      1.0  0.15804  0.89904  0.69337  1.0000
  C   C479      1.0  0.15335  0.90453  0.67248  1.0000
  C   C480      1.0  0.13645  0.89334  0.66308  1.0000
  C   C481      1.0  0.12450  0.87634  0.67465  1.0000
  C   C482      1.0  0.12950  0.87053  0.69549  1.0000
  H   H775      1.0  0.17086  0.90811  0.70062  1.0000
  H   H776      1.0  0.16257  0.91771  0.66377  1.0000
  H   H777      1.0  0.11146  0.86756  0.66742  1.0000
  H   H778      1.0  0.12050  0.85716  0.70424  1.0000
  C   C483      1.0  0.13225  0.59108  0.71251  1.0000
  C   C484      1.0  0.12751  0.56991  0.72238  1.0000
  C   C485      1.0  0.13030  0.55011  0.71115  1.0000
  C   C486      1.0  0.13801  0.55137  0.69010  1.0000
  C   C487      1.0  0.14277  0.57255  0.68031  1.0000
  C   C488      1.0  0.14003  0.59229  0.69152  1.0000
  H   H779      1.0  0.03250  0.62281  0.67140  1.0000
  H   H780      1.0  0.12655  0.53377  0.71881  1.0000
  H   H781      1.0  0.14806  0.57383  0.66397  1.0000
  H   H782      1.0  0.18771  0.60156  0.69607  1.0000
  H   H783      1.0  0.06890  0.56723  0.67997  1.0000
  C   C489      1.0  0.43296  0.66786  0.66391  1.0000
  C   C490      1.0  0.43518  0.70275  0.69620  1.0000
  H   H784      1.0  0.46904  0.69123  0.72305  1.0000
  H   H785      1.0  0.46390  0.65609  0.67723  1.0000
  H   H786      1.0  0.03449  0.89794  0.54310  1.0000
  C   C491      1.0  0.05396  0.63731  0.71124  1.0000
  S   S156      1.0  0.34825  0.77534  0.72857  1.0000
  H   H787      1.0  0.21020  0.98758  0.66230  1.0000
  H   H788      1.0  0.26882  0.99724  0.59571  1.0000
  S   S157      1.0  0.37873  0.83393  0.72786  1.0000
  H   H789      1.0  0.09071  0.89724  0.50979  1.0000
  H   H790      1.0  0.06770  0.62874  0.68133  1.0000
  H   H791      1.0  0.06533  0.90616  0.56185  1.0000
  H   H792      1.0  0.03434  0.63500  0.51415  1.0000
  H   H793      1.0  0.05414  0.85792  0.54216  1.0000
  C   C492      1.0  0.19307  0.58548  0.73656  1.0000
  H   H794      1.0  0.13400  0.53575  0.54828  1.0000
  H   H795      1.0  0.46264  0.79334  0.71769  1.0000
  H   H796      1.0  0.11022  0.54258  0.52469  1.0000
  C   C493      1.0  0.21771  0.53433  0.70659  1.0000
  Fe  Fe80      1.0  0.35089  0.86092  0.72274  1.0000
  H   H797      1.0  0.12397  0.90426  0.53306  1.0000
  H   H798      1.0  0.09960  0.94511  0.70047  1.0000
  H   H799      1.0  0.06225  0.86634  0.72371  1.0000
  H   H800      1.0  0.28201  0.68590  0.60566  1.0000
  C   C494      1.0  0.49503  0.85016  0.68745  1.0000
  C   C495      1.0  0.22846  0.98461  0.65754  1.0000
  H   H801      1.0  0.31743  0.71638  0.68611  1.0000
  N   N34       1.0  0.21889  0.85337  0.68296  1.0000
  H   H802      1.0  0.36859  0.91018  0.65278  1.0000
  N   N35       1.0  0.38604  0.87869  0.62195  1.0000
  C   C496      1.0  0.36735  0.89711  0.62112  1.0000
  C   C497      1.0  0.37541  0.85685  0.62999  1.0000
  C   C498      1.0  0.39071  0.83498  0.62980  1.0000
  H   H803      1.0  0.35305  0.89202  0.61194  1.0000
  H   H804      1.0  0.39808  0.88123  0.65312  1.0000
  H   H805      1.0  0.36910  0.85813  0.64648  1.0000
  H   H806      1.0  0.35958  0.85377  0.62196  1.0000
  H   H807      1.0  0.37300  0.85341  0.58792  1.0000
  H   H808      1.0  0.36670  0.88313  0.58054  1.0000
  H   H809      1.0  0.42898  0.85689  0.63303  1.0000
  H   H810      1.0  0.40052  0.83283  0.64411  1.0000
  H   H811      1.0  0.40248  0.83392  0.61591  1.0000
  H   H812      1.0  0.37974  0.82014  0.62930  1.0000
  H   H813      1.0  0.26625  0.51386  0.57587  1.0000
  C   C499      1.0  0.11045  0.54079  0.57398  1.0000
  H   H814      1.0  0.10428  0.53243  0.58897  1.0000
  H   H815      1.0  0.27148  0.66579  0.62511  1.0000
  H   H816      1.0  0.21805  0.60514  0.68959  1.0000
  C   C500      1.0  0.09879  0.52890  0.52165  1.0000
  C   C501      1.0  0.09992  0.86439  0.53946  1.0000
  H   H817      1.0  0.11093  0.91674  0.70092  1.0000
  H   H818      1.0  0.00812  0.66387  0.49859  1.0000
  C   C502      1.0  0.07493  0.88945  0.56227  1.0000
  C   C503      1.0  0.20556  0.86371  0.66509  1.0000
  H   H819      1.0  0.09635  0.87564  0.58754  1.0000
  C   C504      1.0  0.10845  0.91537  0.53169  1.0000
  H   H820      1.0  0.27727  0.84805  0.68836  1.0000
  C   C505      1.0  0.42717  0.71387  0.71654  1.0000
  H   H821      1.0  0.35729  0.66984  0.64229  1.0000
  C   C506      1.0  0.50521  0.60927  0.69036  1.0000
  H   H822      1.0  0.04204  0.90089  0.51527  1.0000
  H   H823      1.0  0.19568  0.83252  0.65065  1.0000
  C   C507      1.0  0.48695  0.76852  0.73431  1.0000
  C   C508      1.0  0.06561  0.58732  0.72091  1.0000
  H   H824      1.0  0.44040  0.64538  0.70628  1.0000
  H   H825      1.0  0.22068  0.84569  0.63814  1.0000
  C   C509      1.0  0.34540  0.66077  0.63316  1.0000
  H   H826      1.0  0.11242  0.92841  0.51900  1.0000
  H   H827      1.0  0.09100  0.90534  0.58731  1.0000
  H   H828      1.0  0.02459  0.87860  0.52544  1.0000
  H   H829      1.0  0.14263  0.51696  0.51593  1.0000
  H   H830      1.0  0.46438  0.68469  0.66716  1.0000
  H   H831      1.0  0.29887  0.66071  0.61128  1.0000
  H   H832      1.0  0.09644  0.92651  0.66756  1.0000
  H   H833      1.0  0.07750  0.90638  0.67941  1.0000
  C   C510      1.0  0.12630  0.52484  0.56103  1.0000
  H   H834      1.0  0.25377  0.99042  0.57350  1.0000
  H   H835      1.0  0.22361  0.90151  0.68326  1.0000
  H   H836      1.0  0.19028  0.56311  0.68381  1.0000
  H   H837      1.0  0.23353  0.96754  0.66444  1.0000
  H   H838      1.0  0.18161  0.52445  0.70781  1.0000
  H   H839      1.0  0.41650  0.66472  0.70707  1.0000
  C   C511      1.0  0.38045  0.87010  0.58360  1.0000
  H   H840      1.0  0.14357  0.60864  0.68377  1.0000
  H   H841      1.0  0.48971  0.62019  0.66164  1.0000
  H   H842      1.0  0.25382  0.54124  0.73188  1.0000
  H   H843      1.0  0.08230  0.53801  0.51839  1.0000
  C   C512      1.0  0.39650  0.87722  0.60010  1.0000
  C   C513      1.0  0.42813  0.87562  0.63330  1.0000
  H   H844      1.0  0.06320  0.87709  0.57043  1.0000
  C   C514      1.0  0.08349  0.92372  0.68059  1.0000
  H   H845      1.0  0.48853  0.80062  0.68754  1.0000
  H   H846      1.0  0.19287  0.85804  0.63484  1.0000
  H   H847      1.0  0.41141  0.86509  0.59943  1.0000
  H   H848      1.0  0.39044  0.86828  0.56858  1.0000
  C   C515      1.0  0.35621  0.90380  0.64230  1.0000
  H   H849      1.0  0.40529  0.90438  0.63545  1.0000
  H   H850      1.0  0.43825  0.88004  0.64653  1.0000
  C   C516      1.0  0.08694  0.59478  0.66388  1.0000
  Fe  Fe81      1.0  0.35019  0.61336  0.72991  1.0000
  H   H851      1.0  0.08001  0.87393  0.70101  1.0000
  H   H852      1.0  0.42385  0.68384  0.65859  1.0000
  C   C517      1.0  0.20274  0.59591  0.68628  1.0000
  H   H853      1.0  0.43671  0.88315  0.61890  1.0000
  C   C518      1.0  0.48665  0.61339  0.67747  1.0000
  H   H854      1.0  0.25008  0.86665  0.66834  1.0000
  C   C519      1.0  0.43478  0.66275  0.71086  1.0000
  C   C520      1.0  0.48752  0.66316  0.70940  1.0000
  C   C521      1.0  0.19441  0.56275  0.72553  1.0000
  H   H855      1.0  0.40349  0.89390  0.59451  1.0000
  C   C522      1.0  0.45370  0.67236  0.67665  1.0000
  H   H856      1.0  0.06473  0.86513  0.51643  1.0000
  C   C523      1.0  0.23211  0.98447  0.63360  1.0000
  H   H857      1.0  0.43903  0.65925  0.64961  1.0000
  H   H858      1.0  0.23282  0.53120  0.69575  1.0000
  N   N36       1.0  0.44851  0.68037  0.69837  1.0000
  H   H859      1.0  0.18055  0.81188  0.70152  1.0000
  C   C524      1.0  0.22843  0.89157  0.69764  1.0000
  H   H860      1.0  0.17375  0.83554  0.68411  1.0000
  H   H861      1.0  0.34323  0.91775  0.63952  1.0000
  H   H862      1.0  0.34698  0.88959  0.65032  1.0000
  H   H863      1.0  0.35341  0.69236  0.72419  1.0000
  C   C525      1.0  0.30638  0.70761  0.67586  1.0000
  C   C526      1.0  0.20386  0.84882  0.64632  1.0000
  H   H864      1.0  0.09982  0.60716  0.66723  1.0000
  H   H865      1.0  0.04885  0.66093  0.50926  1.0000
  C   C527      1.0  0.07743  0.58269  0.68426  1.0000
  H   H866      1.0  0.12753  0.93409  0.72716  1.0000
  C   C528      1.0  0.28722  0.67366  0.61849  1.0000
  H   H867      1.0  0.07366  0.60354  0.65450  1.0000
  C   C529      1.0  0.02960  0.60436  0.67352  1.0000
  H   H868      1.0  0.04495  0.55664  0.72344  1.0000
  H   H869      1.0  0.10438  0.86050  0.52296  1.0000
  H   H870      1.0  0.07345  0.91571  0.52559  1.0000
  S   S158      1.0  0.20544  0.52987  0.59829  1.0000
  C   C530      1.0  0.47852  0.59526  0.71799  1.0000
  H   H871      1.0  0.42085  0.65642  0.67257  1.0000
  C   C531      1.0  0.47111  0.68426  0.70743  1.0000
  H   H872      1.0  0.19875  0.60096  0.66991  1.0000
  H   H873      1.0  0.03304  0.57592  0.69523  1.0000
  C   C532      1.0  0.09489  0.89111  0.57690  1.0000
  C   C533      1.0  0.09494  0.84157  0.55145  1.0000
  H   H874      1.0  0.11114  0.83130  0.55278  1.0000
  H   H875      1.0  0.19764  0.87366  0.70392  1.0000
  N   N37       1.0  0.08096  0.88239  0.54037  1.0000
  C   C534      1.0  0.26020  0.84095  0.69202  1.0000
  H   H876      1.0  0.01096  0.60233  0.67278  1.0000
  H   H877      1.0  0.09596  0.58195  0.65407  1.0000
  H   H878      1.0  0.30071  0.72056  0.66384  1.0000
  H   H879      1.0  0.29154  0.70178  0.68580  1.0000
  H   H880      1.0  0.21311  0.87982  0.65869  1.0000
  C   C535      1.0  0.29879  0.68663  0.63485  1.0000
  H   H881      1.0  0.41931  0.70086  0.68799  1.0000
  H   H882      1.0  0.07465  0.55103  0.71538  1.0000
  C   C536      1.0  0.08179  0.89637  0.72702  1.0000
  C   C537      1.0  0.49574  0.85973  0.70682  1.0000
  C   C538      1.0  0.35136  0.72895  0.72596  1.0000
  H   H883      1.0  0.28598  0.69978  0.64011  1.0000
  H   H884      1.0  0.08758  0.84384  0.56744  1.0000
  H   H885      1.0  0.43824  0.86186  0.71967  1.0000
  H   H886      1.0  0.08349  0.83143  0.54278  1.0000
  H   H887      1.0  0.11592  0.87021  0.54525  1.0000
  H   H888      1.0  0.48041  0.69753  0.69775  1.0000
  H   H889      1.0  0.27270  0.67470  0.66637  1.0000
  H   H890      1.0  0.23419  0.58759  0.71623  1.0000
  H   H891      1.0  0.41835  0.73049  0.71251  1.0000
  C   C539      1.0  0.03935  0.88871  0.52890  1.0000
  H   H892      1.0  0.05670  0.94995  0.71670  1.0000
  H   H893      1.0  0.47750  0.77219  0.69095  1.0000
  C   C540      1.0  0.28808  0.66303  0.66697  1.0000
  H   H894      1.0  0.29306  0.62590  0.66883  1.0000
  H   H895      1.0  0.31280  0.69624  0.62660  1.0000
  H   H896      1.0  0.22360  0.90226  0.71097  1.0000
  H   H897      1.0  0.33012  0.64353  0.66025  1.0000
  C   C541      1.0  0.32047  0.68783  0.66609  1.0000
  H   H898      1.0  0.09296  0.57611  0.69213  1.0000
  C   C542      1.0  0.46363  0.78136  0.73150  1.0000
  H   H899      1.0  0.26410  0.63575  0.67181  1.0000
  H   H900      1.0  0.32844  0.67770  0.67913  1.0000
  H   H901      1.0  0.11174  0.89441  0.56915  1.0000
  C   C543      1.0  0.28049  0.63896  0.66293  1.0000
  H   H902      1.0  0.27791  0.63630  0.64637  1.0000
  C   C544      1.0  0.06868  0.88089  0.71365  1.0000
  H   H903      1.0  0.29244  0.66176  0.68370  1.0000
  N   N38       1.0  0.06206  0.59653  0.69886  1.0000
  H   H904      1.0  0.18786  0.86870  0.67045  1.0000
  C   C545      1.0  0.32399  0.65361  0.64641  1.0000
  N   N39       1.0  0.30761  0.67252  0.65322  1.0000
  C   C546      1.0  0.24353  0.85054  0.67558  1.0000
  H   H905      1.0  0.44142  0.71743  0.72629  1.0000
  H   H906      1.0  0.31559  0.64122  0.63730  1.0000
  H   H907      1.0  0.10495  0.92467  0.54611  1.0000
  H   H908      1.0  0.33469  0.69591  0.65671  1.0000
  H   H909      1.0  0.06943  0.93649  0.67775  1.0000
  H   H910      1.0  0.20133  0.59990  0.72796  1.0000
  H   H911      1.0  0.24549  0.83875  0.66266  1.0000
  C   C547      1.0  0.21597  0.86902  0.70076  1.0000
  C   C548      1.0  0.18486  0.82970  0.69692  1.0000
  C   C549      1.0  0.21047  0.83036  0.69032  1.0000
  H   H912      1.0  0.21425  0.81771  0.67828  1.0000
  H   H913      1.0  0.35493  0.64514  0.62817  1.0000
  C   C550      1.0  0.09464  0.92701  0.70133  1.0000
  H   H914      1.0  0.05473  0.63241  0.72804  1.0000
  H   H915      1.0  0.34117  0.67100  0.61880  1.0000
  C   C551      1.0  0.19786  0.52143  0.69863  1.0000
  C   C552      1.0  0.03732  0.59413  0.69466  1.0000
  H   H916      1.0  0.26192  0.82212  0.69193  1.0000
  H   H917      1.0  0.24929  0.97624  0.63067  1.0000
  C   C553      1.0  0.06032  0.87241  0.53182  1.0000
  H   H918      1.0  0.14830  0.86926  0.48931  1.0000
  H   H919      1.0  0.08667  0.62234  0.70149  1.0000
  H   H920      1.0  0.04833  0.92496  0.70619  1.0000
  H   H921      1.0  0.18058  0.83979  0.71071  1.0000
  S   S159      1.0  0.38238  0.63268  0.72632  1.0000
  H   H922      1.0  0.17067  0.77228  0.50090  1.0000
  H   H923      1.0  0.25303  0.97144  0.59605  1.0000
  C   C554      1.0  0.20659  0.56992  0.68816  1.0000
  H   H924      1.0  0.03796  0.59526  0.66042  1.0000
  H   H925      1.0  0.09974  0.88963  0.72641  1.0000
  H   H926      1.0  0.06080  0.65461  0.70905  1.0000
  C   C555      1.0  0.06272  0.56149  0.72518  1.0000
  C   C556      1.0  0.06855  0.62111  0.69745  1.0000
  H   H927      1.0  0.41430  0.70355  0.72557  1.0000
  H   H928      1.0  0.44517  0.71540  0.68639  1.0000
  H   H929      1.0  0.45037  0.76875  0.72996  1.0000
  H   H930      1.0  0.21959  0.56526  0.67569  1.0000
  H   H931      1.0  0.49620  0.65951  0.69412  1.0000
  C   C557      1.0  0.24599  0.55838  0.73447  1.0000
  C   C558      1.0  0.15369  0.76521  0.49944  1.0000
  H   H932      1.0  0.03593  0.63871  0.70693  1.0000
  C   C559      1.0  0.04102  0.64703  0.50159  1.0000
  C   C560      1.0  0.49290  0.78222  0.68744  1.0000
  H   H933      1.0  0.23901  0.99714  0.66435  1.0000
  C   C561      1.0  0.43584  0.66216  0.73492  1.0000
  H   H934      1.0  0.03240  0.69606  0.49250  1.0000
  H   H935      1.0  0.24869  0.56693  0.70141  1.0000
  C   C562      1.0  0.25314  0.98973  0.59083  1.0000
  H   H936      1.0  0.05354  0.59567  0.73226  1.0000
  H   H937      1.0  0.14093  0.51905  0.57062  1.0000
  H   H938      1.0  0.25530  0.84570  0.70806  1.0000
  H   H939      1.0  0.14162  0.77882  0.49363  1.0000
  H   H940      1.0  0.14711  0.75974  0.51537  1.0000
  H   H941      1.0  0.49222  0.81352  0.71841  1.0000
  H   H942      1.0  0.22189  0.52545  0.72173  1.0000
  H   H943      1.0  0.16253  0.73024  0.49474  1.0000
  C   C563      1.0  0.23561  0.56903  0.71445  1.0000
  S   S160      1.0  0.03159  0.84220  0.48902  1.0000
  H   H944      1.0  0.08033  0.51773  0.55017  1.0000
  H   H945      1.0  0.47556  0.58795  0.73367  1.0000
  H   H946      1.0  0.17755  0.56070  0.71891  1.0000
  H   H947      1.0  0.47531  0.87148  0.73320  1.0000
  H   H948      1.0  0.48581  0.75132  0.72823  1.0000
  H   H949      1.0  0.49891  0.77886  0.67119  1.0000
  H   H950      1.0  0.05426  0.63739  0.49253  1.0000
  H   H951      1.0  0.24720  0.50548  0.61150  1.0000
  C   C564      1.0  0.09508  0.51144  0.54021  1.0000
  H   H952      1.0  0.15330  0.00295  0.49717  1.0000
  S   S161      1.0  0.17096  0.00260  0.58753  1.0000
  H   H953      1.0  0.08863  0.95224  0.73627  1.0000
  H   H954      1.0  0.02307  0.93323  0.73552  1.0000
  H   H955      1.0  0.50118  0.66647  0.72000  1.0000
  C   C565      1.0  0.23126  0.00258  0.59879  1.0000
  N   N40       1.0  0.11534  0.50466  0.55295  1.0000
  H   H956      1.0  0.16316  0.51088  0.53573  1.0000
  H   H957      1.0  0.12164  0.00165  0.59794  1.0000
  Fe  Fe82      1.0  0.28833  0.55339  0.88319  1.0000
  C   C566      1.0  0.28306  0.84643  0.78294  1.0000
  S   S162      1.0  0.30466  0.58405  0.89513  1.0000
  Fe  Fe83      1.0  0.28985  0.52601  0.84416  1.0000
  H   H958      1.0  0.38765  0.91022  0.83790  1.0000
  S   S163      1.0  0.30791  0.52097  0.81267  1.0000
  Fe  Fe84      1.0  0.24604  0.53028  0.87060  1.0000
  S   S164      1.0  0.20701  0.53430  0.87213  1.0000
  H   H959      1.0  0.34305  0.72836  0.74139  1.0000
  S   S165      1.0  0.26839  0.55631  0.85413  1.0000
  H   H960      1.0  0.31774  0.62769  0.98107  1.0000
  Fe  Fe85      1.0  0.27109  0.91617  0.89808  1.0000
  S   S166      1.0  0.25407  0.94880  0.88585  1.0000
  S   S167      1.0  0.26597  0.90504  0.93207  1.0000
  Fe  Fe86      1.0  0.29447  0.90657  0.85617  1.0000
  S   S168      1.0  0.28016  0.93883  0.84109  1.0000
  S   S169      1.0  0.31598  0.87976  0.83969  1.0000
  Fe  Fe87      1.0  0.28862  0.95553  0.87045  1.0000
  S   S170      1.0  0.30839  0.98836  0.86871  1.0000
  Fe  Fe88      1.0  0.24721  0.92880  0.85795  1.0000
  S   S171      1.0  0.21486  0.93031  0.83964  1.0000
  S   S172      1.0  0.30581  0.92374  0.88399  1.0000
  S   S173      1.0  0.26129  0.89581  0.87175  1.0000
  Fe  Fe89      1.0  0.06098  0.61416  0.77797  1.0000
  S   S174      1.0  0.08130  0.64267  0.76241  1.0000
  S   S175      1.0  0.02480  0.61711  0.76537  1.0000
  Fe  Fe90      1.0  0.10402  0.59546  0.80097  1.0000
  S   S176      1.0  0.12619  0.62263  0.78649  1.0000
  S   S177      1.0  0.11699  0.56902  0.82548  1.0000
  Fe  Fe91      1.0  0.09624  0.64657  0.79318  1.0000
  S   S178      1.0  0.10043  0.67906  0.80987  1.0000
  H   H961      1.0  0.38692  0.98092  0.85834  1.0000
  H   H962      1.0  0.02639  0.84772  0.80999  1.0000
  S   S179      1.0  0.07449  0.61976  0.80944  1.0000
  S   S180      1.0  0.08849  0.58727  0.77095  1.0000
  Fe  Fe92      1.0  0.12510  0.84638  0.80004  1.0000
  S   S181      1.0  0.14368  0.82848  0.77386  1.0000
  S   S182      1.0  0.14642  0.85085  0.82824  1.0000
  Fe  Fe93      1.0  0.08074  0.85289  0.77613  1.0000
  Fe  Fe94      1.0  0.12836  0.85647  0.75344  1.0000
  S   S183      1.0  0.04446  0.86643  0.76942  1.0000
  Fe  Fe95      1.0  0.11124  0.81021  0.77111  1.0000
  S   S184      1.0  0.10772  0.77490  0.75945  1.0000
  H   H963      1.0  0.30097  0.63336  0.94868  1.0000
  H   H964      1.0  0.41359  0.66189  0.98486  1.0000
  S   S185      1.0  0.09341  0.82550  0.79912  1.0000
  S   S186      1.0  0.11071  0.87512  0.77961  1.0000
  S   S187      1.0  0.09767  0.83692  0.74809  1.0000
  H   H965      1.0  0.29503  0.60166  0.79226  1.0000
  C   C567      1.0  0.10256  0.70565  0.79577  1.0000
  C   C568      1.0  0.10465  0.72546  0.80660  1.0000
  C   C569      1.0  0.10641  0.74686  0.79578  1.0000
  C   C570      1.0  0.10604  0.74856  0.77400  1.0000
  C   C571      1.0  0.10385  0.72876  0.76323  1.0000
  C   C572      1.0  0.10213  0.70741  0.77402  1.0000
  H   H966      1.0  0.37018  0.89217  0.94300  1.0000
  H   H967      1.0  0.10811  0.76198  0.80424  1.0000
  H   H968      1.0  0.26032  0.83533  0.82487  1.0000
  H   H969      1.0  0.10058  0.69231  0.76550  1.0000
  H   H970      1.0  0.31412  0.93286  0.96709  1.0000
  H   H971      1.0  0.32915  0.94815  0.79905  1.0000
  C   C573      1.0  0.19664  0.90763  0.83611  1.0000
  C   C574      1.0  0.19917  0.88645  0.84689  1.0000
  C   C575      1.0  0.18375  0.86923  0.84424  1.0000
  C   C576      1.0  0.16612  0.87266  0.83025  1.0000
  C   C577      1.0  0.16412  0.89359  0.81893  1.0000
  C   C578      1.0  0.17910  0.91104  0.82206  1.0000
  H   H972      1.0  0.21282  0.88341  0.85743  1.0000
  H   H973      1.0  0.18550  0.85310  0.85303  1.0000
  H   H974      1.0  0.15061  0.89655  0.80819  1.0000
  H   H975      1.0  0.17703  0.92730  0.81356  1.0000
  H   H976      1.0  0.39085  0.68100  0.97584  1.0000
  C   C579      1.0  0.28867  0.88729  0.94090  1.0000
  C   C580      1.0  0.29125  0.88280  0.96236  1.0000
  C   C581      1.0  0.31041  0.87002  0.96942  1.0000
  C   C582      1.0  0.32684  0.86159  0.95498  1.0000
  C   C583      1.0  0.32384  0.86559  0.93360  1.0000
  C   C584      1.0  0.30488  0.87842  0.92658  1.0000
  H   H977      1.0  0.03795  0.75861  0.81379  1.0000
  C   C585      1.0  0.24259  0.91303  0.78743  1.0000
  H   H978      1.0  0.33640  0.85889  0.92239  1.0000
  H   H979      1.0  0.30282  0.88134  0.91003  1.0000
  C   C586      1.0  0.32163  0.88257  0.81248  1.0000
  C   C587      1.0  0.31351  0.90158  0.80074  1.0000
  C   C588      1.0  0.31869  0.90370  0.77916  1.0000
  C   C589      1.0  0.33157  0.88659  0.76910  1.0000
  C   C590      1.0  0.33944  0.86739  0.78077  1.0000
  C   C591      1.0  0.33463  0.86549  0.80246  1.0000
  H   H980      1.0  0.30338  0.91474  0.80823  1.0000
  H   H981      1.0  0.34941  0.85412  0.77312  1.0000
  H   H982      1.0  0.34094  0.85070  0.81147  1.0000
  C   C592      1.0  0.18338  0.54517  0.85764  1.0000
  C   C593      1.0  0.18513  0.55580  0.83744  1.0000
  C   C594      1.0  0.16513  0.56351  0.82709  1.0000
  C   C595      1.0  0.14336  0.56069  0.83696  1.0000
  C   C596      1.0  0.14196  0.55019  0.85704  1.0000
  C   C597      1.0  0.16162  0.54268  0.86724  1.0000
  H   H983      1.0  0.20179  0.55774  0.82972  1.0000
  H   H984      1.0  0.16654  0.57107  0.81139  1.0000
  H   H985      1.0  0.12540  0.54763  0.86481  1.0000
  H   H986      1.0  0.15990  0.53447  0.88271  1.0000
  C   C598      1.0  0.31119  0.54551  0.79597  1.0000
  C   C599      1.0  0.29910  0.56577  0.80021  1.0000
  C   C600      1.0  0.30406  0.58593  0.78850  1.0000
  C   C601      1.0  0.32110  0.58601  0.77241  1.0000
  C   C602      1.0  0.33250  0.56555  0.76746  1.0000
  C   C603      1.0  0.32749  0.54530  0.77919  1.0000
  H   H987      1.0  0.28622  0.56605  0.81277  1.0000
  H   H988      1.0  0.34571  0.56544  0.75510  1.0000
  H   H989      1.0  0.33689  0.52967  0.77578  1.0000
  C   C604      1.0  0.31214  0.58192  0.92141  1.0000
  C   C605      1.0  0.30267  0.56554  0.93545  1.0000
  C   C606      1.0  0.30795  0.56468  0.95651  1.0000
  C   C607      1.0  0.32301  0.57993  0.96371  1.0000
  C   C608      1.0  0.33305  0.59596  0.94960  1.0000
  C   C609      1.0  0.32740  0.59714  0.92852  1.0000
  H   H990      1.0  0.29095  0.55373  0.93017  1.0000
  H   H991      1.0  0.30023  0.55214  0.96731  1.0000
  H   H992      1.0  0.33497  0.60971  0.91768  1.0000
  N   N41       1.0  0.19440  0.90907  0.91649  1.0000
  C   C610      1.0  0.20558  0.92678  0.92815  1.0000
  C   C611      1.0  0.19441  0.91727  0.89383  1.0000
  C   C612      1.0  0.20910  0.88749  0.91836  1.0000
  C   C613      1.0  0.17066  0.90557  0.92606  1.0000
  C   C614      1.0  0.20814  0.92133  0.95174  1.0000
  C   C615      1.0  0.18356  0.94125  0.88940  1.0000
  C   C616      1.0  0.20078  0.86667  0.90803  1.0000
  C   C617      1.0  0.15265  0.89759  0.91169  1.0000
  H   H993      1.0  0.22287  0.93023  0.92102  1.0000
  H   H994      1.0  0.19574  0.94331  0.92710  1.0000
  H   H995      1.0  0.18556  0.90554  0.88442  1.0000
  H   H996      1.0  0.21216  0.91742  0.88681  1.0000
  H   H997      1.0  0.22669  0.89058  0.91177  1.0000
  H   H998      1.0  0.21104  0.88171  0.93494  1.0000
  H   H999      1.0  0.17128  0.89312  0.93975  1.0000
  H   H1000     1.0  0.16321  0.92158  0.93246  1.0000
  H   H1001     1.0  0.19186  0.91662  0.96002  1.0000
  C   C618      1.0  0.36156  0.95473  0.85663  1.0000
  H   H1002     1.0  0.21388  0.93672  0.95882  1.0000
  H   H1003     1.0  0.17914  0.94326  0.87278  1.0000
  H   H1004     1.0  0.16779  0.94444  0.89918  1.0000
  H   H1005     1.0  0.19590  0.95450  0.89180  1.0000
  H   H1006     1.0  0.18582  0.85952  0.91696  1.0000
  H   H1007     1.0  0.21451  0.85312  0.90837  1.0000
  H   H1008     1.0  0.19699  0.87019  0.89147  1.0000
  H   H1009     1.0  0.14767  0.91114  0.89993  1.0000
  H   H1010     1.0  0.13693  0.89349  0.92129  1.0000
  H   H1011     1.0  0.15811  0.88215  0.90351  1.0000
  H   H1012     1.0  0.04950  0.80521  0.74174  1.0000
  H   H1013     1.0  0.34463  0.95153  0.86464  1.0000
  S   S188      1.0  0.32888  0.61228  0.76025  1.0000
  H   H1014     1.0  0.44722  0.64780  0.74049  1.0000
  H   H1015     1.0  0.25346  0.91994  0.79901  1.0000
  C   C619      1.0  0.04289  0.77101  0.80074  1.0000
  C   C620      1.0  0.25358  0.87141  0.81485  1.0000
  H   H1016     1.0  0.38284  0.54968  0.83005  1.0000
  H   H1017     1.0  0.35038  0.67334  0.94981  1.0000
  C   C621      1.0  0.36846  0.90810  0.93307  1.0000
  H   H1018     1.0  0.32544  0.91304  0.94949  1.0000
  C   C622      1.0  0.50479  0.81353  0.74901  1.0000
  H   H1019     1.0  0.16041  0.64160  0.88431  1.0000
  H   H1020     1.0  0.07617  0.89276  0.74363  1.0000
  C   C623      1.0  0.32154  0.94733  0.93625  1.0000
  H   H1021     1.0  0.16135  0.67614  0.86578  1.0000
  H   H1022     1.0  0.38522  0.94446  0.80817  1.0000
  N   N42       1.0  0.24588  0.86923  0.79308  1.0000
  C   C624      1.0  0.25679  0.84851  0.78333  1.0000
  C   C625      1.0  0.22037  0.86684  0.79411  1.0000
  H   H1023     1.0  0.23333  0.55730  0.74785  1.0000
  C   C626      1.0  0.25276  0.89008  0.78001  1.0000
  H   H1024     1.0  0.34516  0.60733  0.95492  1.0000
  C   C627      1.0  0.20864  0.87009  0.77318  1.0000
  H   H1025     1.0  0.27867  0.88954  0.97351  1.0000
  H   H1026     1.0  0.04560  0.80849  0.79920  1.0000
  S   S189      1.0  0.26467  0.52937  0.90073  1.0000
  H   H1027     1.0  0.25213  0.84799  0.76683  1.0000
  H   H1028     1.0  0.21172  0.87887  0.80482  1.0000
  H   H1029     1.0  0.21575  0.84978  0.80099  1.0000
  C   C628      1.0  0.00591  0.78258  0.78549  1.0000
  H   H1030     1.0  0.34488  0.98467  0.82642  1.0000
  C   C629      1.0  0.27827  0.67274  0.98197  1.0000
  H   H1031     1.0  0.24939  0.88874  0.76326  1.0000
  H   H1032     1.0  0.33623  0.92454  0.83810  1.0000
  H   H1033     1.0  0.17783  0.66489  0.84377  1.0000
  H   H1034     1.0  0.36062  0.53799  0.84768  1.0000
  H   H1035     1.0  0.21576  0.85822  0.76155  1.0000
  H   H1036     1.0  0.19024  0.86655  0.77594  1.0000
  H   H1037     1.0  0.20940  0.88787  0.76662  1.0000
  H   H1038     1.0  0.27187  0.87564  0.81461  1.0000
  C   C630      1.0  0.39010  0.97886  0.81551  1.0000
  H   H1039     1.0  0.35373  0.92303  0.81479  1.0000
  H   H1040     1.0  0.39870  0.60229  0.79711  1.0000
  H   H1041     1.0  0.22507  0.91197  0.79447  1.0000
  H   H1042     1.0  0.42103  0.75129  0.98602  1.0000
  H   H1043     1.0  0.49201  0.80435  0.75914  1.0000
  H   H1044     1.0  0.13982  0.65454  0.82904  1.0000
  H   H1045     1.0  0.25022  0.83261  0.79120  1.0000
  C   C631      1.0  0.16090  0.67181  0.84925  1.0000
  H   H1046     1.0  0.36505  0.89139  0.83591  1.0000
  H   H1047     1.0  0.41873  0.65843  0.74211  1.0000
  H   H1048     1.0  0.27153  0.89173  0.77978  1.0000
  H   H1049     1.0  0.01256  0.74162  0.76769  1.0000
  C   C632      1.0  0.01290  0.84842  0.79913  1.0000
  C   C633      1.0  0.36868  0.97822  0.86264  1.0000
  H   H1050     1.0  0.45817  0.79045  0.74570  1.0000
  C   C634      1.0  0.33692  0.66086  0.95356  1.0000
  H   H1051     1.0  0.36959  0.61121  0.79497  1.0000
  N   N43       1.0  0.02811  0.76902  0.78240  1.0000
  H   H1052     1.0  0.29433  0.98822  0.91333  1.0000
  H   H1053     1.0  0.33325  0.94540  0.92232  1.0000
  C   C635      1.0  0.35438  0.91392  0.97951  1.0000
  H   H1054     1.0  0.35423  0.96392  0.79142  1.0000
  H   H1055     1.0  0.36940  0.94451  0.93428  1.0000
  H   H1056     1.0  0.48846  0.76576  0.75149  1.0000
  C   C636      1.0  0.11693  0.92858  0.74117  1.0000
  H   H1057     1.0  0.39757  0.94692  0.83250  1.0000
  H   H1058     1.0  0.32559  0.96345  0.83328  1.0000
  C   C637      1.0  0.38382  0.95424  0.82257  1.0000
  H   H1059     1.0  0.24129  0.92544  0.77384  1.0000
  C   C638      1.0  0.31710  0.67248  0.96618  1.0000
  H   H1060     1.0  0.35785  0.99238  0.85607  1.0000
  H   H1061     1.0  0.12421  0.60535  0.89254  1.0000
  C   C639      1.0  0.01744  0.85599  0.77837  1.0000
  S   S190      1.0  0.31167  0.52547  0.87162  1.0000
  C   C640      1.0  0.35395  0.92695  0.83150  1.0000
  C   C641      1.0  0.36928  0.90801  0.84175  1.0000
  H   H1062     1.0  0.26765  0.67437  0.93937  1.0000
  H   H1063     1.0  0.03277  0.81296  0.76377  1.0000
  C   C642      1.0  0.04247  0.79421  0.81072  1.0000
  H   H1064     1.0  0.25626  0.85423  0.84545  1.0000
  H   H1065     1.0  0.12238  0.93820  0.75428  1.0000
  H   H1066     1.0  0.38266  0.56217  0.86455  1.0000
  N   N44       1.0  0.36076  0.95111  0.83364  1.0000
  H   H1067     1.0  0.35280  0.90792  0.92421  1.0000
  C   C643      1.0  0.04285  0.72703  0.78075  1.0000
  H   H1068     1.0  0.03868  0.90752  0.74219  1.0000
  H   H1069     1.0  0.37301  0.57743  0.88665  1.0000
  C   C644      1.0  0.40710  0.67989  0.98398  1.0000
  H   H1070     1.0  0.36591  0.90655  0.85892  1.0000
  H   H1071     1.0  0.38308  0.90785  0.92141  1.0000
  H   H1072     1.0  0.35241  0.89693  0.97333  1.0000
  H   H1073     1.0  0.31254  0.91857  0.77017  1.0000
  H   H1074     1.0  0.06106  0.76654  0.79637  1.0000
  N   N45       1.0  0.35094  0.93244  0.96269  1.0000
  H   H1075     1.0  0.30417  0.94390  0.93146  1.0000
  H   H1076     1.0  0.31144  0.68810  0.95701  1.0000
  C   C645      1.0  0.32763  0.93045  0.95451  1.0000
  H   H1077     1.0  0.03638  0.70956  0.78125  1.0000
  H   H1078     1.0  0.33665  0.96080  0.98004  1.0000
  H   H1079     1.0  0.32108  0.96518  0.94086  1.0000
  H   H1080     1.0  0.04551  0.93400  0.75298  1.0000
  C   C646      1.0  0.04089  0.77588  0.76222  1.0000
  H   H1081     1.0  0.27704  0.65217  0.92286  1.0000
  H   H1082     1.0  0.35380  0.96895  0.95786  1.0000
  H   H1083     1.0  0.37813  0.58129  0.79522  1.0000
  Fe  Fe96      1.0  0.10911  0.61607  0.75711  1.0000
  C   C647      1.0  0.28230  0.66265  0.93549  1.0000
  H   H1084     1.0  0.33170  0.65491  0.93856  1.0000
  C   C648      1.0  0.25017  0.85046  0.83000  1.0000
  H   H1085     1.0  0.03215  0.77075  0.74839  1.0000
  H   H1086     1.0  0.34492  0.64649  0.96268  1.0000
  H   H1087     1.0  0.15757  0.68798  0.83994  1.0000
  H   H1088     1.0  0.28885  0.83007  0.77626  1.0000
  H   H1089     1.0  0.12079  0.91042  0.74532  1.0000
  H   H1090     1.0  0.06247  0.80448  0.76655  1.0000
  H   H1091     1.0  0.38650  0.92890  0.95231  1.0000
  H   H1092     1.0  0.05339  0.72918  0.76601  1.0000
  H   H1093     1.0  0.22147  0.90786  0.95477  1.0000
  H   H1094     1.0  0.00660  0.57875  0.79190  1.0000
  C   C649      1.0  0.35251  0.95575  0.97094  1.0000
  C   C650      1.0  0.34217  0.96647  0.82455  1.0000
  H   H1095     1.0  0.24436  0.88599  0.82227  1.0000
  N   N46       1.0  0.14414  0.63227  0.85674  1.0000
  C   C651      1.0  0.16620  0.62024  0.84983  1.0000
  C   C652      1.0  0.14417  0.63446  0.87999  1.0000
  C   C653      1.0  0.14161  0.65562  0.84611  1.0000
  C   C654      1.0  0.12459  0.61857  0.85104  1.0000
  C   C655      1.0  0.17148  0.62007  0.82608  1.0000
  C   C656      1.0  0.14143  0.61212  0.89347  1.0000
  H   H1096     1.0  0.36191  0.53355  0.82011  1.0000
  C   C657      1.0  0.10046  0.62782  0.85766  1.0000
  H   H1097     1.0  0.18107  0.62754  0.85668  1.0000
  H   H1098     1.0  0.16648  0.60208  0.85568  1.0000
  H   H1099     1.0  0.13072  0.64693  0.88541  1.0000
  H   H1100     1.0  0.05609  0.79397  0.82208  1.0000
  H   H1101     1.0  0.23195  0.84640  0.83240  1.0000
  H   H1102     1.0  0.12549  0.66446  0.85168  1.0000
  H   H1103     1.0  0.12452  0.61749  0.83385  1.0000
  H   H1104     1.0  0.12646  0.60049  0.85684  1.0000
  H   H1105     1.0  0.18778  0.61025  0.82316  1.0000
  H   H1106     1.0  0.15827  0.61146  0.81822  1.0000
  H   H1107     1.0  0.17369  0.63733  0.81870  1.0000
  H   H1108     1.0  0.41922  0.68998  0.97397  1.0000
  H   H1109     1.0  0.05762  0.76635  0.76098  1.0000
  H   H1110     1.0  0.14347  0.61549  0.91008  1.0000
  H   H1111     1.0  0.27283  0.63733  0.95899  1.0000
  H   H1112     1.0  0.05380  0.72765  0.79421  1.0000
  H   H1113     1.0  0.02604  0.79752  0.81959  1.0000
  H   H1114     1.0  0.09416  0.64085  0.84593  1.0000
  H   H1115     1.0  0.09947  0.63522  0.87309  1.0000
  H   H1116     1.0  0.08865  0.61352  0.85912  1.0000
  N   N47       1.0  0.35548  0.58936  0.83538  1.0000
  C   C658      1.0  0.33820  0.60753  0.82828  1.0000
  C   C659      1.0  0.37848  0.59615  0.82610  1.0000
  C   C660      1.0  0.35512  0.58848  0.85895  1.0000
  C   C661      1.0  0.34862  0.56707  0.82778  1.0000
  C   C662      1.0  0.31412  0.60656  0.83913  1.0000
  C   C663      1.0  0.38099  0.59774  0.80201  1.0000
  C   C664      1.0  0.37681  0.57915  0.86951  1.0000
  C   C665      1.0  0.36455  0.54608  0.83195  1.0000
  H   H1117     1.0  0.34435  0.62480  0.83054  1.0000
  H   H1118     1.0  0.33576  0.60703  0.81127  1.0000
  H   H1119     1.0  0.39241  0.58431  0.83139  1.0000
  H   H1120     1.0  0.38272  0.61296  0.83164  1.0000
  H   H1121     1.0  0.35186  0.60580  0.86485  1.0000
  H   H1122     1.0  0.34079  0.57818  0.86565  1.0000
  H   H1123     1.0  0.33175  0.56229  0.83496  1.0000
  H   H1124     1.0  0.34571  0.56853  0.81086  1.0000
  H   H1125     1.0  0.30643  0.58987  0.83830  1.0000
  H   H1126     1.0  0.31411  0.61098  0.85566  1.0000
  H   H1127     1.0  0.30264  0.61933  0.83116  1.0000
  H   H1128     1.0  0.10500  0.72424  0.82343  1.0000
  H   H1129     1.0  0.40837  0.98105  0.81827  1.0000
  C   C666      1.0  0.02235  0.74436  0.78161  1.0000
  H   H1130     1.0  0.39086  0.59115  0.86689  1.0000
  C   C667      1.0  0.36936  0.92956  0.94568  1.0000
  H   H1131     1.0  0.28979  0.84621  0.79873  1.0000
  H   H1132     1.0  0.32705  0.97830  0.79551  1.0000
  H   H1133     1.0  0.29688  0.67252  0.92892  1.0000
  C   C668      1.0  0.33822  0.96387  0.80128  1.0000
  S   S191      1.0  0.35178  0.84665  0.96268  1.0000
  C   C669      1.0  0.04670  0.80106  0.75873  1.0000
  H   H1134     1.0  0.29099  0.86001  0.77275  1.0000
  H   H1135     1.0  0.15452  0.59886  0.88919  1.0000
  N   N48       1.0  0.29723  0.65787  0.97270  1.0000
  H   H1136     1.0  0.10357  0.72992  0.74639  1.0000
  H   H1137     1.0  0.31250  0.86667  0.98594  1.0000
  H   H1138     1.0  0.19990  0.58307  0.75236  1.0000
  C   C670      1.0  0.28852  0.64664  0.95435  1.0000
  H   H1139     1.0  0.27359  0.68701  0.97073  1.0000
  H   H1140     1.0  0.36659  0.97905  0.87987  1.0000
  H   H1141     1.0  0.08275  0.92868  0.75402  1.0000
  H   H1142     1.0  0.44062  0.67807  0.74145  1.0000
  H   H1143     1.0  0.37388  0.94248  0.86417  1.0000
  H   H1144     1.0  0.37219  0.91295  0.98470  1.0000
  S   S192      1.0  0.33735  0.89002  0.74199  1.0000
  C   C671      1.0  0.37285  0.95885  0.98459  1.0000
  H   H1145     1.0  0.00865  0.80075  0.78763  1.0000
  H   H1146     1.0  0.01114  0.73906  0.79543  1.0000
  H   H1147     1.0  0.32479  0.67879  0.98009  1.0000
  H   H1148     1.0  0.38861  0.98187  0.79842  1.0000
  H   H1149     1.0  0.38940  0.95448  0.97643  1.0000
  H   H1150     1.0  0.49952  0.83186  0.74848  1.0000
  H   H1151     1.0  0.06663  0.55686  0.74164  1.0000
  H   H1152     1.0  0.40138  0.72952  0.98345  1.0000
  H   H1153     1.0  0.26242  0.66315  0.98503  1.0000
  C   C672      1.0  0.30588  0.00187  0.90980  1.0000
  H   H1154     1.0  0.38042  0.99247  0.82362  1.0000
  H   H1155     1.0  0.44131  0.71354  0.98774  1.0000
  H   H1156     1.0  0.27719  0.61548  0.98735  1.0000
  H   H1157     1.0  0.19580  0.54914  0.73822  1.0000
  C   C673      1.0  0.04036  0.92604  0.73885  1.0000
  C   C674      1.0  0.09117  0.93343  0.73857  1.0000
  H   H1158     1.0  0.25994  0.56904  0.73889  1.0000
  H   H1159     1.0  0.12171  0.56876  0.73862  1.0000
  H   H1160     1.0  0.17484  0.59089  0.73923  1.0000
  Fe  Fe97      1.0  0.90108  0.35157  0.19575  1.0000
  S   S193      1.0  0.89413  0.32087  0.21727  1.0000
  S   S194      1.0  0.93680  0.36234  0.18413  1.0000
  Fe  Fe98      1.0  0.84976  0.36643  0.19387  1.0000
  S   S195      1.0  0.84008  0.33671  0.21525  1.0000
  S   S196      1.0  0.81909  0.39112  0.18857  1.0000
  H   H1161     1.0  0.83944  0.33982  0.13495  1.0000
  H   H1162     1.0  0.62958  0.10059  0.02439  1.0000
  Fe  Fe99      1.0  0.86531  0.31571  0.19655  1.0000
  S   S197      1.0  0.85054  0.28338  0.18653  1.0000
  S   S198      1.0  0.87792  0.37571  0.21402  1.0000
  S   S199      1.0  0.87347  0.34499  0.17361  1.0000
  H   H1163     1.0  0.79961  0.26545  0.14513  1.0000
  S   S200      1.0  0.86328  0.08825  0.21425  1.0000
  C   C675      1.0  0.78933  0.48709  0.07831  1.0000
  Fe  Fe100     1.0  0.87919  0.15203  0.20736  1.0000
  S   S201      1.0  0.88715  0.12706  0.18266  1.0000
  S   S202      1.0  0.89693  0.18559  0.20520  1.0000
  Fe  Fe101     1.0  0.85170  0.11421  0.18959  1.0000
  S   S203      1.0  0.82363  0.11145  0.16648  1.0000
  Fe  Fe102     1.0  0.89818  0.10364  0.20943  1.0000
  S   S204      1.0  0.93289  0.08449  0.20662  1.0000
  S   S205      1.0  0.84298  0.14168  0.21193  1.0000
  C   C676      1.0  0.00104  0.09634  0.20102  1.0000
  Fe  Fe103     1.0  0.67510  0.43699  0.13868  1.0000
  S   S206      1.0  0.70752  0.45470  0.12918  1.0000
  S   S207      1.0  0.65617  0.43822  0.17009  1.0000
  Fe  Fe104     1.0  0.66956  0.41961  0.09568  1.0000
  S   S208      1.0  0.70187  0.43531  0.08274  1.0000
  S   S209      1.0  0.64031  0.40543  0.07942  1.0000
  Fe  Fe105     1.0  0.71716  0.42251  0.11308  1.0000
  S   S210      1.0  0.75296  0.40554  0.11265  1.0000
  Fe  Fe106     1.0  0.68987  0.46634  0.09981  1.0000
  H   H1164     1.0  0.63262  0.27130  0.05485  1.0000
  S   S211      1.0  0.68567  0.40411  0.12445  1.0000
  S   S212      1.0  0.65683  0.45144  0.11090  1.0000
  H   H1165     1.0  0.93432  0.37615  0.22629  1.0000
  S   S213      1.0  0.66326  0.01713  0.11621  1.0000
  Fe  Fe107     1.0  0.72508  0.02929  0.13254  1.0000
  S   S214      1.0  0.69483  0.05275  0.13940  1.0000
  S   S215      1.0  0.76056  0.03047  0.14571  1.0000
  Fe  Fe108     1.0  0.67570  0.02120  0.14825  1.0000
  S   S216      1.0  0.65085  0.01627  0.17624  1.0000
  Fe  Fe109     1.0  0.68475  0.04693  0.10678  1.0000
  S   S217      1.0  0.67019  0.07691  0.08736  1.0000
  H   H1166     1.0  0.83437  0.40518  0.23287  1.0000
  S   S218      1.0  0.71657  0.02582  0.09898  1.0000
  H   H1167     1.0  0.82422  0.31650  0.12726  1.0000
  H   H1168     1.0  0.65909  0.36090  0.15123  1.0000
  H   H1169     1.0  0.57246  0.37217  0.14811  1.0000
  C   C677      1.0  0.95946  0.09771  0.20773  1.0000
  C   C678      1.0  0.96087  0.11949  0.21501  1.0000
  C   C679      1.0  0.98220  0.12956  0.21534  1.0000
  C   C680      1.0  0.97970  0.08616  0.20088  1.0000
  H   H1170     1.0  0.94549  0.12861  0.22036  1.0000
  H   H1171     1.0  0.77626  0.45227  0.05351  1.0000
  C   C681      1.0  0.80618  0.08864  0.16123  1.0000
  C   C682      1.0  0.81369  0.06586  0.16374  1.0000
  C   C683      1.0  0.79954  0.04838  0.15879  1.0000
  C   C684      1.0  0.77766  0.05337  0.15137  1.0000
  C   C685      1.0  0.77011  0.07614  0.14894  1.0000
  C   C686      1.0  0.78436  0.09364  0.15371  1.0000
  H   H1172     1.0  0.83063  0.06174  0.16895  1.0000
  H   H1173     1.0  0.80566  0.03084  0.16054  1.0000
  H   H1174     1.0  0.75342  0.08029  0.14313  1.0000
  H   H1175     1.0  0.77847  0.11120  0.15145  1.0000
  C   C687      1.0  0.86318  0.25629  0.19278  1.0000
  C   C688      1.0  0.85137  0.23676  0.18922  1.0000
  C   C689      1.0  0.86119  0.21490  0.19353  1.0000
  C   C690      1.0  0.88304  0.21250  0.20117  1.0000
  C   C691      1.0  0.89484  0.23203  0.20470  1.0000
  C   C692      1.0  0.88491  0.25386  0.20067  1.0000
  H   H1176     1.0  0.83458  0.23851  0.18307  1.0000
  H   H1177     1.0  0.61048  0.23179  0.99207  1.0000
  H   H1178     1.0  0.91177  0.23028  0.21055  1.0000
  H   H1179     1.0  0.89417  0.26878  0.20339  1.0000
  C   C693      1.0  0.96380  0.35309  0.19372  1.0000
  C   C694      1.0  0.96583  0.33687  0.21035  1.0000
  H   H1180     1.0  0.57827  0.39454  0.17558  1.0000
  H   H1181     1.0  0.62631  0.28273  0.99829  1.0000
  C   C695      1.0  0.98369  0.36322  0.18507  1.0000
  H   H1182     1.0  0.75063  0.48685  0.05859  1.0000
  H   H1183     1.0  0.91865  0.41478  0.21693  1.0000
  H   H1184     1.0  0.98238  0.37574  0.17217  1.0000
  C   C696      1.0  0.80108  0.39509  0.16717  1.0000
  C   C697      1.0  0.77884  0.40443  0.17059  1.0000
  C   C698      1.0  0.76387  0.40772  0.15413  1.0000
  C   C699      1.0  0.77109  0.40193  0.13396  1.0000
  C   C700      1.0  0.79343  0.39294  0.13049  1.0000
  C   C701      1.0  0.80837  0.38957  0.14696  1.0000
  H   H1185     1.0  0.77309  0.40905  0.18608  1.0000
  H   H1186     1.0  0.74676  0.41473  0.15704  1.0000
  H   H1187     1.0  0.79926  0.38861  0.11491  1.0000
  H   H1188     1.0  0.82560  0.38294  0.14398  1.0000
  H   H1189     1.0  0.64187  0.34547  0.13553  1.0000
  C   C702      1.0  0.63321  0.08025  0.21197  1.0000
  C   C703      1.0  0.65359  0.07840  0.19975  1.0000
  C   C704      1.0  0.65961  0.05836  0.18967  1.0000
  C   C705      1.0  0.64501  0.04020  0.19124  1.0000
  C   C706      1.0  0.62503  0.04164  0.20418  1.0000
  C   C707      1.0  0.61916  0.06163  0.21462  1.0000
  H   H1190     1.0  0.66460  0.09269  0.19773  1.0000
  H   H1191     1.0  0.67539  0.05714  0.18039  1.0000
  H   H1192     1.0  0.61373  0.02757  0.20562  1.0000
  H   H1193     1.0  0.81678  0.48442  0.10034  1.0000
  C   C708      1.0  0.65421  0.37190  0.21050  1.0000
  C   C709      1.0  0.63733  0.38903  0.21327  1.0000
  C   C710      1.0  0.63795  0.40923  0.20062  1.0000
  C   C711      1.0  0.65544  0.41243  0.18520  1.0000
  C   C712      1.0  0.67219  0.39521  0.18226  1.0000
  C   C713      1.0  0.67153  0.37497  0.19487  1.0000
  S   S219      1.0  0.64044  0.33179  0.01080  1.0000
  H   H1194     1.0  0.62468  0.42233  0.20263  1.0000
  H   H1195     1.0  0.68587  0.39762  0.17055  1.0000
  H   H1196     1.0  0.68461  0.36173  0.19266  1.0000
  C   C714      1.0  0.64076  0.35313  0.02905  1.0000
  C   C715      1.0  0.62170  0.36757  0.03285  1.0000
  C   C716      1.0  0.62199  0.38360  0.04822  1.0000
  C   C717      1.0  0.64148  0.38572  0.05960  1.0000
  C   C718      1.0  0.66068  0.37148  0.05565  1.0000
  C   C719      1.0  0.66020  0.35509  0.04057  1.0000
  H   H1197     1.0  0.60660  0.36615  0.02417  1.0000
  H   H1198     1.0  0.60704  0.39447  0.05125  1.0000
  H   H1199     1.0  0.67572  0.37287  0.06440  1.0000
  H   H1200     1.0  0.67500  0.34394  0.03773  1.0000
  C   C720      1.0  0.63377  0.06416  0.02791  1.0000
  C   C721      1.0  0.64250  0.04579  0.04034  1.0000
  C   C722      1.0  0.65376  0.04948  0.05855  1.0000
  C   C723      1.0  0.65628  0.07164  0.06450  1.0000
  C   C724      1.0  0.64744  0.09004  0.05214  1.0000
  C   C725      1.0  0.63626  0.08633  0.03386  1.0000
  H   H1201     1.0  0.64060  0.02866  0.03583  1.0000
  H   H1202     1.0  0.66055  0.03522  0.06794  1.0000
  H   H1203     1.0  0.64937  0.10721  0.05664  1.0000
  H   H1204     1.0  0.82132  0.28430  0.15005  1.0000
  H   H1205     1.0  0.63004  0.50031  0.03621  1.0000
  H   H1206     1.0  0.81248  0.02926  0.20555  1.0000
  H   H1207     1.0  0.59443  0.44013  0.13519  1.0000
  H   H1208     1.0  0.62217  0.42762  0.13796  1.0000
  H   H1209     1.0  0.58838  0.36719  0.18604  1.0000
  H   H1210     1.0  0.76546  0.34602  0.19541  1.0000
  H   H1211     1.0  0.74694  0.44762  0.05022  1.0000
  H   H1212     1.0  0.97879  0.06940  0.19502  1.0000
  H   H1213     1.0  0.73696  0.49705  0.10444  1.0000
  H   H1214     1.0  0.81071  0.08165  0.20452  1.0000
  H   H1215     1.0  0.97410  0.37693  0.22874  1.0000
  H   H1216     1.0  0.61329  0.22258  0.01856  1.0000
  H   H1217     1.0  0.80215  0.27395  0.17104  1.0000
  S   S220      1.0  0.69405  0.50155  0.08340  1.0000
  N   N49       1.0  0.76641  0.48150  0.08848  1.0000
  H   H1218     1.0  0.64618  0.50306  0.09852  1.0000
  C   C726      1.0  0.00441  0.22519  0.22958  1.0000
  H   H1219     1.0  0.98856  0.31943  0.23187  1.0000
  H   H1220     1.0  0.75935  0.43663  0.07351  1.0000
  C   C727      1.0  0.00238  0.11818  0.20820  1.0000
  C   C728      1.0  0.65790  0.45271  0.22860  1.0000
  C   C729      1.0  0.63641  0.27436  0.03784  1.0000
  H   H1221     1.0  0.65025  0.28672  0.03647  1.0000
  C   C730      1.0  0.64468  0.25166  0.02839  1.0000
  H   H1222     1.0  0.85204  0.19996  0.19062  1.0000
  C   C731      1.0  0.59375  0.25339  0.01428  1.0000
  C   C732      1.0  0.99230  0.18246  0.17063  1.0000
  H   H1223     1.0  0.59226  0.26902  0.00406  1.0000
  H   H1224     1.0  0.58308  0.35451  0.09267  1.0000
  H   H1225     1.0  0.60829  0.38709  0.17677  1.0000
  H   H1226     1.0  0.75967  0.47657  0.13508  1.0000
  C   C733      1.0  0.00523  0.35769  0.19322  1.0000
  H   H1227     1.0  0.65514  0.20572  0.02429  1.0000
  H   H1228     1.0  0.62090  0.28264  0.03143  1.0000
  H   H1229     1.0  0.00314  0.24313  0.22328  1.0000
  H   H1230     1.0  0.73389  0.47186  0.07810  1.0000
  H   H1231     1.0  0.94887  0.41458  0.21718  1.0000
  S   S221      1.0  0.61985  0.05855  0.00515  1.0000
  H   H1232     1.0  0.65966  0.49243  0.03536  1.0000
  H   H1233     1.0  0.62364  0.38660  0.22496  1.0000
  H   H1234     1.0  0.78959  0.47849  0.12710  1.0000
  H   H1235     1.0  0.95327  0.12272  0.17082  1.0000
  H   H1236     1.0  0.66364  0.25137  0.02852  1.0000
  H   H1237     1.0  0.95078  0.32877  0.21709  1.0000
  H   H1238     1.0  0.98299  0.14640  0.22104  1.0000
  H   H1239     1.0  0.83308  0.05113  0.20643  1.0000
  H   H1240     1.0  0.65053  0.47001  0.22474  1.0000
  H   H1241     1.0  0.99831  0.18788  0.15455  1.0000
  C   C734      1.0  0.98732  0.33155  0.21867  1.0000
  C   C735      1.0  0.63785  0.26893  0.99247  1.0000
  S   S222      1.0  0.65435  0.34661  0.22638  1.0000
  H   H1242     1.0  0.63926  0.23758  0.03959  1.0000
  H   H1243     1.0  0.76035  0.02456  0.20625  1.0000
  H   H1244     1.0  0.59970  0.42172  0.15750  1.0000
  C   C736      1.0  0.76401  0.03285  0.22076  1.0000
  H   H1245     1.0  0.59412  0.25733  0.03089  1.0000
  H   H1246     1.0  0.77831  0.45199  0.13622  1.0000
  C   C737      1.0  0.65377  0.20606  0.00715  1.0000
  H   H1247     1.0  0.79518  0.12029  0.20754  1.0000
  C   C738      1.0  0.75173  0.47388  0.07179  1.0000
  H   H1248     1.0  0.98708  0.21823  0.23051  1.0000
  C   C739      1.0  0.75935  0.45131  0.06192  1.0000
  H   H1249     1.0  0.52105  0.28849  0.22890  1.0000
  H   H1250     1.0  0.64171  0.49076  0.00115  1.0000
  N   N50       1.0  0.62802  0.10286  0.14222  1.0000
  C   C740      1.0  0.61676  0.08148  0.15085  1.0000
  C   C741      1.0  0.62111  0.12138  0.15681  1.0000
  C   C742      1.0  0.65354  0.09844  0.14189  1.0000
  C   C743      1.0  0.62017  0.10803  0.12044  1.0000
  C   C744      1.0  0.62447  0.05931  0.14037  1.0000
  C   C745      1.0  0.59534  0.12720  0.15934  1.0000
  C   C746      1.0  0.66871  0.11912  0.14221  1.0000
  C   C747      1.0  0.62802  0.13019  0.10893  1.0000
  H   H1251     1.0  0.61961  0.07852  0.16780  1.0000
  H   H1252     1.0  0.59795  0.08307  0.14963  1.0000
  H   H1253     1.0  0.62935  0.13756  0.15212  1.0000
  H   H1254     1.0  0.62719  0.11664  0.17271  1.0000
  H   H1255     1.0  0.65831  0.08739  0.15565  1.0000
  H   H1256     1.0  0.65944  0.08889  0.12810  1.0000
  H   H1257     1.0  0.62639  0.09435  0.11007  1.0000
  H   H1258     1.0  0.60131  0.10755  0.11986  1.0000
  H   H1259     1.0  0.64278  0.05501  0.14227  1.0000
  H   H1260     1.0  0.61500  0.04500  0.14816  1.0000
  H   H1261     1.0  0.62082  0.05986  0.12362  1.0000
  H   H1262     1.0  0.58783  0.13212  0.14420  1.0000
  H   H1263     1.0  0.58597  0.11308  0.16752  1.0000
  H   H1264     1.0  0.59268  0.14198  0.16931  1.0000
  H   H1265     1.0  0.68682  0.11321  0.13979  1.0000
  H   H1266     1.0  0.66716  0.12679  0.15762  1.0000
  H   H1267     1.0  0.66530  0.13223  0.12970  1.0000
  H   H1268     1.0  0.64489  0.12737  0.10062  1.0000
  H   H1269     1.0  0.62862  0.14460  0.11910  1.0000
  H   H1270     1.0  0.61546  0.13581  0.09719  1.0000
  N   N51       1.0  0.78905  0.32109  0.16117  1.0000
  C   C748      1.0  0.78448  0.31549  0.18418  1.0000
  C   C749      1.0  0.78635  0.29998  0.14953  1.0000
  C   C750      1.0  0.77259  0.33945  0.15315  1.0000
  C   C751      1.0  0.81294  0.32947  0.15793  1.0000
  C   C752      1.0  0.78152  0.33601  0.19810  1.0000
  H   H1271     1.0  0.78758  0.49811  0.06377  1.0000
  C   C753      1.0  0.74707  0.33430  0.15619  1.0000
  C   C754      1.0  0.82219  0.33277  0.13508  1.0000
  H   H1272     1.0  0.76905  0.30521  0.18705  1.0000
  H   H1273     1.0  0.79869  0.30455  0.19059  1.0000
  H   H1274     1.0  0.78733  0.30391  0.13236  1.0000
  H   H1275     1.0  0.76915  0.29312  0.15306  1.0000
  H   H1276     1.0  0.77516  0.35577  0.16036  1.0000
  H   H1277     1.0  0.77570  0.34318  0.13612  1.0000
  H   H1278     1.0  0.81434  0.34598  0.16513  1.0000
  H   H1279     1.0  0.82529  0.31783  0.16611  1.0000
  H   H1280     1.0  0.82537  0.43349  0.22532  1.0000
  C   C755      1.0  0.82352  0.03799  0.21576  1.0000
  H   H1281     1.0  0.77536  0.11206  0.22820  1.0000
  H   H1282     1.0  0.78077  0.32969  0.21473  1.0000
  C   C756      1.0  0.61411  0.23783  0.00756  1.0000
  H   H1283     1.0  0.75232  0.45323  0.10704  1.0000
  H   H1284     1.0  0.74245  0.32084  0.14598  1.0000
  H   H1285     1.0  0.73682  0.34988  0.15152  1.0000
  H   H1286     1.0  0.74180  0.32952  0.17259  1.0000
  H   H1287     1.0  0.79599  0.34744  0.19591  1.0000
  H   H1288     1.0  0.80104  0.36997  0.23329  1.0000
  H   H1289     1.0  0.81154  0.34498  0.12572  1.0000
  N   N52       1.0  0.95292  0.17284  0.15781  1.0000
  C   C757      1.0  0.97284  0.16567  0.17094  1.0000
  C   C758      1.0  0.93539  0.15496  0.16174  1.0000
  C   C759      1.0  0.94321  0.19513  0.16554  1.0000
  C   C760      1.0  0.96121  0.17548  0.13518  1.0000
  H   H1290     1.0  0.67037  0.28102  0.00285  1.0000
  C   C761      1.0  0.94395  0.13041  0.15747  1.0000
  C   C762      1.0  0.92170  0.20535  0.15533  1.0000
  C   C763      1.0  0.94380  0.17170  0.11862  1.0000
  H   H1291     1.0  0.96682  0.16254  0.18753  1.0000
  H   H1292     1.0  0.98101  0.14931  0.16602  1.0000
  H   H1293     1.0  0.92023  0.15873  0.15237  1.0000
  H   H1294     1.0  0.92861  0.15479  0.17829  1.0000
  H   H1295     1.0  0.93915  0.19342  0.18268  1.0000
  H   H1296     1.0  0.95588  0.20862  0.16323  1.0000
  H   H1297     1.0  0.96800  0.19269  0.13159  1.0000
  H   H1298     1.0  0.97591  0.16344  0.13180  1.0000
  S   S223      1.0  0.89092  0.12885  0.23397  1.0000
  C   C764      1.0  0.75586  0.38426  0.23784  1.0000
  S   S224      1.0  0.58203  0.31470  0.99008  1.0000
  H   H1299     1.0  0.92922  0.11962  0.15571  1.0000
  H   H1300     1.0  0.95525  0.12943  0.14320  1.0000
  H   H1301     1.0  0.57782  0.24427  0.01272  1.0000
  H   H1302     1.0  0.91541  0.22036  0.16397  1.0000
  H   H1303     1.0  0.90744  0.19359  0.15623  1.0000
  H   H1304     1.0  0.92560  0.21189  0.13910  1.0000
  H   H1305     1.0  0.93975  0.15354  0.11821  1.0000
  H   H1306     1.0  0.95137  0.17679  0.10294  1.0000
  H   H1307     1.0  0.92767  0.18178  0.12074  1.0000
  N   N53       1.0  0.60561  0.38086  0.13445  1.0000
  C   C765      1.0  0.60463  0.36610  0.11604  1.0000
  C   C766      1.0  0.63028  0.38119  0.13972  1.0000
  C   C767      1.0  0.59698  0.40455  0.12779  1.0000
  C   C768      1.0  0.59067  0.37066  0.15206  1.0000
  C   C769      1.0  0.58172  0.36671  0.10527  1.0000
  C   C770      1.0  0.64118  0.35824  0.14755  1.0000
  C   C771      1.0  0.60379  0.42431  0.14061  1.0000
  C   C772      1.0  0.59153  0.38074  0.17360  1.0000
  H   H1308     1.0  0.61785  0.37079  0.10367  1.0000
  H   H1309     1.0  0.60855  0.34794  0.12062  1.0000
  H   H1310     1.0  0.63310  0.39328  0.15179  1.0000
  H   H1311     1.0  0.64068  0.38757  0.12580  1.0000
  H   H1312     1.0  0.60325  0.40914  0.11147  1.0000
  H   H1313     1.0  0.57803  0.40539  0.12762  1.0000
  H   H1314     1.0  0.63242  0.35145  0.16216  1.0000
  H   H1315     1.0  0.59402  0.35195  0.15424  1.0000
  H   H1316     1.0  0.56736  0.36154  0.11612  1.0000
  H   H1317     1.0  0.57774  0.38365  0.09758  1.0000
  H   H1318     1.0  0.68068  0.40925  0.23518  1.0000
  H   H1319     1.0  0.78158  0.44902  0.09953  1.0000
  C   C773      1.0  0.75417  0.50179  0.09789  1.0000
  C   C774      1.0  0.77468  0.05590  0.21477  1.0000
  C   C775      1.0  0.80144  0.08553  0.21943  1.0000
  H   H1320     1.0  0.83643  0.02513  0.22147  1.0000
  H   H1321     1.0  0.78277  0.05509  0.19880  1.0000
  C   C776      1.0  0.80346  0.28002  0.15439  1.0000
  H   H1322     1.0  0.81448  0.09179  0.22939  1.0000
  C   C777      1.0  0.76865  0.46213  0.10478  1.0000
  H   H1323     1.0  0.74776  0.03519  0.23015  1.0000
  S   S225      1.0  0.62496  0.10701  0.22138  1.0000
  C   C778      1.0  0.78498  0.10592  0.21420  1.0000
  Fe  Fe110     1.0  0.85531  0.11605  0.23638  1.0000
  H   H1324     1.0  0.63833  0.19723  0.00328  1.0000
  H   H1325     1.0  0.60334  0.06296  0.22395  1.0000
  H   H1326     1.0  0.76003  0.06817  0.21244  1.0000
  H   H1327     1.0  0.76233  0.36689  0.23437  1.0000
  H   H1328     1.0  0.79828  0.47143  0.07267  1.0000
  C   C779      1.0  0.80643  0.49780  0.09185  1.0000
  H   H1329     1.0  0.77321  0.10211  0.20206  1.0000
  N   N54       1.0  0.63745  0.24768  0.00673  1.0000
  H   H1330     1.0  0.66969  0.44798  0.21531  1.0000
  H   H1331     1.0  0.64377  0.44093  0.22936  1.0000
  C   C780      1.0  0.80999  0.04770  0.23470  1.0000
  Fe  Fe111     1.0  0.86933  0.34460  0.23398  1.0000
  N   N55       1.0  0.79075  0.06461  0.22971  1.0000
  H   H1332     1.0  0.77542  0.02051  0.22911  1.0000
  H   H1333     1.0  0.66861  0.19599  0.00063  1.0000
  H   H1334     1.0  0.79334  0.40909  0.22409  1.0000
  H   H1335     1.0  0.75867  0.39590  0.22388  1.0000
  C   C781      1.0  0.77449  0.46803  0.12690  1.0000
  C   C782      1.0  0.93316  0.41261  0.22737  1.0000
  C   C783      1.0  0.65397  0.23045  0.99704  1.0000
  H   H1336     1.0  0.98724  0.19751  0.17962  1.0000
  C   C784      1.0  0.82318  0.41973  0.23772  1.0000
  H   H1337     1.0  0.67186  0.23584  0.99743  1.0000
  C   C785      1.0  0.66151  0.27919  0.98830  1.0000
  Fe  Fe112     1.0  0.79223  0.02946  0.35405  1.0000
  H   H1338     1.0  0.68292  0.07108  0.26375  1.0000
  S   S226      1.0  0.82211  0.03128  0.33040  1.0000
  Fe  Fe113     1.0  0.76932  0.04984  0.39219  1.0000
  S   S227      1.0  0.74250  0.02365  0.39516  1.0000
  S   S228      1.0  0.76810  0.07775  0.41499  1.0000
  H   H1339     1.0  0.58116  0.01514  0.35781  1.0000
  Fe  Fe114     1.0  0.74063  0.02899  0.36030  1.0000
  S   S229      1.0  0.70906  0.03016  0.34063  1.0000
  H   H1340     1.0  0.75123  0.03214  0.43963  1.0000
  S   S230      1.0  0.76525  0.05721  0.35783  1.0000
  Fe  Fe115     1.0  0.62462  0.36045  0.29920  1.0000
  S   S231      1.0  0.64560  0.33200  0.28540  1.0000
  S   S232      1.0  0.63995  0.38304  0.32239  1.0000
  Fe  Fe116     1.0  0.58216  0.35000  0.27490  1.0000
  S   S233      1.0  0.60130  0.32124  0.25916  1.0000
  S   S234      1.0  0.54674  0.35528  0.26165  1.0000
  Fe  Fe117     1.0  0.61420  0.31142  0.29063  1.0000
  S   S235      1.0  0.61583  0.27548  0.30536  1.0000
  Fe  Fe118     1.0  0.63060  0.34453  0.25523  1.0000
  H   H1341     1.0  0.69427  0.16201  0.27328  1.0000
  S   S236      1.0  0.59379  0.33897  0.30692  1.0000
  S   S237      1.0  0.61097  0.37421  0.26859  1.0000
  Fe  Fe119     1.0  0.61054  0.11654  0.29701  1.0000
  S   S238      1.0  0.61913  0.13928  0.26875  1.0000
  S   S239      1.0  0.63599  0.11143  0.32272  1.0000
  Fe  Fe120     1.0  0.56256  0.10890  0.28250  1.0000
  S   S240      1.0  0.56832  0.13013  0.25268  1.0000
  S   S241      1.0  0.52908  0.09439  0.29605  1.0000
  H   H1342     1.0  0.66455  0.10398  0.28309  1.0000
  H   H1343     1.0  0.82272  0.37454  0.25033  1.0000
  Fe  Fe121     1.0  0.58386  0.15491  0.27263  1.0000
  S   S242      1.0  0.57300  0.19186  0.26541  1.0000
  S   S243      1.0  0.59650  0.08913  0.27916  1.0000
  S   S244      1.0  0.57630  0.13466  0.30258  1.0000
  Fe  Fe122     1.0  0.81761  0.43423  0.34220  1.0000
  S   S245      1.0  0.78958  0.45988  0.33478  1.0000
  S   S246      1.0  0.84710  0.43259  0.31816  1.0000
  Fe  Fe123     1.0  0.79302  0.41831  0.38289  1.0000
  S   S247      1.0  0.76307  0.44282  0.37794  1.0000
  S   S248      1.0  0.79056  0.39204  0.41006  1.0000
  Fe  Fe124     1.0  0.76529  0.43215  0.34463  1.0000
  S   S249      1.0  0.74044  0.42046  0.32107  1.0000
  Fe  Fe125     1.0  0.79028  0.46817  0.36860  1.0000
  H   H1344     1.0  0.73711  0.38337  0.24080  1.0000
  S   S250      1.0  0.79371  0.40619  0.35035  1.0000
  S   S251      1.0  0.81990  0.44406  0.37535  1.0000
  H   H1345     1.0  0.72539  0.31714  0.36207  1.0000
  C   C786      1.0  0.85833  0.36792  0.28227  1.0000
  C   C787      1.0  0.84792  0.36687  0.30242  1.0000
  C   C788      1.0  0.84422  0.38665  0.31351  1.0000
  C   C789      1.0  0.85144  0.40752  0.30469  1.0000
  C   C790      1.0  0.86217  0.40852  0.28464  1.0000
  C   C791      1.0  0.86524  0.38883  0.27330  1.0000
  H   H1346     1.0  0.84264  0.35070  0.30946  1.0000
  H   H1347     1.0  0.83623  0.38568  0.32905  1.0000
  H   H1348     1.0  0.86770  0.42466  0.27775  1.0000
  C   C792      1.0  0.79809  0.35183  0.26357  1.0000
  H   H1349     1.0  0.97637  0.40316  0.46398  1.0000
  C   C793      1.0  0.60517  0.25219  0.29325  1.0000
  C   C794      1.0  0.60752  0.23027  0.30289  1.0000
  C   C795      1.0  0.59848  0.21146  0.29412  1.0000
  C   C796      1.0  0.58678  0.21450  0.27573  1.0000
  C   C797      1.0  0.58469  0.23636  0.26594  1.0000
  C   C798      1.0  0.59392  0.25512  0.27459  1.0000
  H   H1350     1.0  0.61623  0.22788  0.31731  1.0000
  H   H1351     1.0  0.60013  0.19473  0.30184  1.0000
  C   C799      1.0  0.63761  0.44995  0.27315  1.0000
  H   H1352     1.0  0.59214  0.27185  0.26695  1.0000
  C   C800      1.0  0.71343  0.40765  0.32356  1.0000
  C   C801      1.0  0.69694  0.41319  0.33914  1.0000
  C   C802      1.0  0.67485  0.40467  0.33906  1.0000
  C   C803      1.0  0.66894  0.39041  0.32352  1.0000
  C   C804      1.0  0.68573  0.38409  0.30845  1.0000
  C   C805      1.0  0.70774  0.39286  0.30836  1.0000
  H   H1353     1.0  0.70087  0.42485  0.35071  1.0000
  H   H1354     1.0  0.66199  0.40980  0.35072  1.0000
  H   H1355     1.0  0.68150  0.37312  0.29641  1.0000
  H   H1356     1.0  0.72028  0.38849  0.29618  1.0000
  C   C806      1.0  0.68894  0.05298  0.33589  1.0000
  C   C807      1.0  0.68870  0.07297  0.34660  1.0000
  C   C808      1.0  0.67232  0.09059  0.34240  1.0000
  C   C809      1.0  0.65623  0.08863  0.32724  1.0000
  C   C810      1.0  0.65654  0.06872  0.31638  1.0000
  C   C811      1.0  0.67268  0.05092  0.32085  1.0000
  H   H1357     1.0  0.70101  0.07475  0.35828  1.0000
  H   H1358     1.0  0.67218  0.10588  0.35096  1.0000
  H   H1359     1.0  0.64443  0.06700  0.30454  1.0000
  H   H1360     1.0  0.67275  0.03552  0.31246  1.0000
  C   C812      1.0  0.82303  0.05337  0.31080  1.0000
  C   C813      1.0  0.84163  0.05412  0.29619  1.0000
  C   C814      1.0  0.84368  0.07249  0.28135  1.0000
  C   C815      1.0  0.82723  0.09029  0.28128  1.0000
  C   C816      1.0  0.80845  0.08936  0.29566  1.0000
  C   C817      1.0  0.80622  0.07084  0.31021  1.0000
  H   H1361     1.0  0.85469  0.04062  0.29657  1.0000
  H   H1362     1.0  0.85824  0.07313  0.27033  1.0000
  H   H1363     1.0  0.79568  0.10312  0.29563  1.0000
  H   H1364     1.0  0.79173  0.07030  0.32120  1.0000
  C   C818      1.0  0.84905  0.38300  0.45467  1.0000
  C   C819      1.0  0.83092  0.36830  0.45649  1.0000
  C   C820      1.0  0.81326  0.37099  0.44249  1.0000
  C   C821      1.0  0.81353  0.38849  0.42673  1.0000
  C   C822      1.0  0.83170  0.40314  0.42493  1.0000
  C   C823      1.0  0.84943  0.40036  0.43881  1.0000
  H   H1365     1.0  0.83052  0.35479  0.46861  1.0000
  H   H1366     1.0  0.79930  0.35953  0.44395  1.0000
  H   H1367     1.0  0.83209  0.41669  0.41290  1.0000
  C   C824      1.0  0.83134  0.09714  0.44755  1.0000
  C   C825      1.0  0.81004  0.10755  0.45229  1.0000
  C   C826      1.0  0.79076  0.10128  0.44229  1.0000
  C   C827      1.0  0.79256  0.08432  0.42779  1.0000
  C   C828      1.0  0.81370  0.07325  0.42368  1.0000
  C   C829      1.0  0.83308  0.07984  0.43338  1.0000
  H   H1368     1.0  0.80863  0.12112  0.46298  1.0000
  H   H1369     1.0  0.77445  0.10991  0.44552  1.0000
  H   H1370     1.0  0.81526  0.06000  0.41274  1.0000
  H   H1371     1.0  0.75118  0.11702  0.26463  1.0000
  C   C830      1.0  0.80393  0.37329  0.24980  1.0000
  C   C831      1.0  0.79917  0.40054  0.27718  1.0000
  H   H1372     1.0  0.76545  0.03809  0.26156  1.0000
  H   H1373     1.0  0.76324  0.00882  0.45466  1.0000
  H   H1374     1.0  0.73538  0.07698  0.30895  1.0000
  C   C832      1.0  0.67811  0.40253  0.25158  1.0000
  H   H1375     1.0  0.91237  0.36132  0.27712  1.0000
  C   C833      1.0  0.92373  0.35035  0.26743  1.0000
  H   H1376     1.0  0.55429  0.01781  0.37087  1.0000
  H   H1377     1.0  0.84956  0.07176  0.42968  1.0000
  H   H1378     1.0  0.76082  0.38167  0.27099  1.0000
  H   H1379     1.0  0.57588  0.23880  0.25159  1.0000
  H   H1380     1.0  0.99521  0.38503  0.27067  1.0000
  H   H1381     1.0  0.53363  0.31238  0.30976  1.0000
  C   C834      1.0  0.57477  0.10262  0.35680  1.0000
  C   C835      1.0  0.77379  0.05297  0.26697  1.0000
  S   S252      1.0  0.85630  0.10746  0.45688  1.0000
  N   N56       1.0  0.94997  0.38351  0.25462  1.0000
  H   H1382     1.0  0.60137  0.03123  0.33294  1.0000
  H   H1383     1.0  0.55472  0.30888  0.28842  1.0000
  N   N57       1.0  0.84066  0.10061  0.36200  1.0000
  C   C836      1.0  0.85573  0.08343  0.37370  1.0000
  C   C837      1.0  0.84337  0.12328  0.37116  1.0000
  C   C838      1.0  0.84914  0.10153  0.33936  1.0000
  C   C839      1.0  0.81653  0.09267  0.36440  1.0000
  C   C840      1.0  0.85698  0.05911  0.36584  1.0000
  C   C841      1.0  0.83565  0.12478  0.39437  1.0000
  C   C842      1.0  0.84226  0.12283  0.32571  1.0000
  C   C843      1.0  0.79724  0.10939  0.35717  1.0000
  H   H1384     1.0  0.87355  0.08926  0.37350  1.0000
  H   H1385     1.0  0.84996  0.08152  0.39041  1.0000
  H   H1386     1.0  0.83408  0.13730  0.36262  1.0000
  H   H1387     1.0  0.86157  0.12802  0.36948  1.0000
  H   H1388     1.0  0.86814  0.10034  0.33805  1.0000
  H   H1389     1.0  0.84351  0.08664  0.33144  1.0000
  H   H1390     1.0  0.81490  0.07713  0.35564  1.0000
  H   H1391     1.0  0.81203  0.08675  0.38079  1.0000
  H   H1392     1.0  0.86909  0.04842  0.37524  1.0000
  H   H1393     1.0  0.84031  0.05096  0.36796  1.0000
  H   H1394     1.0  0.86334  0.05852  0.34932  1.0000
  H   H1395     1.0  0.84768  0.11525  0.40469  1.0000
  H   H1396     1.0  0.83567  0.14278  0.39859  1.0000
  H   H1397     1.0  0.81810  0.11895  0.39782  1.0000
  H   H1398     1.0  0.85095  0.13807  0.33011  1.0000
  H   H1399     1.0  0.82365  0.12627  0.32590  1.0000
  H   H1400     1.0  0.84798  0.12012  0.30925  1.0000
  H   H1401     1.0  0.79331  0.10674  0.34081  1.0000
  H   H1402     1.0  0.80042  0.12748  0.35875  1.0000
  H   H1403     1.0  0.78159  0.10621  0.36724  1.0000
  C   C844      1.0  0.67724  0.08731  0.25569  1.0000
  H   H1404     1.0  0.92374  0.41955  0.29079  1.0000
  H   H1405     1.0  0.80403  0.03269  0.24428  1.0000
  H   H1406     1.0  0.97325  0.06164  0.25005  1.0000
  H   H1407     1.0  0.56556  0.05933  0.30807  1.0000
  H   H1408     1.0  0.68893  0.44634  0.24531  1.0000
  C   C845      1.0  0.57347  0.04348  0.31503  1.0000
  H   H1409     1.0  0.60227  0.06927  0.37642  1.0000
  S   S253      1.0  0.82973  0.11442  0.26409  1.0000
  C   C846      1.0  0.80523  0.04161  0.47433  1.0000
  H   H1410     1.0  0.92352  0.38936  0.29705  1.0000
  H   H1411     1.0  0.80349  0.35299  0.27973  1.0000
  C   C847      1.0  0.67711  0.10763  0.26985  1.0000
  H   H1412     1.0  0.90766  0.41276  0.46010  1.0000
  C   C848      1.0  0.97322  0.38570  0.24361  1.0000
  H   H1413     1.0  0.93096  0.22977  0.48168  1.0000
  C   C849      1.0  0.59323  0.04807  0.32890  1.0000
  C   C850      1.0  0.72814  0.09415  0.30428  1.0000
  H   H1414     1.0  0.97371  0.03311  0.24251  1.0000
  C   C851      1.0  0.95964  0.36489  0.48213  1.0000
  N   N58       1.0  0.58681  0.06127  0.34790  1.0000
  H   H1415     1.0  0.56794  0.11870  0.34919  1.0000
  H   H1416     1.0  0.63745  0.04727  0.37392  1.0000
  H   H1417     1.0  0.52019  0.15019  0.28003  1.0000
  H   H1418     1.0  0.68386  0.12360  0.30701  1.0000
  H   H1419     1.0  0.55063  0.26709  0.29144  1.0000
  C   C852      1.0  0.56771  0.05082  0.36124  1.0000
  H   H1420     1.0  0.91482  0.38698  0.24513  1.0000
  C   C853      1.0  0.52607  0.28898  0.26210  1.0000
  C   C854      1.0  0.76444  0.04263  0.46825  1.0000
  C   C855      1.0  0.67637  0.43946  0.28516  1.0000
  C   C856      1.0  0.53607  0.27775  0.29768  1.0000
  H   H1421     1.0  0.60846  0.44862  0.29546  1.0000
  H   H1422     1.0  0.53884  0.23323  0.28431  1.0000
  H   H1423     1.0  0.67026  0.42829  0.29853  1.0000
  H   H1424     1.0  0.69362  0.43238  0.28057  1.0000
  H   H1425     1.0  0.78760  0.42965  0.24285  1.0000
  H   H1426     1.0  0.68850  0.47460  0.28213  1.0000
  H   H1427     1.0  0.81234  0.44324  0.48139  1.0000
  H   H1428     1.0  0.52563  0.36167  0.30368  1.0000
  H   H1429     1.0  0.69141  0.46034  0.30704  1.0000
  H   H1430     1.0  0.80784  0.33699  0.25719  1.0000
  H   H1431     1.0  0.62574  0.44871  0.26038  1.0000
  N   N59       1.0  0.66062  0.43914  0.26742  1.0000
  H   H1432     1.0  0.66954  0.12236  0.26064  1.0000
  H   H1433     1.0  0.69711  0.08120  0.29577  1.0000
  H   H1434     1.0  0.79270  0.38799  0.28944  1.0000
  H   H1435     1.0  0.51517  0.10466  0.25323  1.0000
  H   H1436     1.0  0.71832  0.10852  0.24832  1.0000
  N   N60       1.0  0.51677  0.27941  0.28296  1.0000
  C   C857      1.0  0.73794  0.13102  0.26405  1.0000
  H   H1437     1.0  0.91635  0.40576  0.43445  1.0000
  H   H1438     1.0  0.76603  0.41521  0.45246  1.0000
  H   H1439     1.0  0.55992  0.29684  0.31377  1.0000
  H   H1440     1.0  0.99719  0.07947  0.26906  1.0000
  C   C858      1.0  0.57116  0.02570  0.36892  1.0000
  H   H1441     1.0  0.75749  0.40967  0.26009  1.0000
  H   H1442     1.0  0.97661  0.40378  0.23900  1.0000
  H   H1443     1.0  0.65371  0.40421  0.27744  1.0000
  H   H1444     1.0  0.79979  0.43817  0.27520  1.0000
  C   C859      1.0  0.93558  0.38675  0.45792  1.0000
  H   H1445     1.0  0.82618  0.48882  0.40399  1.0000
  C   C860      1.0  0.65759  0.41465  0.26278  1.0000
  H   H1446     1.0  0.62185  0.42139  0.29167  1.0000
  H   H1447     1.0  0.78135  0.02880  0.43978  1.0000
  C   C861      1.0  0.96382  0.40566  0.47735  1.0000
  H   H1448     1.0  0.91561  0.34788  0.25255  1.0000
  C   C862      1.0  0.71454  0.12210  0.25945  1.0000
  H   H1449     1.0  0.76245  0.06010  0.27955  1.0000
  H   H1450     1.0  0.71872  0.08087  0.27556  1.0000
  H   H1451     1.0  0.73784  0.14032  0.27849  1.0000
  C   C863      1.0  0.89638  0.24342  0.48052  1.0000
  H   H1452     1.0  0.64254  0.41285  0.25331  1.0000
  H   H1453     1.0  0.63879  0.46852  0.27490  1.0000
  H   H1454     1.0  0.80597  0.05882  0.46644  1.0000
  H   H1455     1.0  0.70876  0.33137  0.34212  1.0000
  H   H1456     1.0  0.53297  0.24326  0.25781  1.0000
  H   H1457     1.0  0.95669  0.34725  0.25255  1.0000
  H   H1458     1.0  0.51638  0.22193  0.27125  1.0000
  H   H1459     1.0  0.66384  0.47086  0.30012  1.0000
  H   H1460     1.0  0.77289  0.42707  0.28526  1.0000
  H   H1461     1.0  0.76597  0.06024  0.46129  1.0000
  C   C864      1.0  0.76549  0.02695  0.44976  1.0000
  H   H1462     1.0  0.78729  0.08490  0.25691  1.0000
  H   H1463     1.0  0.79713  0.42538  0.30086  1.0000
  H   H1464     1.0  0.76690  0.43908  0.46827  1.0000
  C   C865      1.0  0.60749  0.06389  0.36049  1.0000
  H   H1465     1.0  0.69402  0.40347  0.25990  1.0000
  C   C866      1.0  0.54635  0.30044  0.30249  1.0000
  H   H1466     1.0  0.92481  0.33335  0.27580  1.0000
  H   H1467     1.0  0.60645  0.05709  0.31891  1.0000
  H   H1468     1.0  0.95686  0.35663  0.27828  1.0000
  H   H1469     1.0  0.53071  0.30695  0.26324  1.0000
  H   H1470     1.0  0.93405  0.42337  0.44761  1.0000
  C   C867      1.0  0.99384  0.37647  0.25593  1.0000
  H   H1471     1.0  0.91043  0.40239  0.27424  1.0000
  C   C868      1.0  0.51813  0.35536  0.27219  1.0000
  H   H1472     1.0  0.59095  0.10677  0.36359  1.0000
  C   C869      1.0  0.79163  0.42420  0.28470  1.0000
  H   H1473     1.0  0.59086  0.09198  0.32805  1.0000
  H   H1474     1.0  0.89818  0.24702  0.46338  1.0000
  H   H1475     1.0  0.95657  0.32832  0.48715  1.0000
  Fe  Fe126     1.0  0.60328  0.11284  0.25095  1.0000
  H   H1476     1.0  0.87319  0.38981  0.25777  1.0000
  N   N61       1.0  0.94658  0.38731  0.47856  1.0000
  H   H1477     1.0  0.92248  0.42720  0.48777  1.0000
  H   H1478     1.0  0.92260  0.37347  0.45859  1.0000
  S   S254      1.0  0.87098  0.38090  0.47244  1.0000
  N   N62       1.0  0.73698  0.35874  0.37505  1.0000
  C   C870      1.0  0.73845  0.38425  0.37524  1.0000
  C   C871      1.0  0.75653  0.35042  0.36092  1.0000
  C   C872      1.0  0.74026  0.34926  0.39704  1.0000
  C   C873      1.0  0.71386  0.35341  0.36780  1.0000
  C   C874      1.0  0.72082  0.39662  0.38975  1.0000
  C   C875      1.0  0.75574  0.35871  0.33775  1.0000
  C   C876      1.0  0.74009  0.32324  0.40079  1.0000
  C   C877      1.0  0.71130  0.32969  0.35917  1.0000
  H   H1479     1.0  0.75564  0.38889  0.37968  1.0000
  H   H1480     1.0  0.73636  0.39233  0.35944  1.0000
  H   H1481     1.0  0.75820  0.33167  0.36120  1.0000
  H   H1482     1.0  0.77308  0.35559  0.36659  1.0000
  H   H1483     1.0  0.75666  0.35491  0.40265  1.0000
  H   H1484     1.0  0.72661  0.35590  0.40795  1.0000
  H   H1485     1.0  0.70059  0.35534  0.38065  1.0000
  H   H1486     1.0  0.70868  0.36607  0.35520  1.0000
  H   H1487     1.0  0.70306  0.39222  0.38730  1.0000
  H   H1488     1.0  0.72474  0.39358  0.40639  1.0000
  H   H1489     1.0  0.72172  0.41523  0.38626  1.0000
  H   H1490     1.0  0.76894  0.34905  0.32849  1.0000
  H   H1491     1.0  0.73909  0.35619  0.33112  1.0000
  H   H1492     1.0  0.75988  0.37683  0.33538  1.0000
  H   H1493     1.0  0.74342  0.31890  0.41743  1.0000
  H   H1494     1.0  0.75371  0.31422  0.39156  1.0000
  H   H1495     1.0  0.72315  0.31664  0.39822  1.0000
  H   H1496     1.0  0.69553  0.32211  0.36631  1.0000
  H   H1497     1.0  0.86337  0.41183  0.43733  1.0000
  H   H1498     1.0  0.81794  0.39899  0.27769  1.0000
  C   C878      1.0  0.57857  0.08474  0.34017  1.0000
  H   H1499     1.0  0.96079  0.39486  0.28377  1.0000
  S   S255      1.0  0.86258  0.34277  0.26889  1.0000
  C   C879      1.0  0.51235  0.35893  0.29318  1.0000
  C   C880      1.0  0.92518  0.40256  0.28408  1.0000
  H   H1500     1.0  0.71999  0.10096  0.31873  1.0000
  C   C881      1.0  0.62529  0.43959  0.29305  1.0000
  H   H1501     1.0  0.80910  0.03009  0.46141  1.0000
  N   N63       1.0  0.79179  0.39512  0.25601  1.0000
  H   H1502     1.0  0.61810  0.07773  0.35329  1.0000
  H   H1503     1.0  0.83888  0.05020  0.48345  1.0000
  H   H1504     1.0  0.68248  0.16515  0.29916  1.0000
  C   C882      1.0  0.92291  0.40867  0.44994  1.0000
  H   H1505     1.0  0.99367  0.35778  0.25910  1.0000
  C   C883      1.0  0.69515  0.13068  0.29397  1.0000
  C   C884      1.0  0.68395  0.15349  0.28613  1.0000
  H   H1506     1.0  0.82236  0.05548  0.24448  1.0000
  C   C885      1.0  0.94798  0.35928  0.26340  1.0000
  H   H1507     1.0  0.67455  0.38422  0.25098  1.0000
  H   H1508     1.0  0.88815  0.22684  0.48304  1.0000
  H   H1509     1.0  0.56020  0.03328  0.32358  1.0000
  H   H1510     1.0  0.94028  0.34011  0.46628  1.0000
  C   C886      1.0  0.62420  0.04314  0.36317  1.0000
  C   C887      1.0  0.67994  0.46285  0.29381  1.0000
  H   H1511     1.0  0.58029  0.03351  0.30177  1.0000
  H   H1512     1.0  0.56211  0.08417  0.33245  1.0000
  C   C888      1.0  0.67102  0.45242  0.24885  1.0000
  H   H1513     1.0  0.53055  0.26919  0.31292  1.0000
  H   H1514     1.0  0.61596  0.02776  0.36996  1.0000
  H   H1515     1.0  0.56426  0.06030  0.37560  1.0000
  C   C889      1.0  0.76628  0.39296  0.25731  1.0000
  H   H1516     1.0  0.70530  0.13551  0.24988  1.0000
  C   C890      1.0  0.94828  0.39995  0.27182  1.0000
  H   H1517     1.0  0.65949  0.08498  0.25128  1.0000
  H   H1518     1.0  0.74682  0.04227  0.47546  1.0000
  H   H1519     1.0  0.95355  0.41722  0.26611  1.0000
  S   S256      1.0  0.79852  0.02457  0.38831  1.0000
  H   H1520     1.0  0.68753  0.09036  0.24093  1.0000
  H   H1521     1.0  0.55122  0.05272  0.35339  1.0000
  H   H1522     1.0  0.56208  0.09747  0.36933  1.0000
  H   H1523     1.0  0.77980  0.34803  0.26377  1.0000
  C   C891      1.0  0.71049  0.09169  0.28768  1.0000
  H   H1524     1.0  0.94855  0.38205  0.44545  1.0000
  H   H1525     1.0  0.54264  0.28042  0.25732  1.0000
  H   H1526     1.0  0.57921  0.02431  0.38421  1.0000
  H   H1527     1.0  0.66634  0.15149  0.28134  1.0000
  N   N64       1.0  0.69986  0.11325  0.27783  1.0000
  C   C892      1.0  0.52527  0.23782  0.27330  1.0000
  H   H1528     1.0  0.67245  0.47054  0.25235  1.0000
  H   H1529     1.0  0.82929  0.42606  0.25224  1.0000
  H   H1530     1.0  0.63349  0.03932  0.34823  1.0000
  C   C893      1.0  0.77800  0.07162  0.24952  1.0000
  C   C894      1.0  0.79780  0.41373  0.23983  1.0000
  C   C895      1.0  0.77662  0.42363  0.46334  1.0000
  H   H1531     1.0  0.74315  0.14373  0.25144  1.0000
  H   H1532     1.0  0.63478  0.44149  0.30726  1.0000
  H   H1533     1.0  0.82313  0.41571  0.47544  1.0000
  H   H1534     1.0  0.74255  0.10466  0.29864  1.0000
  H   H1535     1.0  0.95600  0.42277  0.47403  1.0000
  H   H1536     1.0  0.71078  0.13498  0.30153  1.0000
  H   H1537     1.0  0.97405  0.36308  0.47026  1.0000
  H   H1538     1.0  0.78991  0.04734  0.27433  1.0000
  H   H1539     1.0  0.77365  0.08587  0.48415  1.0000
  H   H1540     1.0  0.79236  0.42846  0.45414  1.0000
  H   H1541     1.0  0.76106  0.07965  0.24599  1.0000
  H   H1542     1.0  0.79069  0.39158  0.47530  1.0000
  C   C896      1.0  0.98299  0.04508  0.25142  1.0000
  H   H1543     1.0  0.88480  0.25698  0.48681  1.0000
  C   C897      1.0  0.50804  0.25582  0.28195  1.0000
  N   N65       1.0  0.78194  0.03754  0.48439  1.0000
  H   H1544     1.0  0.51134  0.17779  0.27103  1.0000
  C   C898      1.0  0.51035  0.28947  0.24361  1.0000
  H   H1545     1.0  0.98269  0.03846  0.26791  1.0000
  H   H1546     1.0  0.51527  0.17213  0.29843  1.0000
  C   C899      1.0  0.50900  0.16511  0.28422  1.0000
  H   H1547     1.0  0.92766  0.25949  0.48429  1.0000
  C   C900      1.0  0.94569  0.34329  0.48208  1.0000
  C   C901      1.0  0.78173  0.40674  0.48195  1.0000
  H   H1548     1.0  0.93127  0.42632  0.23849  1.0000
  C   C902      1.0  0.93246  0.38880  0.23854  1.0000
  S   S257      1.0  0.81265  0.47955  0.57686  1.0000
  C   C903      1.0  0.78853  0.44161  0.53035  1.0000
  S   S258      1.0  0.83017  0.12166  0.51469  1.0000
  H   H1549     1.0  0.92554  0.41972  0.51508  1.0000
  Fe  Fe127     1.0  0.89240  0.10097  0.52482  1.0000
  S   S259      1.0  0.86687  0.10919  0.55088  1.0000
  S   S260      1.0  0.92848  0.08671  0.52834  1.0000
  Fe  Fe128     1.0  0.84179  0.09032  0.53376  1.0000
  S   S261      1.0  0.81318  0.06665  0.54467  1.0000
  Fe  Fe129     1.0  0.85731  0.13995  0.52991  1.0000
  S   S262      1.0  0.85324  0.17317  0.54681  1.0000
  S   S263      1.0  0.86815  0.07943  0.50956  1.0000
  S   S264      1.0  0.88448  0.13249  0.50495  1.0000
  Fe  Fe130     1.0  0.85195  0.35243  0.54551  1.0000
  S   S265      1.0  0.88343  0.36655  0.52924  1.0000
  S   S266      1.0  0.82935  0.37210  0.56906  1.0000
  Fe  Fe131     1.0  0.85518  0.30893  0.52037  1.0000
  S   S267      1.0  0.88594  0.32134  0.50162  1.0000
  S   S268      1.0  0.84214  0.27577  0.50948  1.0000
  Fe  Fe132     1.0  0.89850  0.33084  0.53212  1.0000
  S   S269      1.0  0.93490  0.31720  0.53560  1.0000
  Fe  Fe133     1.0  0.86825  0.35567  0.50022  1.0000
  H   H1550     1.0  0.98868  0.29172  0.58698  1.0000
  S   S270      1.0  0.86831  0.31706  0.55120  1.0000
  S   S271      1.0  0.83616  0.34289  0.51621  1.0000
  H   H1551     1.0  0.90284  0.27674  0.55182  1.0000
  C   C904      1.0  0.83691  0.42809  0.50222  1.0000
  C   C905      1.0  0.85007  0.20153  0.53607  1.0000
  C   C906      1.0  0.84470  0.20645  0.51531  1.0000
  C   C907      1.0  0.84210  0.22925  0.50756  1.0000
  C   C908      1.0  0.84531  0.24740  0.52027  1.0000
  C   C909      1.0  0.85089  0.24248  0.54098  1.0000
  C   C910      1.0  0.85301  0.21968  0.54887  1.0000
  H   H1552     1.0  0.84230  0.19271  0.50529  1.0000
  H   H1553     1.0  0.00065  0.03843  0.61890  1.0000
  H   H1554     1.0  0.85321  0.25624  0.55100  1.0000
  H   H1555     1.0  0.85707  0.21609  0.56497  1.0000
  C   C911      1.0  0.81097  0.00790  0.59517  1.0000
  C   C912      1.0  0.97339  0.09767  0.52408  1.0000
  C   C913      1.0  0.95098  0.10552  0.52900  1.0000
  C   C914      1.0  0.94716  0.12747  0.53595  1.0000
  C   C915      1.0  0.96574  0.14110  0.53868  1.0000
  C   C916      1.0  0.78039  0.43330  0.50979  1.0000
  C   C917      1.0  0.99459  0.36431  0.53825  1.0000
  H   H1556     1.0  0.92995  0.13363  0.53986  1.0000
  H   H1557     1.0  0.96271  0.15781  0.54462  1.0000
  C   C918      1.0  0.97250  0.37164  0.54492  1.0000
  C   C919      1.0  0.95399  0.35747  0.54394  1.0000
  C   C920      1.0  0.95750  0.33579  0.53640  1.0000
  C   C921      1.0  0.97956  0.32847  0.52961  1.0000
  H   H1558     1.0  0.97798  0.25147  0.51881  1.0000
  H   H1559     1.0  0.96974  0.38829  0.55108  1.0000
  H   H1560     1.0  0.93708  0.36315  0.54941  1.0000
  H   H1561     1.0  0.82099  0.04168  0.50517  1.0000
  H   H1562     1.0  0.92821  0.25927  0.55213  1.0000
  C   C922      1.0  0.81843  0.44959  0.57650  1.0000
  C   C923      1.0  0.80606  0.43389  0.58917  1.0000
  C   C924      1.0  0.80984  0.41030  0.58683  1.0000
  C   C925      1.0  0.82610  0.40203  0.57195  1.0000
  C   C926      1.0  0.83882  0.41773  0.55957  1.0000
  C   C927      1.0  0.83491  0.44132  0.56177  1.0000
  H   H1563     1.0  0.79325  0.43989  0.60048  1.0000
  H   H1564     1.0  0.79994  0.39836  0.59656  1.0000
  H   H1565     1.0  0.85157  0.41168  0.54824  1.0000
  H   H1566     1.0  0.84467  0.45325  0.55195  1.0000
  H   H1567     1.0  0.75207  0.01524  0.51552  1.0000
  C   C928      1.0  0.83071  0.04019  0.57780  1.0000
  C   C929      1.0  0.81359  0.04341  0.56352  1.0000
  C   C930      1.0  0.79535  0.02859  0.56495  1.0000
  H   H1568     1.0  0.78910  0.36999  0.53595  1.0000
  H   H1569     1.0  0.84480  0.05149  0.57696  1.0000
  H   H1570     1.0  0.78185  0.03105  0.55417  1.0000
  H   H1571     1.0  0.81323  0.40016  0.52536  1.0000
  H   H1572     1.0  0.94727  0.07483  0.56957  1.0000
  H   H1573     1.0  0.77184  0.37417  0.51398  1.0000
  H   H1574     1.0  0.82931  0.47991  0.49421  1.0000
  H   H1575     1.0  0.83134  0.13840  0.61475  1.0000
  C   C931      1.0  0.80185  0.39559  0.51318  1.0000
  H   H1576     1.0  0.86260  0.49912  0.55165  1.0000
  H   H1577     1.0  0.78518  0.04653  0.51643  1.0000
  H   H1578     1.0  0.96758  0.36400  0.49748  1.0000
  H   H1579     1.0  0.91717  0.27593  0.51591  1.0000
  H   H1580     1.0  0.81212  0.38291  0.50412  1.0000
  C   C932      1.0  0.98724  0.05214  0.62020  1.0000
  C   C933      1.0  0.78148  0.01317  0.49275  1.0000
  H   H1581     1.0  0.99244  0.26117  0.59078  1.0000
  C   C934      1.0  0.82105  0.49550  0.50056  1.0000
  H   H1582     1.0  0.98970  0.27947  0.61242  1.0000
  H   H1583     1.0  0.75804  0.05273  0.50696  1.0000
  H   H1584     1.0  0.99244  0.11268  0.58554  1.0000
  C   C935      1.0  0.92020  0.24300  0.48964  1.0000
  H   H1585     1.0  0.79376  0.01001  0.50532  1.0000
  H   H1586     1.0  0.98268  0.05342  0.63709  1.0000
  H   H1587     1.0  0.82480  0.49237  0.53349  1.0000
  H   H1588     1.0  0.95382  0.22191  0.50988  1.0000
  H   H1589     1.0  0.96655  0.40743  0.51149  1.0000
  C   C936      1.0  0.94523  0.23579  0.51878  1.0000
  H   H1590     1.0  0.77625  0.08771  0.51158  1.0000
  H   H1591     1.0  0.80040  0.45569  0.52754  1.0000
  Fe  Fe134     1.0  0.85817  0.11152  0.49151  1.0000
  H   H1592     1.0  0.90907  0.21559  0.53792  1.0000
  H   H1593     1.0  0.83238  0.43690  0.51662  1.0000
  H   H1594     1.0  0.84504  0.41113  0.50620  1.0000
  H   H1595     1.0  0.95287  0.07862  0.59604  1.0000
  H   H1596     1.0  0.95468  0.27075  0.52472  1.0000
  C   C937      1.0  0.98820  0.13304  0.53422  1.0000
  C   C938      1.0  0.77651  0.05286  0.50216  1.0000
  H   H1597     1.0  0.85038  0.15073  0.59515  1.0000
  H   H1598     1.0  0.76267  0.42755  0.51299  1.0000
  C   C939      1.0  0.96029  0.25658  0.51480  1.0000
  C   C940      1.0  0.97757  0.40724  0.49699  1.0000
  H   H1599     1.0  0.90418  0.18266  0.51754  1.0000
  C   C941      1.0  0.75821  0.00532  0.50205  1.0000
  C   C942      1.0  0.95971  0.08166  0.57979  1.0000
  H   H1600     1.0  0.85014  0.43799  0.49319  1.0000
  H   H1601     1.0  0.93070  0.34386  0.49324  1.0000
  N   N66       1.0  0.79975  0.12386  0.58554  1.0000
  C   C943      1.0  0.78985  0.12178  0.56455  1.0000
  C   C944      1.0  0.80770  0.10027  0.59313  1.0000
  C   C945      1.0  0.81971  0.13925  0.58237  1.0000
  C   C946      1.0  0.78141  0.13402  0.59984  1.0000
  C   C947      1.0  0.78342  0.14435  0.55241  1.0000
  C   C948      1.0  0.78888  0.08290  0.59748  1.0000
  C   C949      1.0  0.83823  0.13689  0.59856  1.0000
  C   C950      1.0  0.78679  0.13533  0.62294  1.0000
  H   H1602     1.0  0.80206  0.11228  0.55412  1.0000
  H   H1603     1.0  0.77415  0.11181  0.56600  1.0000
  H   H1604     1.0  0.81694  0.10032  0.60768  1.0000
  H   H1605     1.0  0.82047  0.09303  0.58161  1.0000
  H   H1606     1.0  0.82897  0.13636  0.56715  1.0000
  H   H1607     1.0  0.81379  0.15747  0.58135  1.0000
  H   H1608     1.0  0.77698  0.15182  0.59436  1.0000
  H   H1609     1.0  0.76502  0.12533  0.59918  1.0000
  H   H1610     1.0  0.76978  0.15433  0.56075  1.0000
  H   H1611     1.0  0.79837  0.15499  0.54860  1.0000
  H   H1612     1.0  0.77671  0.14036  0.53726  1.0000
  H   H1613     1.0  0.79670  0.06668  0.60396  1.0000
  H   H1614     1.0  0.77571  0.08858  0.60924  1.0000
  H   H1615     1.0  0.78083  0.07873  0.58304  1.0000
  C   C951      1.0  0.90789  0.21874  0.52078  1.0000
  H   H1616     1.0  0.93565  0.38283  0.51111  1.0000
  H   H1617     1.0  0.85117  0.49348  0.51870  1.0000
  H   H1618     1.0  0.79514  0.15143  0.62549  1.0000
  H   H1619     1.0  0.79731  0.12076  0.62911  1.0000
  H   H1620     1.0  0.77061  0.13480  0.63268  1.0000
  C   C952      1.0  0.98317  0.06952  0.57564  1.0000
  H   H1621     1.0  0.94629  0.22986  0.53548  1.0000
  C   C953      1.0  0.99195  0.11142  0.52652  1.0000
  H   H1622     1.0  0.84228  0.02064  0.60497  1.0000
  H   H1623     1.0  0.77804  0.44885  0.49936  1.0000
  H   H1624     1.0  0.98227  0.31181  0.52353  1.0000
  H   H1625     1.0  0.98254  0.08864  0.61523  1.0000
  N   N67       1.0  0.92076  0.23938  0.51303  1.0000
  C   C954      1.0  0.90972  0.26000  0.52284  1.0000
  H   H1626     1.0  0.96010  0.10020  0.57592  1.0000
  C   C955      1.0  0.91059  0.26032  0.54677  1.0000
  C   C956      1.0  0.78224  0.07805  0.49787  1.0000
  H   H1627     1.0  0.98087  0.05089  0.57797  1.0000
  H   H1628     1.0  0.97642  0.08076  0.51856  1.0000
  H   H1629     1.0  0.90041  0.24677  0.55490  1.0000
  C   C957      1.0  0.78195  0.38317  0.52477  1.0000
  H   H1630     1.0  0.91403  0.37922  0.49369  1.0000
  H   H1631     1.0  0.84837  0.12066  0.59726  1.0000
  H   H1632     1.0  0.77355  0.44791  0.53995  1.0000
  H   H1633     1.0  0.77073  0.39479  0.53407  1.0000
  H   H1634     1.0  0.89137  0.26181  0.51951  1.0000
  H   H1635     1.0  0.98738  0.07248  0.55869  1.0000
  H   H1636     1.0  0.90033  0.41362  0.50285  1.0000
  C   C958      1.0  0.91917  0.41406  0.50033  1.0000
  H   H1637     1.0  0.96108  0.26279  0.49820  1.0000
  C   C959      1.0  0.79416  0.01077  0.58053  1.0000
  N   N68       1.0  0.79525  0.41567  0.49887  1.0000
  H   H1638     1.0  0.79625  0.42798  0.54047  1.0000
  H   H1639     1.0  0.88947  0.22158  0.51836  1.0000
  C   C960      1.0  0.82924  0.02269  0.59367  1.0000
  H   H1640     1.0  0.97169  0.04714  0.61289  1.0000
  H   H1641     1.0  0.80090  0.08024  0.49583  1.0000
  H   H1642     1.0  0.83768  0.23286  0.49155  1.0000
  C   C961      1.0  0.92878  0.38978  0.49616  1.0000
  C   C962      1.0  0.91566  0.19615  0.51111  1.0000
  H   H1643     1.0  0.99067  0.39319  0.49839  1.0000
  H   H1644     1.0  0.99670  0.27277  0.55545  1.0000
  H   H1645     1.0  0.78070  0.50264  0.69514  1.0000
  C   C963      1.0  0.99712  0.27778  0.59630  1.0000
  C   C964      1.0  0.99578  0.07529  0.61124  1.0000
  C   C965      1.0  0.99804  0.34277  0.53034  1.0000
  H   H1646     1.0  0.93316  0.19055  0.51529  1.0000
  H   H1647     1.0  0.80321  0.49113  0.50509  1.0000
  H   H1648     1.0  0.98697  0.42326  0.49576  1.0000
  H   H1649     1.0  0.91447  0.19687  0.49395  1.0000
  H   H1650     1.0  0.74510  0.00606  0.49022  1.0000
  N   N69       1.0  0.00227  0.07677  0.58822  1.0000
  C   C966      1.0  0.83368  0.50147  0.51994  1.0000
  C   C967      1.0  0.81640  0.42601  0.48856  1.0000
  S   S272      1.0  0.78604  0.50369  0.63466  1.0000
  H   H1651     1.0  0.83285  0.02048  0.48828  1.0000
  H   H1652     1.0  0.76493  0.40074  0.48834  1.0000
  C   C968      1.0  0.82547  0.03810  0.48873  1.0000
  Fe  Fe135     1.0  0.59790  0.08776  0.93667  1.0000
  S   S273      1.0  0.57751  0.07535  0.96521  1.0000
  S   S274      1.0  0.60131  0.06610  0.90820  1.0000
  Fe  Fe136     1.0  0.60851  0.13210  0.95655  1.0000
  H   H1653     1.0  0.65880  0.09084  0.91570  1.0000
  S   S275      1.0  0.62755  0.16502  0.94965  1.0000
  C   C969      1.0  0.67536  0.12036  0.92495  1.0000
  H   H1654     1.0  0.65947  0.29651  0.98074  1.0000
  Fe  Fe137     1.0  0.56294  0.11092  0.96668  1.0000
  C   C970      1.0  0.55902  0.40081  0.93879  1.0000
  S   S276      1.0  0.62732  0.09787  0.95433  1.0000
  S   S277      1.0  0.58058  0.12278  0.93638  1.0000
  Fe  Fe138     1.0  0.59154  0.30123  0.95862  1.0000
  C   C971      1.0  0.55131  0.41026  0.95995  1.0000
  S   S278      1.0  0.58053  0.26453  0.95651  1.0000
  Fe  Fe139     1.0  0.60531  0.34956  0.94121  1.0000
  S   S279      1.0  0.59677  0.36526  0.97174  1.0000
  S   S280      1.0  0.61587  0.37138  0.91198  1.0000
  H   H1655     1.0  0.68585  0.12988  0.87689  1.0000
  C   C972      1.0  0.61469  0.13531  0.88437  1.0000
  Fe  Fe140     1.0  0.56543  0.34441  0.97266  1.0000
  H   H1656     1.0  0.55392  0.41173  0.88631  1.0000
  S   S281      1.0  0.62486  0.31902  0.95520  1.0000
  S   S282      1.0  0.57290  0.33020  0.94146  1.0000
  S   S283      1.0  0.64849  0.47387  0.91011  1.0000
  C   C973      1.0  0.50857  0.34829  0.94795  1.0000
  H   H1657     1.0  0.56586  0.37213  0.88307  1.0000
  H   H1658     1.0  0.55575  0.38233  0.94034  1.0000
  H   H1659     1.0  0.52515  0.34344  0.94125  1.0000
  C   C974      1.0  0.62558  0.39965  0.91167  1.0000
  C   C975      1.0  0.62768  0.41082  0.93004  1.0000
  C   C976      1.0  0.63482  0.43342  0.92914  1.0000
  C   C977      1.0  0.64008  0.44519  0.90993  1.0000
  C   C978      1.0  0.63799  0.43403  0.89152  1.0000
  C   C979      1.0  0.63073  0.41142  0.89242  1.0000
  H   H1660     1.0  0.62391  0.40205  0.94498  1.0000
  H   H1661     1.0  0.63642  0.44181  0.94349  1.0000
  H   H1662     1.0  0.64193  0.44282  0.87662  1.0000
  H   H1663     1.0  0.62919  0.40297  0.87810  1.0000
  H   H1664     1.0  0.57521  0.46418  0.91739  1.0000
  C   C980      1.0  0.57553  0.44532  0.91754  1.0000
  N   N70       1.0  0.54803  0.41193  0.91991  1.0000
  H   H1665     1.0  0.52219  0.10134  0.93608  1.0000
  C   C981      1.0  0.50647  0.35624  0.96808  1.0000
  C   C982      1.0  0.61424  0.19264  0.95122  1.0000
  C   C983      1.0  0.62715  0.21198  0.94624  1.0000
  C   C984      1.0  0.61718  0.23414  0.94748  1.0000
  C   C985      1.0  0.59413  0.23720  0.95375  1.0000
  C   C986      1.0  0.58123  0.21784  0.95855  1.0000
  C   C987      1.0  0.59120  0.19573  0.95737  1.0000
  H   H1666     1.0  0.64495  0.20981  0.94131  1.0000
  H   H1667     1.0  0.62726  0.24881  0.94338  1.0000
  C   C988      1.0  0.52305  0.40646  0.92004  1.0000
  H   H1668     1.0  0.58102  0.18106  0.96123  1.0000
  H   H1669     1.0  0.60191  0.03246  0.94544  1.0000
  C   C989      1.0  0.62156  0.03098  0.88651  1.0000
  C   C990      1.0  0.62331  0.04520  0.90315  1.0000
  C   C991      1.0  0.64255  0.04269  0.91508  1.0000
  C   C992      1.0  0.65797  0.01171  0.89392  1.0000
  C   C993      1.0  0.55080  0.43732  0.91830  1.0000
  H   H1670     1.0  0.55455  0.42855  0.96065  1.0000
  H   H1671     1.0  0.64415  0.05344  0.92795  1.0000
  H   H1672     1.0  0.53321  0.40692  0.96409  1.0000
  H   H1673     1.0  0.56118  0.40125  0.97237  1.0000
  H   H1674     1.0  0.52016  0.38934  0.92769  1.0000
  H   H1675     1.0  0.53894  0.37229  0.89738  1.0000
  C   C994      1.0  0.55987  0.40237  0.90070  1.0000
  H   H1676     1.0  0.54183  0.44571  0.93158  1.0000
  H   H1677     1.0  0.65080  0.22912  0.98021  1.0000
  C   C995      1.0  0.55699  0.37681  0.89800  1.0000
  H   H1678     1.0  0.51742  0.40550  0.90384  1.0000
  C   C996      1.0  0.50550  0.42326  0.93019  1.0000
  H   H1679     1.0  0.68453  0.09766  0.90139  1.0000
  H   H1680     1.0  0.67713  0.07235  0.87829  1.0000
  H   H1681     1.0  0.68815  0.13262  0.91872  1.0000
  H   H1682     1.0  0.54272  0.44494  0.90408  1.0000
  C   C997      1.0  0.51576  0.28323  0.97034  1.0000
  C   C998      1.0  0.66750  0.13521  0.87897  1.0000
  C   C999      1.0  0.67034  0.08520  0.86664  1.0000
  C   C1000     1.0  0.63172  0.12503  0.90011  1.0000
  H   H1683     1.0  0.66128  0.13800  0.86291  1.0000
  H   H1684     1.0  0.56522  0.36620  0.91042  1.0000
  H   H1685     1.0  0.58543  0.44058  0.90317  1.0000
  C   C1001     1.0  0.63869  0.01419  0.88200  1.0000
  H   H1686     1.0  0.68297  0.16686  0.88547  1.0000
  H   H1687     1.0  0.63788  0.08605  0.88353  1.0000
  N   N71       1.0  0.65442  0.11665  0.89080  1.0000
  C   C1002     1.0  0.66618  0.15895  0.88827  1.0000
  C   C1003     1.0  0.65986  0.02622  0.91034  1.0000
  C   C1004     1.0  0.66822  0.10524  0.90787  1.0000
  H   H1688     1.0  0.58471  0.43900  0.93146  1.0000
  Fe  Fe141     1.0  0.60633  0.08687  0.98306  1.0000
  C   C1005     1.0  0.50541  0.10270  0.94378  1.0000
  H   H1689     1.0  0.68406  0.09635  0.86031  1.0000
  H   H1690     1.0  0.67472  0.02447  0.91963  1.0000
  H   H1691     1.0  0.62257  0.14763  0.87280  1.0000
  H   H1692     1.0  0.60056  0.14450  0.89295  1.0000
  H   H1693     1.0  0.51643  0.28785  0.95337  1.0000
  H   H1694     1.0  0.66486  0.07546  0.85360  1.0000
  Fe  Fe142     1.0  0.66201  0.50280  0.88792  1.0000
  H   H1695     1.0  0.55570  0.01659  0.96865  1.0000
  H   H1696     1.0  0.57857  0.40454  0.90049  1.0000
  H   H1697     1.0  0.60682  0.03288  0.87707  1.0000
  H   H1698     1.0  0.57790  0.40178  0.93705  1.0000
  H   H1699     1.0  0.65386  0.17054  0.87996  1.0000
  H   H1700     1.0  0.56624  0.04281  0.93564  1.0000
  H   H1701     1.0  0.64037  0.10642  0.86232  1.0000
  H   H1702     1.0  0.68370  0.10941  0.93721  1.0000
  H   H1703     1.0  0.66077  0.12937  0.93288  1.0000
  H   H1704     1.0  0.63346  0.13784  0.91178  1.0000
  H   H1705     1.0  0.62309  0.11083  0.90905  1.0000
  S   S284      1.0  0.59015  0.12182  0.98706  1.0000
  H   H1706     1.0  0.66210  0.15914  0.90523  1.0000
  H   H1707     1.0  0.53697  0.03714  0.94171  1.0000
  H   H1708     1.0  0.59135  0.02793  0.97155  1.0000
  H   H1709     1.0  0.56340  0.21994  0.96340  1.0000
  C   C1006     1.0  0.64952  0.09875  0.87588  1.0000
  H   H1710     1.0  0.60684  0.12176  0.87619  1.0000
  C   C1007     1.0  0.59975  0.01904  0.95819  1.0000
  C   C1008     1.0  0.55378  0.02921  0.93691  1.0000
  S   S285      1.0  0.52628  0.11968  0.97694  1.0000
  S   S286      1.0  0.53042  0.35832  0.98323  1.0000
  H   H1711     1.0  0.59005  0.01081  0.91885  1.0000
  H   H1712     1.0  0.55205  0.02264  0.92125  1.0000
  C   C1009     1.0  0.56020  0.00988  0.95304  1.0000
  H   H1713     1.0  0.67243  0.26906  0.97737  1.0000
  H   H1714     1.0  0.66078  0.49805  0.96615  1.0000
  H   H1715     1.0  0.63119  0.26558  0.97709  1.0000
  H   H1716     1.0  0.53158  0.27289  0.97354  1.0000
  H   H1717     1.0  0.51655  0.29884  0.97909  1.0000
  H   H1718     1.0  0.63630  0.02382  0.95843  1.0000
  H   H1719     1.0  0.62451  0.01262  0.98244  1.0000
  H   H1720     1.0  0.50961  0.42759  0.94600  1.0000
  C   C1010     1.0  0.62381  0.01152  0.96530  1.0000
  Fe  Fe143     1.0  0.61420  0.33392  0.98597  1.0000
  S   S287      1.0  0.69837  0.96304  0.09366  1.0000
  Fe  Fe144     1.0  0.55671  0.63233  0.04105  1.0000
  S   S288      1.0  0.58268  0.63616  0.06472  1.0000
  S   S289      1.0  0.52022  0.63543  0.05443  1.0000
  Fe  Fe145     1.0  0.59412  0.62575  0.00737  1.0000
  S   S290      1.0  0.62296  0.62946  0.02854  1.0000
  H   H1721     1.0  0.59678  0.97850  0.03581  1.0000
  Fe  Fe146     1.0  0.60254  0.60663  0.05106  1.0000
  S   S291      1.0  0.61300  0.57663  0.07324  1.0000
  Fe  Fe147     1.0  0.60081  0.65891  0.04057  1.0000
  S   S292      1.0  0.61270  0.69113  0.05436  1.0000
  S   S293      1.0  0.57504  0.60118  0.02912  1.0000
  S   S294      1.0  0.57355  0.65680  0.01760  1.0000
  Fe  Fe148     1.0  0.60468  0.87786  0.00831  1.0000
  S   S295      1.0  0.63251  0.85719  0.02407  1.0000
  H   H1722     1.0  0.61537  0.99207  0.05184  1.0000
  Fe  Fe149     1.0  0.56750  0.86078  0.03993  1.0000
  S   S296      1.0  0.59274  0.83917  0.05811  1.0000
  S   S297      1.0  0.53099  0.86236  0.05323  1.0000
  Fe  Fe150     1.0  0.61532  0.86944  0.05390  1.0000
  S   S298      1.0  0.63034  0.88416  0.08214  1.0000
  Fe  Fe151     1.0  0.60729  0.82888  0.02683  1.0000
  S   S299      1.0  0.61296  0.79320  0.01454  1.0000
  S   S300      1.0  0.58894  0.89150  0.03789  1.0000
  S   S301      1.0  0.58063  0.84917  0.00882  1.0000
  C   C1011     1.0  0.67250  0.98616  0.04222  1.0000
  H   H1723     1.0  0.52743  0.84799  0.01094  1.0000
  C   C1012     1.0  0.61155  0.71950  0.04318  1.0000
  C   C1013     1.0  0.61390  0.73773  0.05605  1.0000
  C   C1014     1.0  0.61375  0.76045  0.04773  1.0000
  C   C1015     1.0  0.61192  0.76514  0.02629  1.0000
  C   C1016     1.0  0.60957  0.74691  0.01344  1.0000
  C   C1017     1.0  0.60904  0.72427  0.02185  1.0000
  C   C1018     1.0  0.53060  0.78583  0.01793  1.0000
  H   H1724     1.0  0.61569  0.77424  0.05780  1.0000
  H   H1725     1.0  0.54516  0.81304  0.04294  1.0000
  H   H1726     1.0  0.60735  0.71048  0.01172  1.0000
  C   C1019     1.0  0.67833  0.94246  0.08895  1.0000
  C   C1020     1.0  0.68662  0.92172  0.08126  1.0000
  C   C1021     1.0  0.67172  0.90445  0.07773  1.0000
  C   C1022     1.0  0.64821  0.90771  0.08160  1.0000
  C   C1023     1.0  0.63979  0.92861  0.08902  1.0000
  C   C1024     1.0  0.65477  0.94601  0.09255  1.0000
  H   H1727     1.0  0.70479  0.91876  0.07848  1.0000
  H   H1728     1.0  0.67855  0.88820  0.07273  1.0000
  H   H1729     1.0  0.62170  0.93108  0.09260  1.0000
  H   H1730     1.0  0.64813  0.96198  0.09831  1.0000
  C   C1025     1.0  0.63191  0.53541  0.08676  1.0000
  C   C1026     1.0  0.63569  0.55574  0.07478  1.0000
  C   C1027     1.0  0.65744  0.55919  0.06550  1.0000
  C   C1028     1.0  0.67513  0.54247  0.06825  1.0000
  H   H1731     1.0  0.61523  0.53261  0.09417  1.0000
  H   H1732     1.0  0.66071  0.57480  0.05641  1.0000
  H   H1733     1.0  0.69191  0.54535  0.06112  1.0000
  H   H1734     1.0  0.67959  0.97657  0.01095  1.0000
  H   H1735     1.0  0.64888  0.95008  0.20594  1.0000
  H   H1736     1.0  0.56271  0.72617  0.05680  1.0000
  C   C1029     1.0  0.66401  0.93816  0.02751  1.0000
  H   H1737     1.0  0.63935  0.91718  0.18762  1.0000
  H   H1738     1.0  0.76750  0.52941  0.07651  1.0000
  H   H1739     1.0  0.66151  0.89257  0.15137  1.0000
  C   C1030     1.0  0.55244  0.79570  0.07228  1.0000
  C   C1031     1.0  0.66315  0.94025  0.19824  1.0000
  C   C1032     1.0  0.66400  0.97947  0.02119  1.0000
  H   H1740     1.0  0.61922  0.99503  0.02405  1.0000
  H   H1741     1.0  0.56377  0.79979  0.00696  1.0000
  C   C1033     1.0  0.65368  0.55973  0.01297  1.0000
  H   H1742     1.0  0.67143  0.96753  0.15819  1.0000
  C   C1034     1.0  0.51054  0.84889  0.01844  1.0000
  C   C1035     1.0  0.55106  0.78814  0.00197  1.0000
  C   C1036     1.0  0.63019  0.96092  0.03866  1.0000
  C   C1037     1.0  0.62884  0.68345  0.10972  1.0000
  H   H1743     1.0  0.51576  0.76858  0.06833  1.0000
  H   H1744     1.0  0.68331  0.97244  0.04960  1.0000
  H   H1745     1.0  0.65110  0.52166  0.03658  1.0000
  H   H1746     1.0  0.65837  0.99118  0.05333  1.0000
  C   C1038     1.0  0.64946  0.51859  0.08928  1.0000
  H   H1747     1.0  0.61596  0.94895  0.17501  1.0000
  N   N72       1.0  0.63826  0.64068  0.10420  1.0000
  C   C1039     1.0  0.62056  0.65888  0.11012  1.0000
  C   C1040     1.0  0.62658  0.61829  0.10592  1.0000
  C   C1041     1.0  0.64592  0.64600  0.08174  1.0000
  C   C1042     1.0  0.65788  0.64115  0.11837  1.0000
  C   C1043     1.0  0.61480  0.98292  0.03725  1.0000
  C   C1044     1.0  0.61615  0.61105  0.12768  1.0000
  C   C1045     1.0  0.66339  0.62924  0.07169  1.0000
  C   C1046     1.0  0.67317  0.61918  0.12082  1.0000
  H   H1748     1.0  0.60586  0.65904  0.09980  1.0000
  H   H1749     1.0  0.61332  0.65544  0.12625  1.0000
  H   H1750     1.0  0.63800  0.60398  0.10099  1.0000
  H   H1751     1.0  0.61255  0.61866  0.09498  1.0000
  H   H1752     1.0  0.63096  0.64731  0.07177  1.0000
  H   H1753     1.0  0.65387  0.66280  0.07975  1.0000
  H   H1754     1.0  0.66916  0.65534  0.11317  1.0000
  H   H1755     1.0  0.65127  0.64488  0.13443  1.0000
  H   H1756     1.0  0.66931  0.91045  0.12816  1.0000
  H   H1757     1.0  0.61053  0.98604  0.15414  1.0000
  H   H1758     1.0  0.64296  0.68510  0.12022  1.0000
  H   H1759     1.0  0.59978  0.62054  0.13106  1.0000
  H   H1760     1.0  0.61206  0.59279  0.12787  1.0000
  H   H1761     1.0  0.62789  0.61302  0.14030  1.0000
  H   H1762     1.0  0.65715  0.61178  0.07182  1.0000
  H   H1763     1.0  0.68012  0.62942  0.07882  1.0000
  H   H1764     1.0  0.66642  0.63484  0.05501  1.0000
  H   H1765     1.0  0.69119  0.62392  0.12153  1.0000
  H   H1766     1.0  0.67283  0.60736  0.10814  1.0000
  H   H1767     1.0  0.66896  0.60984  0.13594  1.0000
  N   N73       1.0  0.64914  0.93931  0.16091  1.0000
  H   H1768     1.0  0.54438  0.78161  0.08150  1.0000
  C   C1047     1.0  0.65465  0.92609  0.18093  1.0000
  H   H1769     1.0  0.63490  0.97947  0.13765  1.0000
  C   C1048     1.0  0.66941  0.95122  0.15068  1.0000
  H   H1770     1.0  0.63388  0.93312  0.13194  1.0000
  H   H1771     1.0  0.63386  0.69020  0.09380  1.0000
  N   N74       1.0  0.53611  0.77817  0.04000  1.0000
  H   H1772     1.0  0.60680  0.56807  0.99811  1.0000
  H   H1773     1.0  0.66987  0.93865  0.04360  1.0000
  H   H1774     1.0  0.63702  0.95932  0.05447  1.0000
  H   H1775     1.0  0.66763  0.91225  0.17837  1.0000
  Fe  Fe152     1.0  0.69543  0.99613  0.11060  1.0000
  H   H1776     1.0  0.60194  0.51606  0.00666  1.0000
  H   H1777     1.0  0.70317  0.94488  0.16366  1.0000
  H   H1778     1.0  0.64517  0.89336  0.12882  1.0000
  C   C1049     1.0  0.65506  0.90400  0.13855  1.0000
  H   H1779     1.0  0.67060  0.92862  0.21053  1.0000
  H   H1780     1.0  0.53890  0.73904  0.07024  1.0000
  H   H1781     1.0  0.65628  0.57806  0.00893  1.0000
  H   H1782     1.0  0.61005  0.96207  0.13855  1.0000
  H   H1783     1.0  0.61447  0.69478  0.11528  1.0000
  H   H1784     1.0  0.55948  0.77148  0.99858  1.0000
  H   H1785     1.0  0.68327  0.00119  0.03945  1.0000
  C   C1050     1.0  0.69293  0.93836  0.15142  1.0000
  H   H1786     1.0  0.70281  0.94218  0.13651  1.0000
  H   H1787     1.0  0.54496  0.81202  0.07794  1.0000
  H   H1788     1.0  0.67650  0.95207  0.19238  1.0000
  H   H1789     1.0  0.74241  0.53686  0.09196  1.0000
  H   H1790     1.0  0.63707  0.96930  0.17696  1.0000
  H   H1791     1.0  0.66644  0.95604  0.13403  1.0000
  H   H1792     1.0  0.51862  0.77414  0.01155  1.0000
  C   C1051     1.0  0.54847  0.75526  0.03913  1.0000
  H   H1793     1.0  0.66517  0.90125  0.03130  1.0000
  H   H1794     1.0  0.73970  0.52010  0.07027  1.0000
  C   C1052     1.0  0.55418  0.74288  0.06006  1.0000
  N   N75       1.0  0.64926  0.95902  0.02218  1.0000
  H   H1795     1.0  0.53852  0.74343  0.03058  1.0000
  H   H1796     1.0  0.64830  0.91170  0.01041  1.0000
  H   H1797     1.0  0.56510  0.75673  0.03026  1.0000
  H   H1798     1.0  0.56874  0.79355  0.04157  1.0000
  C   C1053     1.0  0.63073  0.95700  0.16634  1.0000
  H   H1799     1.0  0.63908  0.55966  0.02451  1.0000
  C   C1054     1.0  0.63930  0.92360  0.14632  1.0000
  H   H1800     1.0  0.69254  0.91968  0.15333  1.0000
  C   C1055     1.0  0.65281  0.91506  0.02642  1.0000
  H   H1801     1.0  0.56654  0.75221  0.06838  1.0000
  C   C1056     1.0  0.55096  0.79551  0.04831  1.0000
  H   H1802     1.0  0.65526  0.99474  0.01382  1.0000
  H   H1803     1.0  0.61592  0.73426  0.07256  1.0000
  C   C1057     1.0  0.62123  0.97175  0.14787  1.0000
  H   H1804     1.0  0.62361  0.91594  0.15368  1.0000
  H   H1805     1.0  0.57065  0.79503  0.07623  1.0000
  C   C1058     1.0  0.67123  0.52205  0.08014  1.0000
  H   H1806     1.0  0.52168  0.80281  0.01751  1.0000
  H   H1807     1.0  0.66917  0.55227  0.02030  1.0000
  H   H1808     1.0  0.67995  0.93765  0.01738  1.0000
  H   H1809     1.0  0.63759  0.91342  0.03723  1.0000
  H   H1810     1.0  0.51444  0.62656  0.01087  1.0000
  H   H1811     1.0  0.61870  0.94640  0.03842  1.0000
  S   S302      1.0  0.70637  0.99782  0.14346  1.0000
  C   C1059     1.0  0.75099  0.52305  0.08303  1.0000
  H   H1812     1.0  0.60823  0.75031  0.99683  1.0000
  C   C1060     1.0  0.51365  0.77566  0.05225  1.0000
  C   C1061     1.0  0.50755  0.85609  0.03877  1.0000
  C   C1062     1.0  0.61241  0.53140  0.00650  1.0000
  C   C1063     1.0  0.63889  0.95732  0.00144  1.0000
  H   H1813     1.0  0.50828  0.81176  0.05966  1.0000
  H   H1814     1.0  0.76281  0.50750  0.11144  1.0000
  H   H1815     1.0  0.62639  0.94359  0.00220  1.0000
  H   H1816     1.0  0.79847  0.50968  0.10301  1.0000
  H   H1817     1.0  0.61416  0.53434  0.02321  1.0000
  H   H1818     1.0  0.62875  0.97305  0.99729  1.0000
  H   H1819     1.0  0.58293  0.96634  0.99803  1.0000
  H   H1820     1.0  0.58743  0.99630  0.99545  1.0000
  H   H1821     1.0  0.55989  0.98533  0.99096  1.0000
  C   C1064     1.0  0.59788  0.55189  0.99785  1.0000
  H   H1822     1.0  0.58209  0.55379  0.00799  1.0000
  C   C1065     1.0  0.64934  0.54781  0.99294  1.0000
  N   N76       1.0  0.63517  0.52703  0.99511  1.0000
  C   C1066     1.0  0.57861  0.98234  0.98882  1.0000
  H   H1823     1.0  0.81814  0.50832  0.08159  1.0000
  C   C1067     1.0  0.64807  0.50725  0.00571  1.0000
  H   H1824     1.0  0.66645  0.50711  0.00049  1.0000
  C   C1068     1.0  0.64702  0.50566  0.02980  1.0000
  S   S303      1.0  0.77379  0.96733  0.41265  1.0000
  Fe  Fe153     1.0  0.91135  0.61541  0.44365  1.0000
  S   S304      1.0  0.88179  0.61970  0.42276  1.0000
  S   S305      1.0  0.94655  0.61512  0.42733  1.0000
  C   C1069     1.0  0.91576  0.77402  0.41533  1.0000
  S   S306      1.0  0.84782  0.61597  0.46464  1.0000
  C   C1070     1.0  0.92268  0.73750  0.43431  1.0000
  Fe  Fe154     1.0  0.86549  0.59141  0.44271  1.0000
  S   S307      1.0  0.85490  0.55577  0.43500  1.0000
  Fe  Fe155     1.0  0.86707  0.64389  0.44650  1.0000
  S   S308      1.0  0.85188  0.67889  0.43631  1.0000
  S   S309      1.0  0.89628  0.58601  0.46218  1.0000
  S   S310      1.0  0.89759  0.64108  0.46601  1.0000
  C   C1071     1.0  0.95259  0.76686  0.43048  1.0000
  S   S311      1.0  0.84122  0.84372  0.47161  1.0000
  H   H1825     1.0  0.92233  0.76708  0.40038  1.0000
  Fe  Fe156     1.0  0.90594  0.83842  0.45384  1.0000
  S   S312      1.0  0.87803  0.82569  0.43555  1.0000
  S   S313      1.0  0.94182  0.83076  0.44035  1.0000
  Fe  Fe157     1.0  0.85875  0.85878  0.44216  1.0000
  S   S314      1.0  0.84591  0.88267  0.41556  1.0000
  Fe  Fe158     1.0  0.86333  0.81168  0.46646  1.0000
  S   S315      1.0  0.85655  0.77458  0.47743  1.0000
  S   S316      1.0  0.88803  0.87224  0.45811  1.0000
  H   H1826     1.0  0.87299  0.56530  0.37192  1.0000
  C   C1072     1.0  0.85573  0.70579  0.44666  1.0000
  C   C1073     1.0  0.86881  0.70822  0.46393  1.0000
  C   C1074     1.0  0.86945  0.72953  0.47282  1.0000
  C   C1075     1.0  0.85789  0.74889  0.46404  1.0000
  C   C1076     1.0  0.84573  0.74666  0.44620  1.0000
  C   C1077     1.0  0.84455  0.72523  0.43769  1.0000
  H   H1827     1.0  0.87804  0.69362  0.47068  1.0000
  H   H1828     1.0  0.87878  0.73101  0.48671  1.0000
  H   H1829     1.0  0.83641  0.76126  0.43946  1.0000
  H   H1830     1.0  0.83444  0.72362  0.42430  1.0000
  H   H1831     1.0  0.88279  0.53726  0.39546  1.0000
  C   C1078     1.0  0.98749  0.82507  0.44635  1.0000
  C   C1079     1.0  0.96633  0.83324  0.45466  1.0000
  H   H1832     1.0  0.94382  0.59217  0.35237  1.0000
  H   H1833     1.0  0.79395  0.55268  0.38475  1.0000
  H   H1834     1.0  0.86709  0.94642  0.45247  1.0000
  C   C1080     1.0  0.84267  0.92480  0.47120  1.0000
  C   C1081     1.0  0.99260  0.60739  0.43048  1.0000
  C   C1082     1.0  0.97114  0.60763  0.44121  1.0000
  C   C1083     1.0  0.96978  0.60246  0.46272  1.0000
  H   H1835     1.0  0.98842  0.81706  0.43159  1.0000
  H   H1836     1.0  0.83464  0.96820  0.44232  1.0000
  H   H1837     1.0  0.95334  0.60255  0.47113  1.0000
  H   H1838     1.0  0.85107  0.50901  0.42631  1.0000
  Fe  Fe159     1.0  0.77184  0.99832  0.38937  1.0000
  C   C1084     1.0  0.83873  0.51867  0.41715  1.0000
  C   C1085     1.0  0.83692  0.54249  0.41816  1.0000
  C   C1086     1.0  0.82088  0.55469  0.40615  1.0000
  H   H1839     1.0  0.00046  0.65333  0.43892  1.0000
  C   C1087     1.0  0.98979  0.59736  0.47343  1.0000
  H   H1840     1.0  0.81919  0.57298  0.40674  1.0000
  H   H1841     1.0  0.88011  0.92322  0.46789  1.0000
  C   C1088     1.0  0.79391  0.94381  0.41290  1.0000
  C   C1089     1.0  0.81313  0.94303  0.39914  1.0000
  C   C1090     1.0  0.82891  0.92431  0.40032  1.0000
  C   C1091     1.0  0.82596  0.90632  0.41547  1.0000
  C   C1092     1.0  0.80673  0.90710  0.42924  1.0000
  C   C1093     1.0  0.79079  0.92568  0.42789  1.0000
  H   H1842     1.0  0.81575  0.95674  0.38746  1.0000
  H   H1843     1.0  0.84350  0.92373  0.38934  1.0000
  H   H1844     1.0  0.80391  0.89317  0.44065  1.0000
  H   H1845     1.0  0.77588  0.92597  0.43849  1.0000
  H   H1846     1.0  0.92475  0.72185  0.46599  1.0000
  H   H1847     1.0  0.95242  0.72644  0.45296  1.0000
  H   H1848     1.0  0.93601  0.70434  0.44545  1.0000
  H   H1849     1.0  0.91929  0.79253  0.41401  1.0000
  H   H1850     1.0  0.90750  0.60038  0.38273  1.0000
  C   C1094     1.0  0.80656  0.54311  0.39368  1.0000
  C   C1095     1.0  0.93176  0.54944  0.42343  1.0000
  H   H1851     1.0  0.90745  0.58461  0.35993  1.0000
  H   H1852     1.0  0.95517  0.78551  0.42901  1.0000
  C   C1096     1.0  0.90411  0.58334  0.37712  1.0000
  H   H1853     1.0  0.94683  0.78453  0.46940  1.0000
  H   H1854     1.0  0.90150  0.76524  0.45874  1.0000
  H   H1855     1.0  0.89061  0.51785  0.37609  1.0000
  H   H1856     1.0  0.99377  0.61134  0.41383  1.0000
  H   H1857     1.0  0.83848  0.54786  0.48224  1.0000
  H   H1858     1.0  0.98726  0.91229  0.45468  1.0000
  H   H1859     1.0  0.96230  0.76072  0.44413  1.0000
  H   H1860     1.0  0.98358  0.75940  0.41182  1.0000
  H   H1861     1.0  0.94906  0.84988  0.48028  1.0000
  C   C1097     1.0  0.93468  0.72196  0.45079  1.0000
  H   H1862     1.0  0.82954  0.92350  0.45975  1.0000
  C   C1098     1.0  0.82150  0.96796  0.45539  1.0000
  H   H1863     1.0  0.96415  0.89852  0.44450  1.0000
  H   H1864     1.0  0.85592  0.52148  0.48153  1.0000
  H   H1865     1.0  0.81199  0.98456  0.45360  1.0000
  H   H1866     1.0  0.91443  0.54451  0.36132  1.0000
  C   C1099     1.0  0.89752  0.52779  0.38835  1.0000
  H   H1867     1.0  0.91306  0.79143  0.45001  1.0000
  H   H1868     1.0  0.87234  0.57870  0.39678  1.0000
  H   H1869     1.0  0.82075  0.66013  0.46855  1.0000
  H   H1870     1.0  0.92593  0.73025  0.41877  1.0000
  H   H1871     1.0  0.96345  0.73760  0.41171  1.0000
  C   C1100     1.0  0.93280  0.77248  0.47215  1.0000
  H   H1872     1.0  0.89791  0.55993  0.41542  1.0000
  H   H1873     1.0  0.99519  0.87243  0.43802  1.0000
  C   C1101     1.0  0.95151  0.57620  0.35939  1.0000
  C   C1102     1.0  0.96530  0.84355  0.47375  1.0000
  H   H1874     1.0  0.86910  0.59524  0.37317  1.0000
  C   C1103     1.0  0.98068  0.90650  0.44021  1.0000
  N   N77       1.0  0.91963  0.56536  0.38721  1.0000
  H   H1875     1.0  0.88270  0.78343  0.40294  1.0000
  H   H1876     1.0  0.92231  0.77828  0.48588  1.0000
  H   H1877     1.0  0.97028  0.57812  0.35813  1.0000
  Fe  Fe160     1.0  0.87946  0.61187  0.48271  1.0000
  C   C1104     1.0  0.88964  0.77194  0.41558  1.0000
  H   H1878     1.0  0.88098  0.77702  0.43038  1.0000
  C   C1105     1.0  0.94386  0.57252  0.38264  1.0000
  C   C1106     1.0  0.96510  0.75628  0.41145  1.0000
  H   H1879     1.0  0.86863  0.54814  0.48144  1.0000
  H   H1880     1.0  0.93290  0.53181  0.38011  1.0000
  N   N78       1.0  0.92750  0.76246  0.43366  1.0000
  C   C1107     1.0  0.91531  0.56496  0.41055  1.0000
  H   H1881     1.0  0.97573  0.67094  0.44441  1.0000
  H   H1882     1.0  0.93983  0.75529  0.47642  1.0000
  H   H1883     1.0  0.95625  0.55966  0.38932  1.0000
  C   C1108     1.0  0.91693  0.54247  0.37839  1.0000
  H   H1884     1.0  0.80925  0.95484  0.45312  1.0000
  H   H1885     1.0  0.94683  0.58861  0.39026  1.0000
  H   H1886     1.0  0.97692  0.92156  0.42958  1.0000
  H   H1887     1.0  0.94779  0.56162  0.35016  1.0000
  C   C1109     1.0  0.99674  0.88908  0.42910  1.0000
  H   H1888     1.0  0.95944  0.76432  0.39649  1.0000
  C   C1110     1.0  0.80825  0.51925  0.39277  1.0000
  H   H1889     1.0  0.93464  0.53246  0.41705  1.0000
  H   H1890     1.0  0.98865  0.88705  0.41405  1.0000
  H   H1891     1.0  0.86610  0.91788  0.44476  1.0000
  C   C1111     1.0  0.91769  0.77311  0.45321  1.0000
  H   H1892     1.0  0.91621  0.58237  0.41614  1.0000
  C   C1112     1.0  0.87829  0.58006  0.38018  1.0000
  H   H1893     1.0  0.90415  0.73497  0.43763  1.0000
  H   H1894     1.0  0.88492  0.75447  0.41247  1.0000
  H   H1895     1.0  0.90424  0.51494  0.40001  1.0000
  C   C1113     1.0  0.86532  0.92859  0.45848  1.0000
  H   H1896     1.0  0.79596  0.91958  0.47534  1.0000
  H   H1897     1.0  0.79061  0.65980  0.47140  1.0000
  C   C1114     1.0  0.99090  0.66239  0.45147  1.0000
  S   S317      1.0  0.76766  0.00120  0.35461  1.0000
  C   C1115     1.0  0.83260  0.96602  0.47676  1.0000
  H   H1898     1.0  0.84938  0.97407  0.47396  1.0000
  C   C1116     1.0  0.98539  0.84596  0.48428  1.0000
  H   H1899     1.0  0.94834  0.55757  0.42455  1.0000
  S   S318      1.0  0.78908  0.50543  0.37742  1.0000
  H   H1900     1.0  0.92439  0.54696  0.43963  1.0000
  C   C1117     1.0  0.82463  0.50713  0.40447  1.0000
  H   H1901     1.0  0.78628  0.94855  0.48104  1.0000
  H   H1902     1.0  0.85012  0.66900  0.48621  1.0000
  H   H1903     1.0  0.99452  0.68915  0.47249  1.0000
  H   H1904     1.0  0.80416  0.68597  0.47376  1.0000
  H   H1905     1.0  0.84398  0.90748  0.47916  1.0000
  C   C1118     1.0  0.80578  0.66738  0.47739  1.0000
  S   S319      1.0  0.89214  0.82342  0.48441  1.0000
  H   H1906     1.0  0.98433  0.64998  0.46370  1.0000
  Fe  Fe161     1.0  0.87135  0.85605  0.48718  1.0000
  H   H1907     1.0  0.78733  0.00140  0.48050  1.0000
  C   C1119     1.0  0.79335  0.93207  0.48755  1.0000
  H   H1908     1.0  0.82233  0.97703  0.48750  1.0000
  N   N79       1.0  0.83601  0.94238  0.48679  1.0000
  H   H1909     1.0  0.82109  0.50855  0.48755  1.0000
  C   C1120     1.0  0.85385  0.53851  0.48800  1.0000
  Fe  Fe162     1.0  0.78981  0.90741  0.64024  1.0000
  S   S320      1.0  0.77352  0.94044  0.64993  1.0000
  S   S321      1.0  0.80479  0.87865  0.66068  1.0000
  Fe  Fe163     1.0  0.77480  0.91520  0.59561  1.0000
  S   S322      1.0  0.75641  0.94861  0.60209  1.0000
  S   S323      1.0  0.77549  0.89866  0.56459  1.0000
  Fe  Fe164     1.0  0.78786  0.95539  0.61896  1.0000
  S   S324      1.0  0.80920  0.98712  0.61629  1.0000
  Fe  Fe165     1.0  0.74347  0.93069  0.63236  1.0000
  S   S325      1.0  0.70794  0.93447  0.64875  1.0000
  S   S326      1.0  0.80672  0.92269  0.61094  1.0000
  S   S327      1.0  0.75922  0.89695  0.62418  1.0000
  H   H1910     1.0  0.64593  0.87355  0.71680  1.0000
  S   S328      1.0  0.59286  0.58439  0.69572  1.0000
  H   H1911     1.0  0.55284  0.56393  0.60074  1.0000
  Fe  Fe166     1.0  0.59864  0.64272  0.71953  1.0000
  S   S329      1.0  0.59338  0.63903  0.68563  1.0000
  Fe  Fe167     1.0  0.79689  0.50474  0.60040  1.0000
  Fe  Fe168     1.0  0.56693  0.61375  0.69696  1.0000
  S   S330      1.0  0.53318  0.61584  0.68022  1.0000
  Fe  Fe169     1.0  0.61965  0.60993  0.68756  1.0000
  S   S331      1.0  0.64896  0.60761  0.66265  1.0000
  H   H1912     1.0  0.84501  0.97502  0.51592  1.0000
  S   S332      1.0  0.62677  0.61551  0.72075  1.0000
  H   H1913     1.0  0.65222  0.91268  0.70931  1.0000
  S   S333      1.0  0.59089  0.87147  0.71475  1.0000
  S   S334      1.0  0.87994  0.60579  0.51771  1.0000
  Fe  Fe170     1.0  0.58408  0.80733  0.70454  1.0000
  S   S335      1.0  0.57262  0.83592  0.68246  1.0000
  S   S336      1.0  0.57615  0.77301  0.69288  1.0000
  Fe  Fe171     1.0  0.60598  0.85180  0.68788  1.0000
  S   S337      1.0  0.63170  0.85986  0.66084  1.0000
  Fe  Fe172     1.0  0.55840  0.85257  0.71114  1.0000
  S   S338      1.0  0.52184  0.86676  0.71741  1.0000
  S   S339      1.0  0.61818  0.82186  0.70804  1.0000
  C   C1121     1.0  0.62114  0.56745  0.60848  1.0000
  Fe  Fe173     1.0  0.80743  0.53412  0.63700  1.0000
  C   C1122     1.0  0.51199  0.77482  0.70212  1.0000
  S   S340      1.0  0.82874  0.53306  0.66557  1.0000
  Fe  Fe174     1.0  0.79005  0.55657  0.59672  1.0000
  S   S341      1.0  0.76677  0.52815  0.59232  1.0000
  S   S342      1.0  0.78920  0.58541  0.57193  1.0000
  Fe  Fe175     1.0  0.75807  0.52994  0.62687  1.0000
  S   S343      1.0  0.72360  0.52774  0.64525  1.0000
  N   N80       1.0  0.76183  0.55883  0.70522  1.0000
  S   S344      1.0  0.77923  0.56003  0.63053  1.0000
  S   S345      1.0  0.82039  0.53356  0.60346  1.0000
  C   C1123     1.0  0.81453  0.59124  0.55721  1.0000
  C   C1124     1.0  0.83580  0.58834  0.56597  1.0000
  C   C1125     1.0  0.85576  0.59302  0.55372  1.0000
  C   C1126     1.0  0.85459  0.60007  0.53258  1.0000
  C   C1127     1.0  0.83331  0.60266  0.52380  1.0000
  C   C1128     1.0  0.81332  0.59893  0.53624  1.0000
  H   H1914     1.0  0.83685  0.58265  0.58220  1.0000
  H   H1915     1.0  0.83221  0.60755  0.50747  1.0000
  H   H1916     1.0  0.79688  0.60115  0.52942  1.0000
  C   C1129     1.0  0.59509  0.74438  0.72360  1.0000
  H   H1917     1.0  0.77318  0.52811  0.72265  1.0000
  C   C1130     1.0  0.58449  0.74633  0.70460  1.0000
  H   H1918     1.0  0.60749  0.52166  0.64184  1.0000
  H   H1919     1.0  0.98450  0.85415  0.49895  1.0000
  H   H1920     1.0  0.57880  0.55685  0.58568  1.0000
  C   C1131     1.0  0.58584  0.70492  0.70359  1.0000
  C   C1132     1.0  0.57994  0.72656  0.69462  1.0000
  H   H1921     1.0  0.81853  0.91875  0.50833  1.0000
  H   H1922     1.0  0.83254  0.64784  0.53787  1.0000
  H   H1923     1.0  0.58218  0.68980  0.69582  1.0000
  H   H1924     1.0  0.57174  0.72794  0.67991  1.0000
  C   C1133     1.0  0.67060  0.58576  0.65965  1.0000
  C   C1134     1.0  0.68932  0.58975  0.64551  1.0000
  C   C1135     1.0  0.70587  0.57235  0.64120  1.0000
  C   C1136     1.0  0.70372  0.55058  0.65075  1.0000
  C   C1137     1.0  0.68508  0.54661  0.66499  1.0000
  C   C1138     1.0  0.66877  0.56413  0.66962  1.0000
  H   H1925     1.0  0.69086  0.60634  0.63759  1.0000
  H   H1926     1.0  0.72002  0.57568  0.63015  1.0000
  H   H1927     1.0  0.68320  0.52983  0.67244  1.0000
  H   H1928     1.0  0.65446  0.56071  0.68047  1.0000
  C   C1139     1.0  0.66296  0.86538  0.71941  1.0000
  Fe  Fe176     1.0  0.59869  0.59154  0.72900  1.0000
  H   H1929     1.0  0.77990  0.99967  0.58163  1.0000
  H   H1930     1.0  0.81029  0.78974  0.73305  1.0000
  N   N81       1.0  0.82505  0.67207  0.51209  1.0000
  H   H1931     1.0  0.66584  0.82467  0.66772  1.0000
  C   C1140     1.0  0.68721  0.91324  0.65235  1.0000
  C   C1141     1.0  0.69074  0.89173  0.64435  1.0000
  C   C1142     1.0  0.67370  0.87553  0.64731  1.0000
  C   C1143     1.0  0.65316  0.88037  0.65874  1.0000
  C   C1144     1.0  0.64970  0.90178  0.66696  1.0000
  C   C1145     1.0  0.66656  0.91815  0.66363  1.0000
  H   H1932     1.0  0.70642  0.88776  0.63548  1.0000
  H   H1933     1.0  0.67640  0.85925  0.64048  1.0000
  H   H1934     1.0  0.63373  0.90597  0.67527  1.0000
  H   H1935     1.0  0.66350  0.93482  0.66965  1.0000
  C   C1146     1.0  0.84345  0.88290  0.52899  1.0000
  C   C1147     1.0  0.82358  0.87262  0.52407  1.0000
  C   C1148     1.0  0.80279  0.87780  0.53494  1.0000
  C   C1149     1.0  0.80173  0.89323  0.55081  1.0000
  C   C1150     1.0  0.82153  0.90384  0.55546  1.0000
  C   C1151     1.0  0.84234  0.89860  0.54465  1.0000
  H   H1936     1.0  0.59864  0.75950  0.73144  1.0000
  H   H1937     1.0  0.78750  0.86963  0.53118  1.0000
  H   H1938     1.0  0.82082  0.91610  0.56736  1.0000
  H   H1939     1.0  0.85764  0.90669  0.54850  1.0000
  C   C1152     1.0  0.85676  0.88682  0.71013  1.0000
  C   C1153     1.0  0.84812  0.86561  0.70707  1.0000
  C   C1154     1.0  0.83227  0.86346  0.69179  1.0000
  C   C1155     1.0  0.82483  0.88248  0.67950  1.0000
  C   C1156     1.0  0.83363  0.90370  0.68232  1.0000
  C   C1157     1.0  0.84965  0.90583  0.69757  1.0000
  H   H1940     1.0  0.80838  0.64240  0.50309  1.0000
  H   H1941     1.0  0.82563  0.84698  0.68960  1.0000
  H   H1942     1.0  0.82803  0.91845  0.67285  1.0000
  C   C1158     1.0  0.83722  0.59491  0.70411  1.0000
  C   C1159     1.0  0.84230  0.57295  0.71237  1.0000
  C   C1160     1.0  0.83985  0.55416  0.70026  1.0000
  C   C1161     1.0  0.83186  0.55715  0.68003  1.0000
  C   C1162     1.0  0.82655  0.57909  0.67187  1.0000
  C   C1163     1.0  0.82943  0.59792  0.68382  1.0000
  H   H1943     1.0  0.74145  0.55030  0.73332  1.0000
  H   H1944     1.0  0.84392  0.53718  0.70665  1.0000
  H   H1945     1.0  0.82050  0.58158  0.65627  1.0000
  H   H1946     1.0  0.82549  0.61489  0.67734  1.0000
  H   H1947     1.0  0.69861  0.87073  0.71417  1.0000
  Fe  Fe177     1.0  0.60167  0.84068  0.73461  1.0000
  H   H1948     1.0  0.68134  0.88558  0.69575  1.0000
  C   C1164     1.0  0.60093  0.72271  0.73260  1.0000
  H   H1949     1.0  0.57195  0.58852  0.65549  1.0000
  H   H1950     1.0  0.75270  0.51423  0.69104  1.0000
  H   H1951     1.0  0.63311  0.73336  0.69242  1.0000
  H   H1952     1.0  0.65925  0.74758  0.69150  1.0000
  H   H1953     1.0  0.88683  0.56223  0.67317  1.0000
  H   H1954     1.0  0.78999  0.51416  0.53450  1.0000
  N   N82       1.0  0.83471  0.52637  0.52401  1.0000
  H   H1955     1.0  0.79399  0.53941  0.70433  1.0000
  H   H1956     1.0  0.85982  0.51787  0.57243  1.0000
  H   H1957     1.0  0.55926  0.59673  0.63113  1.0000
  H   H1958     1.0  0.87106  0.94863  0.49329  1.0000
  N   N83       1.0  0.83136  0.84475  0.61020  1.0000
  C   C1165     1.0  0.82434  0.82945  0.62893  1.0000
  C   C1166     1.0  0.81018  0.85798  0.60352  1.0000
  C   C1167     1.0  0.84821  0.86104  0.61714  1.0000
  C   C1168     1.0  0.84202  0.83008  0.59349  1.0000
  C   C1169     1.0  0.84384  0.81701  0.64072  1.0000
  C   C1170     1.0  0.79036  0.84356  0.59784  1.0000
  C   C1171     1.0  0.85715  0.87897  0.60073  1.0000
  C   C1172     1.0  0.84205  0.84013  0.57072  1.0000
  H   H1959     1.0  0.81386  0.83912  0.64058  1.0000
  H   H1960     1.0  0.81317  0.81598  0.62439  1.0000
  H   H1961     1.0  0.81359  0.87004  0.59005  1.0000
  H   H1962     1.0  0.80347  0.86902  0.61612  1.0000
  H   H1963     1.0  0.84073  0.87037  0.63062  1.0000
  H   H1964     1.0  0.86377  0.85177  0.62275  1.0000
  H   H1965     1.0  0.85998  0.82509  0.59693  1.0000
  H   H1966     1.0  0.83294  0.81387  0.59347  1.0000
  H   H1967     1.0  0.83653  0.80383  0.65187  1.0000
  H   H1968     1.0  0.85643  0.80836  0.63011  1.0000
  H   H1969     1.0  0.85250  0.82885  0.65025  1.0000
  H   H1970     1.0  0.79589  0.83058  0.58666  1.0000
  H   H1971     1.0  0.78188  0.83537  0.61198  1.0000
  H   H1972     1.0  0.77720  0.85490  0.59035  1.0000
  H   H1973     1.0  0.86817  0.87110  0.58837  1.0000
  H   H1974     1.0  0.86800  0.89059  0.60848  1.0000
  H   H1975     1.0  0.84337  0.88982  0.59387  1.0000
  H   H1976     1.0  0.85825  0.83493  0.56228  1.0000
  H   H1977     1.0  0.84075  0.85877  0.56904  1.0000
  H   H1978     1.0  0.82830  0.83305  0.56215  1.0000
  C   C1173     1.0  0.81297  0.53967  0.51912  1.0000
  H   H1979     1.0  0.72295  0.54107  0.69125  1.0000
  H   H1980     1.0  0.66462  0.77314  0.60658  1.0000
  H   H1981     1.0  0.80972  0.94760  0.51132  1.0000
  H   H1982     1.0  0.88956  0.62442  0.71174  1.0000
  H   H1983     1.0  0.87217  0.59097  0.56062  1.0000
  H   H1984     1.0  0.77693  0.52415  0.67506  1.0000
  H   H1985     1.0  0.83727  0.70510  0.51801  1.0000
  C   C1174     1.0  0.92632  0.55684  0.73335  1.0000
  H   H1986     1.0  0.59676  0.60421  0.61372  1.0000
  H   H1987     1.0  0.65269  0.56667  0.62561  1.0000
  H   H1988     1.0  0.86708  0.95848  0.52846  1.0000
  C   C1175     1.0  0.50671  0.80531  0.72659  1.0000
  H   H1989     1.0  0.82928  0.70323  0.49250  1.0000
  H   H1990     1.0  0.61558  0.57672  0.59393  1.0000
  C   C1176     1.0  0.66007  0.91449  0.72449  1.0000
  H   H1991     1.0  0.86905  0.66409  0.53032  1.0000
  H   H1992     1.0  0.87581  0.52665  0.54935  1.0000
  H   H1993     1.0  0.57379  0.58450  0.59579  1.0000
  H   H1994     1.0  0.95033  0.56368  0.69710  1.0000
  C   C1177     1.0  0.86056  0.51730  0.55516  1.0000
  C   C1178     1.0  0.81493  0.93514  0.49946  1.0000
  C   C1179     1.0  0.89670  0.57382  0.68199  1.0000
  H   H1995     1.0  0.77998  0.92517  0.49877  1.0000
  H   H1996     1.0  0.59647  0.55823  0.65808  1.0000
  H   H1997     1.0  0.75311  0.60385  0.68503  1.0000
  C   C1180     1.0  0.59688  0.59398  0.62880  1.0000
  H   H1998     1.0  0.61495  0.78829  0.62527  1.0000
  C   C1181     1.0  0.75953  0.56675  0.68267  1.0000
  H   H1999     1.0  0.79155  0.53996  0.54822  1.0000
  H   H2000     1.0  0.78868  0.67783  0.54354  1.0000
  C   C1182     1.0  0.58245  0.55685  0.61956  1.0000
  H   H2001     1.0  0.66444  0.85039  0.70965  1.0000
  H   H2002     1.0  0.83307  0.67670  0.54415  1.0000
  C   C1183     1.0  0.64426  0.57697  0.61308  1.0000
  C   C1184     1.0  0.72159  0.54184  0.70835  1.0000
  H   H2003     1.0  0.51481  0.75632  0.70022  1.0000
  N   N84       1.0  0.91980  0.57313  0.71541  1.0000
  N   N85       1.0  0.60280  0.56917  0.62566  1.0000
  H   H2004     1.0  0.61022  0.60169  0.63749  1.0000
  H   H2005     1.0  0.65590  0.57623  0.59893  1.0000
  H   H2006     1.0  0.63567  0.53197  0.63467  1.0000
  H   H2007     1.0  0.78628  0.70147  0.51133  1.0000
  H   H2008     1.0  0.83857  0.94967  0.53226  1.0000
  H   H2009     1.0  0.80166  0.65945  0.56297  1.0000
  C   C1185     1.0  0.90509  0.56064  0.70168  1.0000
  C   C1186     1.0  0.82420  0.69763  0.50887  1.0000
  C   C1187     1.0  0.86908  0.67018  0.51368  1.0000
  H   H2010     1.0  0.57308  0.61714  0.64496  1.0000
  C   C1188     1.0  0.82378  0.66483  0.53508  1.0000
  H   H2011     1.0  0.76010  0.98728  0.50792  1.0000
  H   H2012     1.0  0.62429  0.54952  0.60419  1.0000
  C   C1189     1.0  0.77508  0.57645  0.71513  1.0000
  H   H2013     1.0  0.74473  0.59271  0.66161  1.0000
  C   C1190     1.0  0.79156  0.53283  0.53259  1.0000
  C   C1191     1.0  0.77542  0.53648  0.70674  1.0000
  H   H2014     1.0  0.91418  0.54475  0.69659  1.0000
  H   H2015     1.0  0.84834  0.64441  0.50320  1.0000
  H   H2016     1.0  0.85380  0.85080  0.71633  1.0000
  H   H2017     1.0  0.72743  0.58760  0.68483  1.0000
  C   C1192     1.0  0.85454  0.53712  0.51190  1.0000
  H   H2018     1.0  0.70409  0.54897  0.71177  1.0000
  H   H2019     1.0  0.83809  0.54676  0.55058  1.0000
  H   H2020     1.0  0.91022  0.61405  0.69334  1.0000
  H   H2021     1.0  0.95155  0.60523  0.72448  1.0000
  H   H2022     1.0  0.79146  0.64740  0.54070  1.0000
  H   H2023     1.0  0.82434  0.52105  0.55680  1.0000
  H   H2024     1.0  0.52782  0.78290  0.69556  1.0000
  H   H2025     1.0  0.64828  0.90633  0.73654  1.0000
  H   H2026     1.0  0.78936  0.66554  0.50775  1.0000
  C   C1193     1.0  0.80162  0.71029  0.51508  1.0000
  H   H2027     1.0  0.91078  0.57984  0.67124  1.0000
  H   H2028     1.0  0.62391  0.56862  0.65239  1.0000
  H   H2029     1.0  0.80078  0.71377  0.53190  1.0000
  H   H2030     1.0  0.88883  0.58946  0.72820  1.0000
  H   H2031     1.0  0.65952  0.79891  0.61861  1.0000
  H   H2032     1.0  0.68523  0.78207  0.62391  1.0000
  N   N86       1.0  0.64614  0.78041  0.65826  1.0000
  C   C1194     1.0  0.63222  0.76451  0.67260  1.0000
  C   C1195     1.0  0.63085  0.80082  0.65263  1.0000
  C   C1196     1.0  0.66596  0.78741  0.67021  1.0000
  C   C1197     1.0  0.65441  0.76772  0.63944  1.0000
  H   H2033     1.0  0.93770  0.54261  0.72771  1.0000
  C   C1198     1.0  0.57398  0.59908  0.64078  1.0000
  C   C1199     1.0  0.67701  0.81000  0.66306  1.0000
  C   C1200     1.0  0.66673  0.78145  0.62139  1.0000
  H   H2034     1.0  0.62622  0.52829  0.66130  1.0000
  H   H2035     1.0  0.65151  0.73162  0.66972  1.0000
  H   H2036     1.0  0.64015  0.81434  0.64352  1.0000
  C   C1201     1.0  0.80663  0.66126  0.50100  1.0000
  H   H2037     1.0  0.66062  0.78933  0.68697  1.0000
  H   H2038     1.0  0.67983  0.77395  0.67020  1.0000
  H   H2039     1.0  0.66673  0.75370  0.64397  1.0000
  H   H2040     1.0  0.64037  0.75865  0.63294  1.0000
  S   S346      1.0  0.56849  0.82315  0.73310  1.0000
  H   H2041     1.0  0.91574  0.93653  0.73271  1.0000
  C   C1202     1.0  0.62049  0.53370  0.64551  1.0000
  H   H2042     1.0  0.73071  0.57417  0.71907  1.0000
  N   N87       1.0  0.50790  0.77988  0.72479  1.0000
  C   C1203     1.0  0.77078  0.51859  0.69107  1.0000
  H   H2043     1.0  0.68120  0.81169  0.64612  1.0000
  C   C1204     1.0  0.72539  0.90727  0.71130  1.0000
  H   H2044     1.0  0.85632  0.92228  0.69981  1.0000
  H   H2045     1.0  0.85645  0.55479  0.51674  1.0000
  S   S347      1.0  0.86992  0.87665  0.51596  1.0000
  C   C1205     1.0  0.74535  0.58905  0.67873  1.0000
  H   H2046     1.0  0.72299  0.52426  0.71549  1.0000
  H   H2047     1.0  0.59740  0.78589  0.64942  1.0000
  H   H2048     1.0  0.52200  0.81311  0.71856  1.0000
  C   C1206     1.0  0.70085  0.91754  0.71311  1.0000
  H   H2049     1.0  0.80870  0.53884  0.50264  1.0000
  H   H2050     1.0  0.91856  0.62804  0.71591  1.0000
  S   S348      1.0  0.84030  0.61904  0.71852  1.0000
  H   H2051     1.0  0.60109  0.81279  0.63606  1.0000
  H   H2052     1.0  0.93863  0.59048  0.68942  1.0000
  H   H2053     1.0  0.82421  0.86047  0.51208  1.0000
  H   H2054     1.0  0.88926  0.55518  0.71042  1.0000
  H   H2055     1.0  0.87084  0.52774  0.51531  1.0000
  H   H2056     1.0  0.64042  0.94591  0.72954  1.0000
  H   H2057     1.0  0.62448  0.77375  0.68605  1.0000
  H   H2058     1.0  0.75170  0.55400  0.67359  1.0000
  H   H2059     1.0  0.61773  0.75804  0.66454  1.0000
  C   C1207     1.0  0.90672  0.61588  0.71019  1.0000
  C   C1208     1.0  0.94167  0.57921  0.70342  1.0000
  H   H2060     1.0  0.69315  0.81125  0.67109  1.0000
  H   H2061     1.0  0.69562  0.92212  0.69694  1.0000
  C   C1209     1.0  0.64513  0.74322  0.68188  1.0000
  H   H2062     1.0  0.77608  0.54020  0.52515  1.0000
  H   H2063     1.0  0.76499  0.59277  0.71621  1.0000
  C   C1210     1.0  0.90692  0.59349  0.72409  1.0000
  C   C1211     1.0  0.68258  0.88131  0.71275  1.0000
  H   H2064     1.0  0.81509  0.55804  0.52096  1.0000
  S   S349      1.0  0.57091  0.61902  0.73096  1.0000
  C   C1212     1.0  0.57155  0.56612  0.59924  1.0000
  H   H2065     1.0  0.77675  0.56897  0.67489  1.0000
  C   C1213     1.0  0.84770  0.66329  0.50292  1.0000
  C   C1214     1.0  0.61001  0.79624  0.64012  1.0000
  C   C1215     1.0  0.79987  0.66247  0.54590  1.0000
  C   C1216     1.0  0.73909  0.55708  0.71706  1.0000
  H   H2066     1.0  0.79064  0.58059  0.70529  1.0000
  H   H2067     1.0  0.85959  0.92498  0.50778  1.0000
  C   C1217     1.0  0.85086  0.95741  0.52050  1.0000
  C   C1218     1.0  0.61072  0.55839  0.64601  1.0000
  H   H2068     1.0  0.62429  0.80908  0.66695  1.0000
  H   H2069     1.0  0.64263  0.59499  0.61720  1.0000
  H   H2070     1.0  0.97293  0.59757  0.70507  1.0000
  S   S350      1.0  0.87659  0.88982  0.72940  1.0000
  H   H2071     1.0  0.70195  0.93411  0.72019  1.0000
  H   H2072     1.0  0.56897  0.55591  0.63241  1.0000
  C   C1219     1.0  0.59632  0.70289  0.72266  1.0000
  H   H2073     1.0  0.98864  0.59349  0.49010  1.0000
  H   H2074     1.0  0.51073  0.84694  0.67836  1.0000
  C   C1220     1.0  0.85516  0.94254  0.50157  1.0000
  H   H2075     1.0  0.58718  0.53871  0.61710  1.0000
  H   H2076     1.0  0.88465  0.58807  0.68601  1.0000
  H   H2077     1.0  0.87141  0.68876  0.51210  1.0000
  H   H2078     1.0  0.73671  0.92031  0.70374  1.0000
  C   C1221     1.0  0.83840  0.52858  0.54687  1.0000
  H   H2079     1.0  0.84816  0.57045  0.72801  1.0000
  H   H2080     1.0  0.51500  0.59692  0.72085  1.0000
  C   C1222     1.0  0.95922  0.59078  0.71594  1.0000
  H   H2081     1.0  0.87141  0.73164  0.73371  1.0000
  H   H2082     1.0  0.88440  0.66198  0.50600  1.0000
  C   C1223     1.0  0.53331  0.74464  0.73611  1.0000
  H   H2083     1.0  0.53889  0.73894  0.72048  1.0000
  H   H2084     1.0  0.72678  0.89266  0.70112  1.0000
  C   C1224     1.0  0.52853  0.77063  0.73608  1.0000
  H   H2085     1.0  0.66594  0.94999  0.71377  1.0000
  H   H2086     1.0  0.80056  0.72679  0.50582  1.0000
  H   H2087     1.0  0.96761  0.57853  0.72716  1.0000
  N   N88       1.0  0.68342  0.90269  0.72456  1.0000
  H   H2088     1.0  0.73211  0.90231  0.72677  1.0000
  H   H2089     1.0  0.54424  0.77893  0.72955  1.0000
  H   H2090     1.0  0.66373  0.85885  0.73588  1.0000
  S   S351      1.0  0.60372  0.67601  0.73465  1.0000
  H   H2091     1.0  0.95297  0.88560  0.72567  1.0000
  C   C1225     1.0  0.65865  0.94025  0.72768  1.0000
  H   H2092     1.0  0.92513  0.89849  0.72861  1.0000
  H   H2093     1.0  0.79538  0.55533  0.73761  1.0000
  C   C1226     1.0  0.93987  0.89165  0.73739  1.0000
  C   C1227     1.0  0.78307  0.57012  0.73731  1.0000
  Fe  Fe178     1.0  0.68050  0.90791  0.87826  1.0000
  S   S352      1.0  0.70759  0.93274  0.88161  1.0000
  S   S353      1.0  0.67478  0.87961  0.90301  1.0000
  Fe  Fe179     1.0  0.66880  0.92854  0.83583  1.0000
  S   S354      1.0  0.69496  0.95537  0.83643  1.0000
  S   S355      1.0  0.64552  0.92874  0.80873  1.0000
  Fe  Fe180     1.0  0.71809  0.92641  0.84822  1.0000
  S   S356      1.0  0.75578  0.92410  0.83724  1.0000
  Fe  Fe181     1.0  0.68206  0.95935  0.86978  1.0000
  S   S357      1.0  0.68016  0.99094  0.88912  1.0000
  S   S358      1.0  0.69260  0.89952  0.84565  1.0000
  S   S359      1.0  0.65423  0.93452  0.86837  1.0000
  Fe  Fe182     1.0  0.67707  0.54886  0.90047  1.0000
  H   H2094     1.0  0.72953  0.58510  0.76470  1.0000
  S   S360      1.0  0.68280  0.56929  0.92853  1.0000
  Fe  Fe183     1.0  0.64994  0.54690  0.86150  1.0000
  H   H2095     1.0  0.62179  0.53475  0.96447  1.0000
  S   S361      1.0  0.62520  0.57128  0.84489  1.0000
  H   H2096     1.0  0.77238  0.80569  0.79450  1.0000
  Fe  Fe184     1.0  0.69900  0.52878  0.86070  1.0000
  S   S362      1.0  0.72888  0.52673  0.83625  1.0000
  S   S363      1.0  0.64301  0.53565  0.89500  1.0000
  S   S364      1.0  0.68280  0.56280  0.86744  1.0000
  Fe  Fe185     1.0  0.88934  0.60351  0.78088  1.0000
  S   S365      1.0  0.88426  0.63401  0.75886  1.0000
  S   S366      1.0  0.92314  0.58346  0.78568  1.0000
  Fe  Fe186     1.0  0.83826  0.60475  0.79702  1.0000
  S   S367      1.0  0.83006  0.63548  0.77604  1.0000
  S   S368      1.0  0.81244  0.59319  0.82306  1.0000
  H   H2097     1.0  0.84304  0.56260  0.85144  1.0000
  C   C1228     1.0  0.64297  0.60789  0.96754  1.0000
  Fe  Fe187     1.0  0.86302  0.64916  0.78501  1.0000
  S   S369      1.0  0.86662  0.68324  0.79874  1.0000
  S   S370      1.0  0.85804  0.58578  0.77202  1.0000
  S   S371      1.0  0.87011  0.61967  0.80763  1.0000
  Fe  Fe188     1.0  0.85724  0.84088  0.79406  1.0000
  S   S372      1.0  0.85229  0.83520  0.76041  1.0000
  S   S373      1.0  0.82475  0.84094  0.81550  1.0000
  Fe  Fe189     1.0  0.91025  0.83938  0.78668  1.0000
  S   S374      1.0  0.90828  0.83413  0.75258  1.0000
  S   S375      1.0  0.94429  0.83922  0.80280  1.0000
  C   C1229     1.0  0.97792  0.62061  0.76433  1.0000
  H   H2098     1.0  0.73369  0.90640  0.91501  1.0000
  Fe  Fe190     1.0  0.88132  0.80925  0.76264  1.0000
  H   H2099     1.0  0.88784  0.93950  0.74459  1.0000
  S   S376      1.0  0.88302  0.86777  0.78713  1.0000
  S   S377      1.0  0.88464  0.81283  0.79685  1.0000
  H   H2100     1.0  0.52155  0.81214  0.75624  1.0000
  C   C1230     1.0  0.87329  0.73056  0.75038  1.0000
  H   H2101     1.0  0.76180  0.93310  0.90359  1.0000
  C   C1231     1.0  0.99054  0.84288  0.80619  1.0000
  C   C1232     1.0  0.97249  0.84450  0.79257  1.0000
  C   C1233     1.0  0.97723  0.85120  0.77161  1.0000
  H   H2102     1.0  0.58129  0.90520  0.84884  1.0000
  H   H2103     1.0  0.77332  0.84508  0.90690  1.0000
  H   H2104     1.0  0.98711  0.83776  0.82245  1.0000
  H   H2105     1.0  0.96369  0.85204  0.76085  1.0000
  C   C1234     1.0  0.87218  0.70835  0.78342  1.0000
  C   C1235     1.0  0.87757  0.72779  0.79345  1.0000
  C   C1236     1.0  0.88076  0.74855  0.78205  1.0000
  C   C1237     1.0  0.87826  0.75010  0.76053  1.0000
  H   H2106     1.0  0.82351  0.76389  0.74305  1.0000
  C   C1238     1.0  0.87025  0.70970  0.76179  1.0000
  H   H2107     1.0  0.87918  0.72679  0.81017  1.0000
  H   H2108     1.0  0.88496  0.76337  0.78996  1.0000
  H   H2109     1.0  0.90315  0.58523  0.85178  1.0000
  H   H2110     1.0  0.60323  0.97126  0.96550  1.0000
  Fe  Fe191     1.0  0.85180  0.61751  0.75167  1.0000
  C   C1239     1.0  0.95535  0.61374  0.76873  1.0000
  C   C1240     1.0  0.95117  0.59394  0.78115  1.0000
  C   C1241     1.0  0.96989  0.58140  0.78940  1.0000
  H   H2111     1.0  0.86214  0.52767  0.84409  1.0000
  C   C1242     1.0  0.94527  0.93795  0.77687  1.0000
  N   N89       1.0  0.69109  0.56185  0.78632  1.0000
  H   H2112     1.0  0.59703  0.84646  0.84990  1.0000
  C   C1243     1.0  0.75163  0.54582  0.83243  1.0000
  C   C1244     1.0  0.76672  0.54423  0.81473  1.0000
  C   C1245     1.0  0.78499  0.55902  0.81116  1.0000
  C   C1246     1.0  0.78865  0.57531  0.82551  1.0000
  C   C1247     1.0  0.77352  0.57690  0.84313  1.0000
  C   C1248     1.0  0.75499  0.56246  0.84646  1.0000
  H   H2113     1.0  0.66762  0.96760  0.97982  1.0000
  H   H2114     1.0  0.79657  0.55743  0.79764  1.0000
  H   H2115     1.0  0.77619  0.58937  0.85438  1.0000
  H   H2116     1.0  0.74358  0.56391  0.86014  1.0000
  C   C1249     1.0  0.65892  0.58115  0.94245  1.0000
  C   C1250     1.0  0.63688  0.57469  0.93910  1.0000
  C   C1251     1.0  0.61798  0.58508  0.94950  1.0000
  C   C1252     1.0  0.62091  0.60193  0.96348  1.0000
  C   C1253     1.0  0.59933  0.90870  0.84487  1.0000
  C   C1254     1.0  0.66194  0.59753  0.95699  1.0000
  H   H2117     1.0  0.63429  0.56179  0.92842  1.0000
  H   H2118     1.0  0.60095  0.58024  0.94652  1.0000
  H   H2119     1.0  0.67896  0.60255  0.95978  1.0000
  C   C1255     1.0  0.61904  0.56786  0.81881  1.0000
  C   C1256     1.0  0.62038  0.54647  0.81047  1.0000
  C   C1257     1.0  0.61565  0.54432  0.78949  1.0000
  C   C1258     1.0  0.60966  0.56355  0.77676  1.0000
  C   C1259     1.0  0.60817  0.58494  0.78514  1.0000
  C   C1260     1.0  0.61264  0.58704  0.80618  1.0000
  H   H2120     1.0  0.62497  0.53156  0.82020  1.0000
  H   H2121     1.0  0.61666  0.52772  0.78308  1.0000
  H   H2122     1.0  0.60351  0.59983  0.77541  1.0000
  H   H2123     1.0  0.61146  0.60363  0.81255  1.0000
  C   C1261     1.0  0.77401  0.90082  0.82949  1.0000
  C   C1262     1.0  0.76672  0.87849  0.83022  1.0000
  C   C1263     1.0  0.78233  0.86040  0.82551  1.0000
  C   C1264     1.0  0.80523  0.86445  0.81937  1.0000
  C   C1265     1.0  0.81228  0.88687  0.81788  1.0000
  C   C1266     1.0  0.79682  0.90488  0.82311  1.0000
  H   H2124     1.0  0.74915  0.87516  0.83461  1.0000
  H   H2125     1.0  0.77665  0.84316  0.82671  1.0000
  H   H2126     1.0  0.82982  0.89030  0.81327  1.0000
  H   H2127     1.0  0.80263  0.92209  0.82236  1.0000
  H   H2128     1.0  0.61232  0.87764  0.83210  1.0000
  H   H2129     1.0  0.66196  0.60543  0.81321  1.0000
  C   C1267     1.0  0.64032  0.90422  0.79542  1.0000
  C   C1268     1.0  0.65178  0.88342  0.79994  1.0000
  C   C1269     1.0  0.64642  0.86399  0.78974  1.0000
  C   C1270     1.0  0.62979  0.86525  0.77477  1.0000
  C   C1271     1.0  0.61880  0.88620  0.76980  1.0000
  C   C1272     1.0  0.62404  0.90560  0.78013  1.0000
  H   H2130     1.0  0.66462  0.88225  0.81142  1.0000
  H   H2131     1.0  0.65514  0.84786  0.79351  1.0000
  H   H2132     1.0  0.60594  0.88738  0.75832  1.0000
  H   H2133     1.0  0.61518  0.92168  0.77647  1.0000
  C   C1273     1.0  0.65791  0.88680  0.92536  1.0000
  C   C1274     1.0  0.65387  0.87025  0.94157  1.0000
  C   C1275     1.0  0.63958  0.87539  0.95909  1.0000
  C   C1276     1.0  0.62920  0.89708  0.96038  1.0000
  C   C1277     1.0  0.63334  0.91357  0.94419  1.0000
  C   C1278     1.0  0.64775  0.90855  0.92681  1.0000
  H   H2134     1.0  0.66161  0.85335  0.94053  1.0000
  H   H2135     1.0  0.63643  0.86252  0.97148  1.0000
  H   H2136     1.0  0.55902  0.85184  0.87301  1.0000
  H   H2137     1.0  0.65081  0.92146  0.91447  1.0000
  C   C1279     1.0  0.74447  0.86100  0.94414  1.0000
  H   H2138     1.0  0.97948  0.95042  0.77929  1.0000
  H   H2139     1.0  0.84293  0.78029  0.78234  1.0000
  H   H2140     1.0  0.79760  0.72502  0.80676  1.0000
  C   C1280     1.0  0.77384  0.86378  0.90330  1.0000
  H   H2141     1.0  0.69167  0.59860  0.81536  1.0000
  H   H2142     1.0  0.56463  0.87003  0.84994  1.0000
  H   H2143     1.0  0.78325  0.91188  0.89785  1.0000
  H   H2144     1.0  0.67927  0.59661  0.77850  1.0000
  H   H2145     1.0  0.71079  0.51860  0.78763  1.0000
  H   H2146     1.0  0.67801  0.92110  0.76892  1.0000
  H   H2147     1.0  0.63171  0.82803  0.84997  1.0000
  H   H2148     1.0  0.67583  0.88587  0.75476  1.0000
  C   C1281     1.0  0.93793  0.89726  0.78573  1.0000
  H   H2149     1.0  0.85744  0.58124  0.83373  1.0000
  C   C1282     1.0  0.59028  0.99513  0.92936  1.0000
  H   H2150     1.0  0.93451  0.87666  0.74725  1.0000
  C   C1283     1.0  0.76464  0.91578  0.89774  1.0000
  H   H2151     1.0  0.71810  0.86860  0.92246  1.0000
  H   H2152     1.0  0.95597  0.89160  0.78784  1.0000
  H   H2153     1.0  0.60019  0.91628  0.82863  1.0000
  H   H2154     1.0  0.75892  0.91685  0.88161  1.0000
  H   H2155     1.0  0.75947  0.89907  0.92747  1.0000
  H   H2156     1.0  0.57509  0.96627  0.95993  1.0000
  H   H2157     1.0  0.90853  0.90529  0.80746  1.0000
  N   N90       1.0  0.75025  0.87497  0.90531  1.0000
  C   C1284     1.0  0.81807  0.78141  0.74705  1.0000
  C   C1285     1.0  0.69156  0.55733  0.76345  1.0000
  H   H2158     1.0  0.62521  0.93023  0.94509  1.0000
  H   H2159     1.0  0.72160  0.88580  0.88696  1.0000
  H   H2160     1.0  0.68468  0.54407  0.81639  1.0000
  H   H2161     1.0  0.82246  0.71207  0.79495  1.0000
  H   H2162     1.0  0.78465  0.77471  0.76071  1.0000
  H   H2163     1.0  0.93536  0.91578  0.81487  1.0000
  H   H2164     1.0  0.74579  0.83937  0.87927  1.0000
  H   H2165     1.0  0.79063  0.76103  0.81593  1.0000
  H   H2166     1.0  0.72659  0.55110  0.78917  1.0000
  S   S378      1.0  0.69636  0.51592  0.89453  1.0000
  C   C1286     1.0  0.78693  0.86657  0.88186  1.0000
  C   C1287     1.0  0.94992  0.91000  0.75001  1.0000
  H   H2167     1.0  0.85701  0.55228  0.81198  1.0000
  H   H2168     1.0  0.64220  0.85190  0.83382  1.0000
  C   C1288     1.0  0.73786  0.87559  0.88532  1.0000
  H   H2169     1.0  0.73516  0.84786  0.95387  1.0000
  H   H2170     1.0  0.84079  0.60224  0.86187  1.0000
  S   S379      1.0  0.61085  0.90432  0.98177  1.0000
  C   C1289     1.0  0.73159  0.85226  0.87802  1.0000
  H   H2171     1.0  0.64625  0.95243  0.96851  1.0000
  H   H2172     1.0  0.74758  0.88438  0.87222  1.0000
  H   H2173     1.0  0.76488  0.79319  0.81965  1.0000
  H   H2174     1.0  0.92977  0.88200  0.78068  1.0000
  C   C1290     1.0  0.82770  0.78280  0.79308  1.0000
  H   H2175     1.0  0.71632  0.84591  0.88711  1.0000
  C   C1291     1.0  0.85871  0.57264  0.84944  1.0000
  H   H2176     1.0  0.61474  0.97921  0.90780  1.0000
  H   H2177     1.0  0.77967  0.85627  0.87016  1.0000
  H   H2178     1.0  0.51856  0.73489  0.74250  1.0000
  C   C1292     1.0  0.83573  0.77648  0.81522  1.0000
  C   C1293     1.0  0.75127  0.89889  0.91231  1.0000
  H   H2179     1.0  0.83319  0.79116  0.74976  1.0000
  H   H2180     1.0  0.91417  0.59770  0.73901  1.0000
  H   H2181     1.0  0.86851  0.51742  0.88199  1.0000
  H   H2182     1.0  0.96872  0.93609  0.80251  1.0000
  S   S380      1.0  0.87998  0.77640  0.74610  1.0000
  H   H2183     1.0  0.76293  0.85648  0.94471  1.0000
  H   H2184     1.0  0.65749  0.57832  0.78752  1.0000
  H   H2185     1.0  0.61844  0.50620  0.97417  1.0000
  Fe  Fe192     1.0  0.87945  0.86041  0.75345  1.0000
  C   C1294     1.0  0.86586  0.53591  0.88423  1.0000
  H   H2186     1.0  0.94123  0.62364  0.76226  1.0000
  H   H2187     1.0  0.82442  0.80154  0.79171  1.0000
  H   H2188     1.0  0.88755  0.55158  0.80617  1.0000
  H   H2189     1.0  0.72698  0.85414  0.86147  1.0000
  H   H2190     1.0  0.97960  0.92017  0.78070  1.0000
  S   S381      1.0  0.60478  0.56030  0.75035  1.0000
  S   S382      1.0  0.62291  0.84017  0.76313  1.0000
  H   H2191     1.0  0.70419  0.54342  0.75964  1.0000
  C   C1295     1.0  0.92279  0.55819  0.83774  1.0000
  C   C1296     1.0  0.92719  0.90185  0.80759  1.0000
  H   H2192     1.0  0.64542  0.50843  0.94422  1.0000
  H   H2193     1.0  0.78495  0.87001  0.91509  1.0000
  H   H2194     1.0  0.73525  0.84366  0.91781  1.0000
  H   H2195     1.0  0.78760  0.88438  0.87554  1.0000
  H   H2196     1.0  0.80485  0.86016  0.88339  1.0000
  H   H2197     1.0  0.74052  0.87736  0.95155  1.0000
  H   H2198     1.0  0.84846  0.54118  0.87968  1.0000
  H   H2199     1.0  0.66372  0.54075  0.79814  1.0000
  H   H2200     1.0  0.92980  0.88631  0.81797  1.0000
  H   H2201     1.0  0.68212  0.50928  0.78445  1.0000
  H   H2202     1.0  0.61576  0.96667  0.93345  1.0000
  C   C1297     1.0  0.59514  0.85534  0.86476  1.0000
  C   C1298     1.0  0.61532  0.88728  0.84604  1.0000
  C   C1299     1.0  0.87713  0.53726  0.83772  1.0000
  C   C1300     1.0  0.91133  0.92092  0.76491  1.0000
  S   S383      1.0  0.66595  0.51303  0.85333  1.0000
  H   H2203     1.0  0.79228  0.58463  0.74268  1.0000
  C   C1301     1.0  0.88483  0.54951  0.87225  1.0000
  C   C1302     1.0  0.58595  0.97941  0.96570  1.0000
  C   C1303     1.0  0.85643  0.59160  0.86505  1.0000
  H   H2204     1.0  0.90126  0.92620  0.77905  1.0000
  H   H2205     1.0  0.84950  0.76303  0.81489  1.0000
  C   C1304     1.0  0.99244  0.58862  0.78547  1.0000
  N   N91       1.0  0.58468  0.00082  0.95169  1.0000
  C   C1305     1.0  0.87329  0.54246  0.81434  1.0000
  H   H2206     1.0  0.87095  0.60306  0.86332  1.0000
  H   H2207     1.0  0.82578  0.73336  0.81287  1.0000
  H   H2208     1.0  0.69723  0.57249  0.75378  1.0000
  H   H2209     1.0  0.59234  0.54958  0.98194  1.0000
  H   H2210     1.0  0.88932  0.56372  0.88177  1.0000
  H   H2211     1.0  0.85438  0.58461  0.88139  1.0000
  C   C1306     1.0  0.57036  0.86506  0.86582  1.0000
  H   H2212     1.0  0.71642  0.60293  0.78446  1.0000
  N   N92       1.0  0.80787  0.77037  0.78595  1.0000
  C   C1307     1.0  0.77912  0.79495  0.80768  1.0000
  H   H2213     1.0  0.82210  0.77120  0.82668  1.0000
  H   H2214     1.0  0.66586  0.93706  0.98467  1.0000
  C   C1308     1.0  0.96956  0.93557  0.78524  1.0000
  H   H2215     1.0  0.89193  0.52494  0.83906  1.0000
  C   C1309     1.0  0.61352  0.98309  0.92454  1.0000
  N   N93       1.0  0.88012  0.55767  0.85022  1.0000
  H   H2216     1.0  0.84262  0.79175  0.82162  1.0000
  N   N94       1.0  0.61374  0.87199  0.86577  1.0000
  C   C1310     1.0  0.63621  0.85870  0.86725  1.0000
  C   C1311     1.0  0.61087  0.88592  0.88481  1.0000
  C   C1312     1.0  0.60651  0.87242  0.90586  1.0000
  H   H2217     1.0  0.65043  0.87050  0.86791  1.0000
  H   H2218     1.0  0.63669  0.84767  0.88181  1.0000
  H   H2219     1.0  0.59655  0.89867  0.88374  1.0000
  H   H2220     1.0  0.62619  0.89612  0.88619  1.0000
  H   H2221     1.0  0.63285  0.89374  0.84327  1.0000
  H   H2222     1.0  0.59069  0.86281  0.90626  1.0000
  H   H2223     1.0  0.62106  0.86082  0.91005  1.0000
  H   H2224     1.0  0.60425  0.88459  0.91845  1.0000
  H   H2225     1.0  0.60505  0.92188  0.85488  1.0000
  N   N95       1.0  0.61340  0.62330  0.88963  1.0000
  C   C1313     1.0  0.63435  0.62606  0.90180  1.0000
  C   C1314     1.0  0.59541  0.64018  0.89751  1.0000
  C   C1315     1.0  0.61977  0.62902  0.86694  1.0000
  C   C1316     1.0  0.60636  0.59902  0.89298  1.0000
  C   C1317     1.0  0.65617  0.61257  0.89463  1.0000
  C   C1318     1.0  0.58792  0.63688  0.92082  1.0000
  C   C1319     1.0  0.60043  0.63072  0.85160  1.0000
  C   C1320     1.0  0.58234  0.59331  0.88653  1.0000
  H   H2226     1.0  0.63880  0.64428  0.90154  1.0000
  H   H2227     1.0  0.63120  0.62076  0.91855  1.0000
  H   H2228     1.0  0.57966  0.64033  0.88888  1.0000
  H   H2229     1.0  0.60149  0.65782  0.89487  1.0000
  H   H2230     1.0  0.62844  0.64554  0.86522  1.0000
  H   H2231     1.0  0.63223  0.61604  0.86071  1.0000
  H   H2232     1.0  0.61881  0.58741  0.88490  1.0000
  H   H2233     1.0  0.60728  0.59329  0.90962  1.0000
  H   H2234     1.0  0.66309  0.61886  0.87909  1.0000
  H   H2235     1.0  0.66964  0.61481  0.90575  1.0000
  H   H2236     1.0  0.65350  0.59409  0.89471  1.0000
  H   H2237     1.0  0.60148  0.64132  0.93106  1.0000
  H   H2238     1.0  0.57305  0.64853  0.92435  1.0000
  H   H2239     1.0  0.58253  0.61937  0.92514  1.0000
  H   H2240     1.0  0.59314  0.61398  0.84979  1.0000
  H   H2241     1.0  0.60777  0.63615  0.83592  1.0000
  H   H2242     1.0  0.58693  0.64366  0.85550  1.0000
  H   H2243     1.0  0.58393  0.58054  0.87441  1.0000
  H   H2244     1.0  0.57177  0.60773  0.88027  1.0000
  H   H2245     1.0  0.57255  0.58539  0.90012  1.0000
  H   H2246     1.0  0.98089  0.63577  0.75445  1.0000
  C   C1321     1.0  0.73610  0.86174  0.92175  1.0000
  H   H2247     1.0  0.98242  0.76539  0.76630  1.0000
  H   H2248     1.0  0.94563  0.95155  0.76412  1.0000
  C   C1322     1.0  0.66851  0.55153  0.75499  1.0000
  H   H2249     1.0  0.91315  0.53763  0.76096  1.0000
  H   H2250     1.0  0.66048  0.83616  0.85108  1.0000
  H   H2251     1.0  0.56760  0.87963  0.87584  1.0000
  H   H2252     1.0  0.79267  0.80389  0.81486  1.0000
  H   H2253     1.0  0.92923  0.54989  0.85228  1.0000
  C   C1323     1.0  0.64270  0.84291  0.84935  1.0000
  H   H2254     1.0  0.59672  0.84123  0.87697  1.0000
  H   H2255     1.0  0.66065  0.53677  0.76355  1.0000
  N   N96       1.0  0.93610  0.91656  0.76938  1.0000
  H   H2256     1.0  0.96697  0.56597  0.79891  1.0000
  C   C1324     1.0  0.78748  0.77108  0.80121  1.0000
  H   H2257     1.0  0.86606  0.53882  0.90114  1.0000
  C   C1325     1.0  0.63038  0.52046  0.97341  1.0000
  H   H2258     1.0  0.93358  0.94481  0.78942  1.0000
  C   C1326     1.0  0.67542  0.58230  0.79003  1.0000
  H   H2259     1.0  0.96726  0.90341  0.75395  1.0000
  C   C1327     1.0  0.67519  0.59147  0.81203  1.0000
  H   H2260     1.0  0.67117  0.54710  0.73847  1.0000
  C   C1328     1.0  0.81484  0.74604  0.78163  1.0000
  H   H2261     1.0  0.92195  0.54558  0.82569  1.0000
  C   C1329     1.0  0.81508  0.72850  0.80037  1.0000
  H   H2262     1.0  0.80332  0.73919  0.77048  1.0000
  H   H2263     1.0  0.76436  0.53132  0.80383  1.0000
  H   H2264     1.0  0.67057  0.57828  0.82426  1.0000
  H   H2265     1.0  0.71534  0.56747  0.80958  1.0000
  H   H2266     1.0  0.70317  0.92920  0.75327  1.0000
  H   H2267     1.0  0.90356  0.90506  0.76073  1.0000
  C   C1330     1.0  0.65135  0.51320  0.95945  1.0000
  C   C1331     1.0  0.69413  0.91478  0.76107  1.0000
  H   H2268     1.0  0.86605  0.69480  0.75393  1.0000
  H   H2269     1.0  0.77285  0.76286  0.79475  1.0000
  H   H2270     1.0  0.54771  0.74001  0.74627  1.0000
  H   H2271     1.0  0.74322  0.58847  0.78836  1.0000
  H   H2272     1.0  0.90031  0.53802  0.87248  1.0000
  H   H2273     1.0  0.65621  0.56634  0.75508  1.0000
  C   C1332     1.0  0.65592  0.95339  0.98278  1.0000
  H   H2274     1.0  0.63707  0.00330  0.86922  1.0000
  C   C1333     1.0  0.71493  0.56592  0.79243  1.0000
  H   H2275     1.0  0.89326  0.55878  0.75129  1.0000
  C   C1334     1.0  0.68234  0.54183  0.79958  1.0000
  H   H2276     1.0  0.79629  0.80046  0.76767  1.0000
  H   H2277     1.0  0.83216  0.74507  0.77385  1.0000
  C   C1335     1.0  0.72633  0.58689  0.78167  1.0000
  H   H2278     1.0  0.54821  0.99601  0.95134  1.0000
  C   C1336     1.0  0.80050  0.78210  0.76574  1.0000
  C   C1337     1.0  0.99665  0.60824  0.77276  1.0000
  C   C1338     1.0  0.99946  0.85730  0.76466  1.0000
  C   C1339     1.0  0.68968  0.89570  0.74654  1.0000
  H   H2279     1.0  0.89577  0.58036  0.82627  1.0000
  H   H2280     1.0  0.62774  0.99423  0.92675  1.0000
  H   H2281     1.0  0.76867  0.56698  0.74878  1.0000
  H   H2282     1.0  0.93576  0.57043  0.83169  1.0000
  H   H2283     1.0  0.54483  0.79563  0.98697  1.0000
  H   H2284     1.0  0.87204  0.52619  0.80666  1.0000
  S   S384      1.0  0.59657  0.61663  0.97367  1.0000
  H   H2285     1.0  0.57705  0.98417  0.92391  1.0000
  C   C1340     1.0  0.90646  0.54597  0.74646  1.0000
  C   C1341     1.0  0.98925  0.78242  0.76777  1.0000
  H   H2286     1.0  0.90964  0.95669  0.75273  1.0000
  H   H2287     1.0  0.70563  0.90795  0.77331  1.0000
  H   H2288     1.0  0.97433  0.79400  0.77148  1.0000
  C   C1342     1.0  0.89983  0.57141  0.84139  1.0000
  H   H2289     1.0  0.69390  0.50744  0.80921  1.0000
  H   H2290     1.0  0.64207  0.56077  0.98176  1.0000
  H   H2291     1.0  0.00272  0.86313  0.74857  1.0000
  C   C1343     1.0  0.90627  0.93952  0.74771  1.0000
  C   C1344     1.0  0.69316  0.51827  0.79450  1.0000
  H   H2292     1.0  0.60903  0.72124  0.74737  1.0000
  H   H2293     1.0  0.64536  0.62100  0.97823  1.0000
  H   H2294     1.0  0.52700  0.77452  0.75282  1.0000
  H   H2295     1.0  0.99703  0.78890  0.75262  1.0000
  H   H2296     1.0  0.99664  0.77649  0.80021  1.0000
  H   H2297     1.0  0.66652  0.54370  0.98570  1.0000
  H   H2298     1.0  0.66694  0.94490  0.74175  1.0000
  H   H2299     1.0  0.63022  0.99456  0.96087  1.0000
  H   H2300     1.0  0.70461  0.88343  0.74679  1.0000
  H   H2301     1.0  0.93627  0.56549  0.74461  1.0000
  H   H2302     1.0  0.66311  0.52728  0.95586  1.0000
  H   H2303     1.0  0.95281  0.92507  0.73910  1.0000
  H   H2304     1.0  0.89867  0.53256  0.73807  1.0000
