data_image0
_chemical_formula_structural       H3FeS2CH3S3FeC2H2NCH4CHFeH4C3HSH4C2H2C3HCSCH3SH2CFeH2CH3CHC3H8CSNHC2HCH6CH2CHSH3CSHC2FeH3C3HFeHCHC3H4CH3SH12CH3CS2H3CH2CHC2HC2HCFeSHFeS2FeSFeS2FeSHFeS2Fe2S3HC3HCHSH4NC12H11CH4C3HCHC4HCHNC4H13NC8H14CHCHCH4CH5C2H2S2CH4C4H3CH2C2HC2H2FeH4C6SFeH3CHFeH3NH3CHSHC2H3C2H3SCNCH3CHC2HCH3C2H3SCHCH4CH5CH3CH2CNCH5CSCH4C2H3C4SC2HCHCNHC2S2HNCS2H5SCHC2HC3HCH3C3H2CHSNH3FeHFeC2HCFeSCH2C2H3CHSC2HCS2HCH5SCH2CSNH4CH4FeH4SHC2H6FeC2H2CH2CHC2H3C2H3FeC2HNFe2SC2H2SCHC2SH5CFeHCHC2H6FeHC2SFeHCSCH2CFeH2SHC3SHC2HC3HC3SH4SCH7CH5C2HNCH3SCHFeH6CH6C4H4SH2SC3H2SHNC3SH2CH2FeS2FeS2FeSFeHS2CFeS2FeSHFeSFeSHCH4CH3C2H2CH7C6H6CSHNC4HCH6CHCH2SH6FeH2CHC2H2SH3C5HC3SHCH2CH6CH3CNCHC3HC3H7CH7NC8H21CHCH2C2HS2HSH4C2HCH7C2HCH2CH3CH3C2HNHFeH2NC3H2C2HC2H3CH2C2H3CH5C3HCH3CH4CN2SHSC2H4CH5CH2CHCHCFe2S2FeSCH3FeSH2CFeSFeS2HFeS2HSFeHFeSCSFeS2HCHCFeSHSH3CHC3H4CHSHCHSC6H3FeHC3HCSH2CH2C4HCH2C2HCHCSCH2C2H4CHCS2C2H2CHSC2NH2CHC2H2NC8H23CHCH2FeH2CSC2HCH2C5H2SCH3CH6SCH2CH5SCHCH2C2NH2CH3C4HC2HC2SH2FeH4CSNH7CHCHC2H8FeHNH2FeCFeSHFeSFeSFeS3FeS2FeS2FeHFeS3FeS2FeSHFeSFeSHSFeS2FeCHFe2SHSCH4CHCH4CH2CHCH3CHCHCHC6H7CHCHC6H8C2H4C2H2CHCH4C2NHC2HSHCH2CHCHC2H2CH4CH2CH2CH6CH4CHCH2SCH3CH6CHC2H2C2NH2C3NCHC2H7CHSH2NH6NHCHCHCH2CHCSC2H2CH3CH3SH2CH6CH2SC3HCHCH2CHC2H2NCHC5H2CH2CHCHC2H2CH2SCH5FeSHCH2FeCHSHFeS2FeSNFeCFeS3FeS2FeSCFe3S3H2CHFeSCFeSCHS2C2H7C2HCH9CNH3C3H9C6H7CH2CH7C2HC4H5C6H3CH4CH4CHSC2HSH5C2HC3H2CH3CH3NC3HC2H4NC2H2CH4CHC2H3CH5CHFeC2H4SH3S2HCSH2C2H3NHCNCHCHC2H2C2H2SH3CH6CHC2H3CHCH2CSCH2C2H2SHCHC3HFeHCH2C3H2SH2C2H3NCHS2C5H2CHCSFeS2FeSCFeSFeS2FeSH2SFeHFeS3FeS2H2CHFeH2SFeSHFeSHFeSFeHSH2C2H2C4NC2HCHCH3C5H2CH2C2HC8H13SNSHSCHC3H2C4H4C2H2CFeH5CH11CH2CH2CHCHCHC2HC2SHC2HNH4C2HCHCH3C2HCH2CH2CH2SH2C3H3C2HNHCH7CH4CH9C2H2CH6CHC2HC2H3NC2H2SHSH3C2H6NHCH2FeS2FeSHFeSFeS3CFeS2H4NHFeS2FeSFeSFeCS2H7FeCSHC4H12CHCH4C4H2C7H4CHCH2C3HC3H3CHCH4CH2CHCHCHCHCH2C3H7C2SH2NH2CHCHNHCH2CHNCNH7FeCH6CHCH2C2HCH3CHCH4C2H2C2H2C2HCHCH2CHCH2NH3C2HSC3HCSH5C3SC2HC2H3NH2C3H5SH2C2H3SC2SFeS2FeH2Fe3CS2H3C2HCHFeS2FeSCFeSFeHS2CH6CH3C2H2SCH3C2H3CHSHCHCH4CNHC2HCHSHC7H2SH4CSC4H2NSH2CSH3C2HNC4HC3H8CH13NC2HCH5CH2CHC2HCH2C2H2SH2CHCH2CHSHCSH4C2HCH5CHFeHC2H5FeSHFeS2FeSFeS3CH3CHFeHSFeSHFeS2FeHFeSHSCHCFeH2FeS2CH4C2HC4H3CHNH3C2HCH5CNC2SH2C2H2C2NH7C6H4C2HCH2SH2C2H3SCSHC2NC7H17SH3CHCH2C2HC4FeHCH3C2H2CHCH3CHCHCH5FeHCH5NC8H16CH2CHC2HC2H2CHCH2C3H2CH4SHCHC2H2C2SCFeHCHNH2CHSH2NH2C2SHCHCHCH2CH3CH6CHCH4CHC2HSH3CSH4CSH2SCH4CH3CHCHCH2NSCHFeHSFeC3HSHSCH2CHNHS3FeSH4FeS3H2CH3SH3CSHC2SH2CH2C3FeH4C2H4FeCHCFe2C3FeHSC2H2C5H11C2HCSCHFeCHSHCH5CHCH6SH4C2HC3HCHC4H3SH2CH5SC2H5NC8H2CH5NHCHSH3CH3NHCH2FeCH3CH2CFeCHC3H8CSFeHCNCH3CSCH4NH3C2HCH2CHC2H2C5H3SC3H5NH3FeC2H2CH5C3SHCH3C2H3C2H6SC5H3C2H4C2FeS3CFeS2FeS2FeSFeS3FeH2FeS2FeHFeSFeS3CH5CHCH3SH3C2HCHCH2NH4CH3CHCHSCH2CHC6H4C2H2CH2C2H4C2HCH3C2H2C2H2C2H2C2H3SH2C2H7CH5CH3SC5H2CHC2HCH9CHCH2CH3CH2CH7CSNHCH3CH3C4HCH3CH4CSH3NH2NH4C3SCH2CHCHCHCH4C2HCHCHSHCHNC5HCH4CH2C2HCHNH10SHCHC2H2SH2CH3CSC3HFeSHFeSCFe2S2FeSCFeS2FeS2FeSFeHS2CFeS2HCH3CSHSHCHCSH3CH2C5H2C6H4C2FeCH5C2H3SHC4H4C6H4C2H5CNHCH2CHCHSHCNC2HCHC2FeH3CH3NCHNCHCSC2SC2H2CHC2H3CH2CH3CH4CSCHCH3CH2C2H2FeH5CH8C2HFeNC2H5SH2CHCH6CHNHC3HC2H8CHCH2CH5CHSHNH2CH2C2H3NHCSCH4SH3SH4CNCH2CH3CHC2H3CH3CH5C2HCHC3H3FeH3SH2CFeCH3C4H2CS2H2SHC3H5CH2CH3C2H2CH3NFeS2HSHFeCFeS2HFeS2FeS2FeSFeS3C3HCH2C6H13CH2C2HCH2CH2CHNHCHC3HCHCH2CH3FeCH5CHCH2CH2CH5NC2H2CHCHC2H4C2H4NH2CHCH3C3HC3H2CH3CHS3H3CH7NCHC2H4C2H2CHFeSHFeC2SFeS2CHS2H5CH3C2HC2H2C2SHCHCNFeH2C2HCH2CH11FeCHSHC6H5CHFeH3C2H2NCHCH3NH3CSC2HSHC2H5CHCHCSH5CSH3C2H4CH2CH6SHNFeHC3FeC2H2SHCH3
_chemical_formula_sum              "H2304 Fe192 S384 C1344 N96"
_cell_length_a       78.8864
_cell_length_b       78.0701
_cell_length_c       37.5932
_cell_angle_alpha    88.7034
_cell_angle_beta     88.5725
_cell_angle_gamma    110.98

_space_group_name_H-M_alt    "P 1"
_space_group_IT_number       1

loop_
  _space_group_symop_operation_xyz
  'x, y, z'

loop_
  _atom_site_type_symbol
  _atom_site_label
  _atom_site_symmetry_multiplicity
  _atom_site_fract_x
  _atom_site_fract_y
  _atom_site_fract_z
  _atom_site_occupancy
  H   H1        1.0  0.31491  0.16142  0.44064  1.0000
  H   H2        1.0  0.36134  0.22619  0.30270  1.0000
  H   H3        1.0  0.38316  0.10939  0.49175  1.0000
  Fe  Fe1       1.0  0.46134  0.17467  0.41422  1.0000
  S   S1        1.0  0.45769  0.19913  0.38781  1.0000
  S   S2        1.0  0.43726  0.14778  0.42119  1.0000
  C   C1        1.0  0.41996  0.14482  0.00911  1.0000
  H   H4        1.0  0.39211  0.15410  0.46457  1.0000
  H   H5        1.0  0.40235  0.18310  0.07581  1.0000
  H   H6        1.0  0.39940  0.24061  0.26991  1.0000
  S   S3        1.0  0.46385  0.20564  0.06168  1.0000
  S   S4        1.0  0.31541  0.20408  0.04758  1.0000
  S   S5        1.0  0.33185  0.22244  0.49489  1.0000
  Fe  Fe2       1.0  0.47728  0.19060  0.09601  1.0000
  C   C2        1.0  0.32583  0.24076  0.24365  1.0000
  C   C3        1.0  0.39983  0.18324  0.04687  1.0000
  H   H7        1.0  0.36689  0.22661  0.34787  1.0000
  H   H8        1.0  0.28596  0.01322  0.48135  1.0000
  N   N1        1.0  0.38013  0.17491  0.45587  1.0000
  C   C4        1.0  0.46629  0.17884  0.22438  1.0000
  H   H9        1.0  0.38654  0.15431  0.05476  1.0000
  H   H10       1.0  0.34246  0.11672  0.03784  1.0000
  H   H11       1.0  0.36352  0.15767  0.09477  1.0000
  H   H12       1.0  0.41760  0.24037  0.31275  1.0000
  C   C5        1.0  0.35347  0.14605  0.02573  1.0000
  H   H13       1.0  0.33961  0.14599  0.02059  1.0000
  Fe  Fe3       1.0  0.46635  0.18745  0.01781  1.0000
  H   H14       1.0  0.39409  0.23303  0.47376  1.0000
  H   H15       1.0  0.37004  0.18135  0.08444  1.0000
  H   H16       1.0  0.36968  0.17429  0.40280  1.0000
  H   H17       1.0  0.33103  0.15403  0.07418  1.0000
  C   C6        1.0  0.40705  0.12642  0.46090  1.0000
  C   C7        1.0  0.42340  0.14162  0.46066  1.0000
  C   C8        1.0  0.38500  0.16506  0.03661  1.0000
  H   H18       1.0  0.45680  0.16487  0.22346  1.0000
  S   S6        1.0  0.47787  0.17102  0.05315  1.0000
  H   H19       1.0  0.40304  0.11878  0.43693  1.0000
  H   H20       1.0  0.34421  0.12998  0.07642  1.0000
  H   H21       1.0  0.35263  0.16790  0.43741  1.0000
  H   H22       1.0  0.44104  0.16303  0.49209  1.0000
  C   C9        1.0  0.32230  0.18816  0.46358  1.0000
  C   C10       1.0  0.31922  0.16915  0.46441  1.0000
  H   H23       1.0  0.32031  0.19486  0.43937  1.0000
  H   H24       1.0  0.38331  0.22604  0.31540  1.0000
  C   C11       1.0  0.41552  0.18673  0.45916  1.0000
  C   C12       1.0  0.32768  0.19836  0.49416  1.0000
  C   C13       1.0  0.35117  0.12937  0.05077  1.0000
  H   H25       1.0  0.29424  0.99530  0.39245  1.0000
  C   C14       1.0  0.47163  0.18666  0.25765  1.0000
  S   S7        1.0  0.46651  0.17819  0.15123  1.0000
  C   C15       1.0  0.39826  0.19016  0.44819  1.0000
  H   H26       1.0  0.35982  0.13826  0.48513  1.0000
  H   H27       1.0  0.47997  0.12999  0.41923  1.0000
  H   H28       1.0  0.33900  0.16785  0.11182  1.0000
  S   S8        1.0  0.32455  0.24122  0.31665  1.0000
  H   H29       1.0  0.44956  0.24038  0.04399  1.0000
  H   H30       1.0  0.34876  0.17703  0.01186  1.0000
  C   C16       1.0  0.36665  0.17755  0.43044  1.0000
  Fe  Fe4       1.0  0.47522  0.21479  0.43101  1.0000
  H   H31       1.0  0.39858  0.20302  0.46087  1.0000
  H   H32       1.0  0.31557  0.22716  0.24709  1.0000
  C   C17       1.0  0.32164  0.16005  0.49561  1.0000
  H   H33       1.0  0.30940  0.01937  0.46956  1.0000
  H   H34       1.0  0.29316  0.01342  0.43532  1.0000
  H   H35       1.0  0.41830  0.17670  0.44163  1.0000
  C   C18       1.0  0.37276  0.23193  0.32092  1.0000
  H   H36       1.0  0.30534  0.14255  0.00198  1.0000
  C   C19       1.0  0.37310  0.17572  0.49321  1.0000
  C   C20       1.0  0.30999  0.16979  0.02124  1.0000
  C   C21       1.0  0.40373  0.12930  0.01041  1.0000
  H   H37       1.0  0.39663  0.19556  0.04007  1.0000
  H   H38       1.0  0.46226  0.11895  0.46770  1.0000
  H   H39       1.0  0.40135  0.11903  0.03166  1.0000
  H   H40       1.0  0.38598  0.15605  0.42053  1.0000
  H   H41       1.0  0.41269  0.18502  0.03175  1.0000
  H   H42       1.0  0.33927  0.17888  0.06974  1.0000
  H   H43       1.0  0.36187  0.20125  0.45443  1.0000
  H   H44       1.0  0.36425  0.12758  0.05556  1.0000
  C   C22       1.0  0.29558  0.01000  0.46296  1.0000
  S   S9        1.0  0.46352  0.23382  0.45830  1.0000
  N   N2        1.0  0.36571  0.16451  0.03815  1.0000
  H   H45       1.0  0.42994  0.14643  0.02927  1.0000
  C   C23       1.0  0.36339  0.17919  0.01411  1.0000
  C   C24       1.0  0.36099  0.16762  0.07592  1.0000
  H   H46       1.0  0.36676  0.12703  0.45001  1.0000
  C   C25       1.0  0.34140  0.16694  0.08280  1.0000
  H   H47       1.0  0.36925  0.19302  0.02553  1.0000
  H   H48       1.0  0.32743  0.23941  0.18624  1.0000
  H   H49       1.0  0.45999  0.14062  0.47208  1.0000
  H   H50       1.0  0.28036  0.23682  0.32541  1.0000
  H   H51       1.0  0.42743  0.19973  0.45558  1.0000
  H   H52       1.0  0.46622  0.17876  0.28205  1.0000
  C   C26       1.0  0.39573  0.12110  0.49189  1.0000
  H   H53       1.0  0.40537  0.24127  0.35416  1.0000
  H   H54       1.0  0.26303  0.99310  0.44202  1.0000
  C   C27       1.0  0.42849  0.15132  0.49187  1.0000
  H   H55       1.0  0.41504  0.18212  0.48726  1.0000
  S   S10       1.0  0.31817  0.13612  0.49465  1.0000
  H   H56       1.0  0.35262  0.13971  0.44006  1.0000
  H   H57       1.0  0.37826  0.20747  0.41732  1.0000
  H   H58       1.0  0.44250  0.23839  0.99932  1.0000
  C   C28       1.0  0.36553  0.19694  0.42838  1.0000
  S   S11       1.0  0.47749  0.18998  0.45929  1.0000
  H   H59       1.0  0.38874  0.16133  0.01011  1.0000
  C   C29       1.0  0.46441  0.13036  0.48630  1.0000
  C   C30       1.0  0.47314  0.18895  0.19238  1.0000
  Fe  Fe5       1.0  0.32489  0.23556  0.05337  1.0000
  H   H60       1.0  0.35461  0.19675  0.41010  1.0000
  H   H61       1.0  0.30389  0.16475  0.04733  1.0000
  H   H62       1.0  0.40039  0.19346  0.41901  1.0000
  C   C31       1.0  0.36405  0.13963  0.45652  1.0000
  C   C32       1.0  0.31674  0.18886  0.01352  1.0000
  C   C33       1.0  0.38151  0.15651  0.44875  1.0000
  H   H63       1.0  0.35856  0.14297  0.99965  1.0000
  Fe  Fe6       1.0  0.48379  0.20348  0.35704  1.0000
  H   H64       1.0  0.38391  0.24148  0.21788  1.0000
  C   C34       1.0  0.48385  0.20474  0.25921  1.0000
  H   H65       1.0  0.23696  0.01479  0.83730  1.0000
  C   C35       1.0  0.28536  0.01205  0.65233  1.0000
  C   C36       1.0  0.39065  0.12692  0.98436  1.0000
  C   C37       1.0  0.45074  0.12228  0.51795  1.0000
  H   H66       1.0  0.29779  0.01642  0.63490  1.0000
  H   H67       1.0  0.41438  0.11292  0.94536  1.0000
  H   H68       1.0  0.36294  0.22356  0.56033  1.0000
  H   H69       1.0  0.43053  0.10585  0.91964  1.0000
  C   C38       1.0  0.38388  0.17194  0.52408  1.0000
  H   H70       1.0  0.40475  0.06773  0.83170  1.0000
  H   H71       1.0  0.39565  0.23940  0.57351  1.0000
  H   H72       1.0  0.43682  0.11665  0.50752  1.0000
  S   S12       1.0  0.44370  0.17762  0.97774  1.0000
  H   H73       1.0  0.40271  0.23479  0.53103  1.0000
  H   H74       1.0  0.31346  0.06890  0.66584  1.0000
  H   H75       1.0  0.24897  0.01889  0.94259  1.0000
  H   H76       1.0  0.36929  0.21861  0.51634  1.0000
  H   H77       1.0  0.28079  0.02977  0.72911  1.0000
  H   H78       1.0  0.39507  0.18463  0.53127  1.0000
  H   H79       1.0  0.26796  0.07442  0.65809  1.0000
  H   H80       1.0  0.32861  0.16111  0.75766  1.0000
  H   H81       1.0  0.30826  0.00735  0.56358  1.0000
  H   H82       1.0  0.37315  0.07897  0.93538  1.0000
  H   H83       1.0  0.30938  0.04644  0.76249  1.0000
  H   H84       1.0  0.31998  0.03298  0.66980  1.0000
  C   C39       1.0  0.31818  0.16332  0.96132  1.0000
  H   H85       1.0  0.32951  0.20964  0.97288  1.0000
  H   H86       1.0  0.26479  0.02189  0.67167  1.0000
  H   H87       1.0  0.29692  0.06051  0.74999  1.0000
  C   C40       1.0  0.32432  0.19507  0.97941  1.0000
  S   S13       1.0  0.31817  0.14791  0.92673  1.0000
  S   S14       1.0  0.37069  0.10687  0.98649  1.0000
  H   H88       1.0  0.29875  0.16082  0.86919  1.0000
  H   H89       1.0  0.28415  0.06956  0.63034  1.0000
  H   H90       1.0  0.33041  0.18741  0.92708  1.0000
  C   C41       1.0  0.32484  0.18238  0.95346  1.0000
  H   H91       1.0  0.34312  0.17186  0.81412  1.0000
  H   H92       1.0  0.26172  0.05235  0.63912  1.0000
  C   C42       1.0  0.41025  0.15570  0.95552  1.0000
  H   H93       1.0  0.30473  0.05566  0.62854  1.0000
  C   C43       1.0  0.31871  0.14844  0.77096  1.0000
  C   C44       1.0  0.30852  0.16694  0.81275  1.0000
  H   H94       1.0  0.30602  0.14085  0.72034  1.0000
  C   C45       1.0  0.27315  0.06344  0.65075  1.0000
  C   C46       1.0  0.27848  0.02793  0.65817  1.0000
  H   H95       1.0  0.26797  0.05000  0.70260  1.0000
  C   C47       1.0  0.30514  0.05275  0.73920  1.0000
  Fe  Fe7       1.0  0.32378  0.11725  0.53711  1.0000
  S   S15       1.0  0.34208  0.12953  0.58168  1.0000
  H   H96       1.0  0.31759  0.17947  0.79767  1.0000
  Fe  Fe8       1.0  0.32074  0.07703  0.55884  1.0000
  S   S16       1.0  0.34024  0.08792  0.60317  1.0000
  S   S17       1.0  0.31120  0.04513  0.55578  1.0000
  Fe  Fe9       1.0  0.32398  0.10551  0.61570  1.0000
  S   S18       1.0  0.31171  0.10592  0.67123  1.0000
  Fe  Fe10      1.0  0.35668  0.11083  0.56490  1.0000
  S   S19       1.0  0.38757  0.12404  0.56321  1.0000
  S   S20       1.0  0.30405  0.09437  0.57229  1.0000
  Fe  Fe11      1.0  0.34697  0.10141  0.94942  1.0000
  S   S21       1.0  0.31884  0.09831  0.96984  1.0000
  H   H97       1.0  0.37605  0.20929  0.55491  1.0000
  Fe  Fe12      1.0  0.33603  0.09919  0.87160  1.0000
  S   S22       1.0  0.30761  0.09707  0.88633  1.0000
  S   S23       1.0  0.34950  0.10056  0.81675  1.0000
  Fe  Fe13      1.0  0.32019  0.11916  0.92625  1.0000
  Fe  Fe14      1.0  0.30853  0.07611  0.92865  1.0000
  S   S24       1.0  0.28369  0.04859  0.93484  1.0000
  S   S25       1.0  0.34849  0.12258  0.90762  1.0000
  S   S26       1.0  0.33674  0.07782  0.91214  1.0000
  H   H98       1.0  0.38335  0.06997  0.90155  1.0000
  C   C48       1.0  0.27754  0.02391  0.93500  1.0000
  C   C49       1.0  0.29028  0.01527  0.93102  1.0000
  C   C50       1.0  0.32709  0.17028  0.52615  1.0000
  H   H99       1.0  0.24550  0.00623  0.55332  1.0000
  C   C51       1.0  0.25904  0.01256  0.93921  1.0000
  H   H100      1.0  0.30455  0.02359  0.92788  1.0000
  S   S27       1.0  0.33888  0.09889  0.51932  1.0000
  H   H101      1.0  0.28850  0.06928  0.69774  1.0000
  H   H102      1.0  0.43621  0.12889  0.93326  1.0000
  H   H103      1.0  0.29233  0.12819  0.75694  1.0000
  H   H104      1.0  0.45065  0.13284  0.53712  1.0000
  N   N3        1.0  0.29047  0.04401  0.67839  1.0000
  C   C52       1.0  0.41743  0.14570  0.52309  1.0000
  C   C53       1.0  0.29179  0.02404  0.55789  1.0000
  C   C54       1.0  0.29456  0.00720  0.56153  1.0000
  C   C55       1.0  0.32995  0.18923  0.52544  1.0000
  C   C56       1.0  0.27389  0.02345  0.55550  1.0000
  C   C57       1.0  0.30772  0.05447  0.65709  1.0000
  C   C58       1.0  0.32233  0.10373  0.71114  1.0000
  C   C59       1.0  0.31216  0.10040  0.74349  1.0000
  C   C60       1.0  0.32020  0.09897  0.77593  1.0000
  C   C61       1.0  0.33858  0.10121  0.77639  1.0000
  C   C62       1.0  0.34867  0.10423  0.74400  1.0000
  C   C63       1.0  0.34057  0.10539  0.71147  1.0000
  H   H105      1.0  0.29797  0.09881  0.74340  1.0000
  H   H106      1.0  0.31216  0.09601  0.80055  1.0000
  H   H107      1.0  0.36287  0.10585  0.74403  1.0000
  H   H108      1.0  0.34853  0.10790  0.68673  1.0000
  H   H109      1.0  0.29524  0.16364  0.80022  1.0000
  H   H110      1.0  0.30095  0.02758  0.71316  1.0000
  H   H111      1.0  0.37455  0.16657  0.54772  1.0000
  H   H112      1.0  0.32890  0.16354  0.55044  1.0000
  H   H113      1.0  0.33378  0.19682  0.54947  1.0000
  H   H114      1.0  0.41271  0.16591  0.93415  1.0000
  H   H115      1.0  0.32887  0.04685  0.63092  1.0000
  C   C64       1.0  0.29393  0.03752  0.71467  1.0000
  H   H116      1.0  0.38403  0.13885  0.93699  1.0000
  H   H117      1.0  0.31767  0.06243  0.72567  1.0000
  H   H118      1.0  0.27490  0.00116  0.63795  1.0000
  H   H119      1.0  0.25340  0.00807  0.85966  1.0000
  C   C65       1.0  0.39187  0.23831  0.54511  1.0000
  C   C66       1.0  0.32345  0.04700  0.65846  1.0000
  C   C67       1.0  0.40091  0.13069  0.52318  1.0000
  H   H120      1.0  0.31930  0.18070  0.86240  1.0000
  C   C68       1.0  0.25918  0.00637  0.55600  1.0000
  H   H121      1.0  0.27621  0.03244  0.63098  1.0000
  C   C69       1.0  0.30606  0.17269  0.85102  1.0000
  C   C70       1.0  0.37394  0.22166  0.54384  1.0000
  C   C71       1.0  0.39394  0.14032  0.95706  1.0000
  C   C72       1.0  0.30172  0.14208  0.74829  1.0000
  H   H122      1.0  0.39703  0.08481  0.93420  1.0000
  C   C73       1.0  0.28003  0.05666  0.68437  1.0000
  H   H123      1.0  0.42157  0.15313  0.54724  1.0000
  N   N4        1.0  0.31590  0.15165  0.80975  1.0000
  C   C74       1.0  0.33438  0.15825  0.82607  1.0000
  C   C75       1.0  0.30407  0.13412  0.82913  1.0000
  C   C76       1.0  0.34530  0.14538  0.82326  1.0000
  C   C77       1.0  0.28322  0.12878  0.82740  1.0000
  H   H124      1.0  0.33317  0.16041  0.85504  1.0000
  H   H125      1.0  0.32474  0.13766  0.76799  1.0000
  H   H126      1.0  0.30746  0.12234  0.81958  1.0000
  H   H127      1.0  0.30703  0.13484  0.85796  1.0000
  H   H128      1.0  0.35062  0.14513  0.79575  1.0000
  H   H129      1.0  0.35731  0.15051  0.84020  1.0000
  H   H130      1.0  0.33725  0.13124  0.83305  1.0000
  H   H131      1.0  0.29798  0.18178  0.85057  1.0000
  H   H132      1.0  0.29458  0.15197  0.74751  1.0000
  H   H133      1.0  0.27692  0.11368  0.82464  1.0000
  H   H134      1.0  0.27844  0.13513  0.80519  1.0000
  H   H135      1.0  0.27753  0.13162  0.85299  1.0000
  H   H136      1.0  0.27138  0.03614  0.55253  1.0000
  N   N5        1.0  0.40371  0.10775  0.87007  1.0000
  C   C78       1.0  0.39927  0.11659  0.83714  1.0000
  C   C79       1.0  0.41177  0.09394  0.85791  1.0000
  C   C80       1.0  0.41788  0.12266  0.88940  1.0000
  C   C81       1.0  0.38656  0.09912  0.89297  1.0000
  C   C82       1.0  0.39273  0.13274  0.84342  1.0000
  C   C83       1.0  0.40008  0.07956  0.83231  1.0000
  C   C84       1.0  0.42495  0.11684  0.92366  1.0000
  C   C85       1.0  0.38527  0.08237  0.91713  1.0000
  H   H137      1.0  0.41125  0.12169  0.81817  1.0000
  H   H138      1.0  0.38829  0.10639  0.82242  1.0000
  H   H139      1.0  0.41468  0.08630  0.88075  1.0000
  H   H140      1.0  0.42524  0.10104  0.84409  1.0000
  H   H141      1.0  0.42990  0.12978  0.87133  1.0000
  H   H142      1.0  0.41261  0.13343  0.89767  1.0000
  H   H143      1.0  0.38430  0.10947  0.91043  1.0000
  H   H144      1.0  0.37433  0.09441  0.87634  1.0000
  H   H145      1.0  0.38203  0.12945  0.86478  1.0000
  H   H146      1.0  0.40416  0.14545  0.84956  1.0000
  H   H147      1.0  0.38674  0.13575  0.81866  1.0000
  H   H148      1.0  0.38545  0.07428  0.84037  1.0000
  H   H149      1.0  0.40162  0.08544  0.80471  1.0000
  H   H150      1.0  0.33493  0.05648  0.67314  1.0000
  C   C86       1.0  0.42336  0.15804  0.98147  1.0000
  H   H151      1.0  0.38615  0.18478  0.97473  1.0000
  C   C87       1.0  0.23984  0.00273  0.84778  1.0000
  H   H152      1.0  0.28740  0.00551  0.67749  1.0000
  C   C88       1.0  0.31087  0.15713  0.99556  1.0000
  H   H153      1.0  0.24868  0.99827  0.79565  1.0000
  H   H154      1.0  0.48199  0.14671  0.55007  1.0000
  H   H155      1.0  0.48279  0.11831  0.53574  1.0000
  H   H156      1.0  0.38930  0.16102  0.51876  1.0000
  C   C89       1.0  0.28462  0.99580  0.93152  1.0000
  H   H157      1.0  0.47566  0.16014  0.51796  1.0000
  H   H158      1.0  0.45306  0.11073  0.53197  1.0000
  H   H159      1.0  0.36510  0.16725  0.96197  1.0000
  H   H160      1.0  0.22937  0.99606  0.86902  1.0000
  H   H161      1.0  0.36761  0.19088  0.96020  1.0000
  C   C90       1.0  0.25338  0.99312  0.93953  1.0000
  C   C91       1.0  0.37112  0.18039  0.97566  1.0000
  H   H162      1.0  0.37247  0.18944  0.49793  1.0000
  H   H163      1.0  0.35872  0.16635  0.49727  1.0000
  S   S28       1.0  0.17051  0.35301  0.04766  1.0000
  S   S29       1.0  0.12209  0.45901  0.42429  1.0000
  C   C92       1.0  0.14321  0.34060  0.45749  1.0000
  H   H164      1.0  0.14980  0.33972  0.43238  1.0000
  H   H165      1.0  0.11652  0.33350  0.43566  1.0000
  H   H166      1.0  0.10700  0.45672  0.04004  1.0000
  H   H167      1.0  0.13192  0.34453  0.05444  1.0000
  C   C93       1.0  0.13175  0.41710  0.02397  1.0000
  C   C94       1.0  0.14467  0.39287  0.01331  1.0000
  C   C95       1.0  0.14707  0.43615  0.02130  1.0000
  C   C96       1.0  0.16503  0.40408  0.01691  1.0000
  H   H168      1.0  0.11906  0.41988  0.01985  1.0000
  H   H169      1.0  0.13080  0.41201  0.05215  1.0000
  H   H170      1.0  0.13966  0.38682  0.04032  1.0000
  C   C97       1.0  0.35122  0.33561  0.03351  1.0000
  H   H171      1.0  0.14451  0.44483  0.04229  1.0000
  H   H172      1.0  0.16761  0.41040  0.04336  1.0000
  C   C98       1.0  0.12430  0.33707  0.45945  1.0000
  C   C99       1.0  0.00101  0.28301  0.45327  1.0000
  H   H173      1.0  0.09565  0.42270  0.43259  1.0000
  C   C100      1.0  0.11192  0.44548  0.46298  1.0000
  C   C101      1.0  0.09924  0.42766  0.45902  1.0000
  H   H174      1.0  0.21141  0.46782  0.35332  1.0000
  H   H175      1.0  0.41233  0.27410  0.34496  1.0000
  Fe  Fe15      1.0  0.20130  0.36000  0.05533  1.0000
  H   H176      1.0  0.08109  0.42683  0.04097  1.0000
  H   H177      1.0  0.25582  0.48353  0.45108  1.0000
  H   H178      1.0  0.03391  0.31720  0.49672  1.0000
  H   H179      1.0  0.01769  0.31654  0.38597  1.0000
  C   C102      1.0  0.44268  0.24604  0.02391  1.0000
  C   C103      1.0  0.01797  0.33608  0.45261  1.0000
  C   C104      1.0  0.38320  0.25144  0.23800  1.0000
  C   C105      1.0  0.46646  0.30641  0.02522  1.0000
  C   C106      1.0  0.08520  0.47798  0.31797  1.0000
  C   C107      1.0  0.24368  0.43594  0.38914  1.0000
  S   S30       1.0  0.35301  0.24552  0.40366  1.0000
  Fe  Fe16      1.0  0.20179  0.35690  0.44889  1.0000
  H   H180      1.0  0.01459  0.29248  0.38303  1.0000
  H   H181      1.0  0.03600  0.29489  0.43104  1.0000
  H   H182      1.0  0.11419  0.37359  0.44131  1.0000
  C   C108      1.0  0.17547  0.31358  0.01197  1.0000
  H   H183      1.0  0.20139  0.30365  0.42741  1.0000
  Fe  Fe17      1.0  0.14438  0.48744  0.42280  1.0000
  H   H184      1.0  0.47302  0.32142  0.01962  1.0000
  H   H185      1.0  0.25724  0.43638  0.39746  1.0000
  H   H186      1.0  0.99362  0.28258  0.42827  1.0000
  N   N6        1.0  0.01490  0.30193  0.45792  1.0000
  H   H187      1.0  0.19558  0.29439  0.03783  1.0000
  H   H188      1.0  0.45674  0.30462  0.04786  1.0000
  H   H189      1.0  0.46826  0.31214  0.40461  1.0000
  C   C109      1.0  0.28467  0.46873  0.00157  1.0000
  H   H190      1.0  0.41155  0.26226  0.25026  1.0000
  S   S31       1.0  0.32271  0.25721  0.01460  1.0000
  H   H191      1.0  0.00766  0.27271  0.45010  1.0000
  C   C110      1.0  0.15892  0.43292  0.47593  1.0000
  C   C111      1.0  0.40077  0.31099  0.01478  1.0000
  H   H192      1.0  0.45326  0.31330  0.47727  1.0000
  H   H193      1.0  0.38393  0.28789  0.33743  1.0000
  H   H194      1.0  0.38069  0.25770  0.34801  1.0000
  C   C112      1.0  0.12166  0.34427  0.00153  1.0000
  C   C113      1.0  0.19408  0.29041  0.44228  1.0000
  H   H195      1.0  0.29283  0.25474  0.35341  1.0000
  H   H196      1.0  0.17645  0.30999  0.07005  1.0000
  H   H197      1.0  0.26826  0.49009  0.39040  1.0000
  S   S32       1.0  0.16511  0.48886  0.06785  1.0000
  C   C114      1.0  0.27061  0.31249  0.00593  1.0000
  N   N7        1.0  0.18311  0.29330  0.47364  1.0000
  C   C115      1.0  0.45355  0.26676  0.01822  1.0000
  H   H198      1.0  0.33676  0.34323  0.07781  1.0000
  H   H199      1.0  0.47706  0.29435  0.39469  1.0000
  H   H200      1.0  0.39308  0.30699  0.30690  1.0000
  C   C116      1.0  0.16727  0.30766  0.42832  1.0000
  H   H201      1.0  0.45621  0.27246  0.04508  1.0000
  C   C117      1.0  0.11826  0.38717  0.49319  1.0000
  C   C118      1.0  0.15556  0.49239  0.23524  1.0000
  H   H202      1.0  0.40865  0.29002  0.27062  1.0000
  C   C119      1.0  0.42622  0.27523  0.00726  1.0000
  H   H203      1.0  0.15651  0.28035  0.45155  1.0000
  H   H204      1.0  0.19729  0.32262  0.47021  1.0000
  H   H205      1.0  0.09577  0.47387  0.21335  1.0000
  C   C120      1.0  0.33917  0.33094  0.06812  1.0000
  C   C121      1.0  0.43925  0.31218  0.47530  1.0000
  H   H206      1.0  0.41620  0.26131  0.00235  1.0000
  H   H207      1.0  0.15345  0.30688  0.42103  1.0000
  H   H208      1.0  0.28215  0.45572  0.15455  1.0000
  S   S33       1.0  0.35424  0.25096  0.06522  1.0000
  C   C122      1.0  0.33262  0.25108  0.27371  1.0000
  H   H209      1.0  0.11005  0.37340  0.04724  1.0000
  C   C123      1.0  0.47235  0.26721  0.48884  1.0000
  H   H210      1.0  0.27175  0.30960  0.34498  1.0000
  H   H211      1.0  0.31661  0.29929  0.22057  1.0000
  H   H212      1.0  0.42911  0.25350  0.34870  1.0000
  H   H213      1.0  0.08151  0.40248  0.48552  1.0000
  C   C124      1.0  0.23187  0.46961  0.39209  1.0000
  H   H214      1.0  0.47010  0.29699  0.43870  1.0000
  H   H215      1.0  0.38487  0.26440  0.22301  1.0000
  H   H216      1.0  0.32925  0.31395  0.35281  1.0000
  H   H217      1.0  0.02650  0.34009  0.47610  1.0000
  H   H218      1.0  0.26786  0.28308  0.30954  1.0000
  C   C125      1.0  0.22329  0.46177  0.45464  1.0000
  H   H219      1.0  0.30481  0.45944  0.44320  1.0000
  H   H220      1.0  0.99666  0.31306  0.43152  1.0000
  H   H221      1.0  0.20179  0.26687  0.45815  1.0000
  C   C126      1.0  0.47706  0.30472  0.41409  1.0000
  H   H222      1.0  0.30926  0.27593  0.23553  1.0000
  H   H223      1.0  0.20563  0.38851  0.25569  1.0000
  C   C127      1.0  0.26383  0.29917  0.42308  1.0000
  N   N8        1.0  0.13822  0.39900  0.49098  1.0000
  C   C128      1.0  0.10439  0.44840  0.01673  1.0000
  H   H224      1.0  0.20219  0.46272  0.39749  1.0000
  H   H225      1.0  0.24519  0.44463  0.36486  1.0000
  H   H226      1.0  0.32000  0.31944  0.31362  1.0000
  H   H227      1.0  0.22256  0.31747  0.49143  1.0000
  H   H228      1.0  0.32682  0.29339  0.25848  1.0000
  C   C129      1.0  0.10637  0.47914  0.26631  1.0000
  S   S34       1.0  0.20940  0.34463  0.39987  1.0000
  C   C130      1.0  0.26277  0.32143  0.02990  1.0000
  H   H229      1.0  0.18497  0.28129  0.42279  1.0000
  H   H230      1.0  0.12041  0.48631  0.25523  1.0000
  H   H231      1.0  0.23588  0.42179  0.38074  1.0000
  H   H232      1.0  0.42559  0.27521  0.30535  1.0000
  C   C131      1.0  0.09124  0.41616  0.48896  1.0000
  C   C132      1.0  0.42351  0.27970  0.04625  1.0000
  H   H233      1.0  0.21430  0.45728  0.05966  1.0000
  H   H234      1.0  0.21028  0.37681  0.19660  1.0000
  H   H235      1.0  0.27734  0.25980  0.28062  1.0000
  C   C133      1.0  0.14767  0.39046  0.46524  1.0000
  C   C134      1.0  0.37933  0.25317  0.32002  1.0000
  C   C135      1.0  0.15343  0.34498  0.48816  1.0000
  C   C136      1.0  0.20060  0.30230  0.01228  1.0000
  S   S35       1.0  0.14720  0.48887  0.16439  1.0000
  C   C137      1.0  0.23323  0.44070  0.42027  1.0000
  C   C138      1.0  0.27361  0.45644  0.02811  1.0000
  H   H236      1.0  0.17076  0.38802  0.49403  1.0000
  C   C139      1.0  0.41303  0.26651  0.32059  1.0000
  H   H237      1.0  0.27024  0.46177  0.05250  1.0000
  C   C140      1.0  0.29917  0.29366  0.26854  1.0000
  N   N9        1.0  0.34127  0.33080  0.99923  1.0000
  H   H238      1.0  0.32390  0.30349  0.01781  1.0000
  C   C141      1.0  0.28253  0.29939  0.05472  1.0000
  C   C142      1.0  0.28252  0.25115  0.33272  1.0000
  S   S36       1.0  0.21228  0.33959  0.08041  1.0000
  S   S37       1.0  0.29462  0.28568  0.07219  1.0000
  H   H239      1.0  0.17468  0.32203  0.43532  1.0000
  N   N10       1.0  0.39655  0.26353  0.29854  1.0000
  C   C143      1.0  0.28042  0.30157  0.01818  1.0000
  S   S38       1.0  0.25174  0.42274  0.05620  1.0000
  S   S39       1.0  0.21420  0.38114  0.09617  1.0000
  H   H240      1.0  0.38458  0.28098  0.27126  1.0000
  H   H241      1.0  0.40923  0.27186  0.05523  1.0000
  H   H242      1.0  0.23646  0.45548  0.06295  1.0000
  H   H243      1.0  0.32608  0.31945  0.06607  1.0000
  H   H244      1.0  0.27611  0.30675  0.10692  1.0000
  S   S40       1.0  0.22765  0.35848  0.47521  1.0000
  C   C144      1.0  0.41013  0.30000  0.44587  1.0000
  H   H245      1.0  0.22330  0.47600  0.45625  1.0000
  C   C145      1.0  0.22713  0.45609  0.49239  1.0000
  C   C146      1.0  0.19310  0.31127  0.49064  1.0000
  H   H246      1.0  0.29516  0.31423  0.35081  1.0000
  C   C147      1.0  0.22908  0.46494  0.05740  1.0000
  C   C148      1.0  0.28886  0.26381  0.29909  1.0000
  C   C149      1.0  0.08969  0.43147  0.01717  1.0000
  H   H247      1.0  0.13130  0.46629  0.34735  1.0000
  C   C150      1.0  0.29382  0.45525  0.46309  1.0000
  H   H248      1.0  0.38500  0.26807  0.48258  1.0000
  H   H249      1.0  0.25924  0.39296  0.21448  1.0000
  H   H250      1.0  0.20891  0.44604  0.37337  1.0000
  C   C151      1.0  0.16675  0.30484  0.04844  1.0000
  C   C152      1.0  0.26677  0.43739  0.02313  1.0000
  C   C153      1.0  0.28068  0.28839  0.32437  1.0000
  H   H251      1.0  0.16066  0.43565  0.02563  1.0000
  H   H252      1.0  0.13071  0.42316  0.49336  1.0000
  C   C154      1.0  0.41616  0.24920  0.33439  1.0000
  H   H253      1.0  0.28985  0.48334  0.00572  1.0000
  S   S41       1.0  0.09156  0.33382  0.49295  1.0000
  N   N11       1.0  0.23613  0.46069  0.42498  1.0000
  H   H254      1.0  0.10483  0.46448  0.26815  1.0000
  H   H255      1.0  0.31083  0.33720  0.43290  1.0000
  H   H256      1.0  0.18521  0.32742  0.01797  1.0000
  Fe  Fe18      1.0  0.33383  0.25375  0.37005  1.0000
  H   H257      1.0  0.24114  0.47004  0.36923  1.0000
  Fe  Fe19      1.0  0.23852  0.39141  0.05799  1.0000
  C   C155      1.0  0.21346  0.37966  0.25347  1.0000
  C   C156      1.0  0.15365  0.35001  0.01487  1.0000
  H   H258      1.0  0.34657  0.32690  0.08960  1.0000
  C   C157      1.0  0.35255  0.27553  0.23431  1.0000
  Fe  Fe20      1.0  0.35178  0.27302  0.02855  1.0000
  S   S42       1.0  0.23152  0.35428  0.17502  1.0000
  C   C158      1.0  0.29773  0.32648  0.43007  1.0000
  H   H259      1.0  0.20938  0.31618  0.02040  1.0000
  H   H260      1.0  0.30316  0.30871  0.26985  1.0000
  C   C159      1.0  0.02323  0.30344  0.49392  1.0000
  C   C160      1.0  0.26656  0.43178  0.48885  1.0000
  H   H261      1.0  0.09413  0.37412  0.46306  1.0000
  H   H262      1.0  0.08982  0.37036  0.02403  1.0000
  H   H263      1.0  0.06261  0.45188  0.32315  1.0000
  C   C161      1.0  0.00550  0.31566  0.45493  1.0000
  H   H264      1.0  0.29627  0.43181  0.17074  1.0000
  S   S43       1.0  0.21390  0.38566  0.42633  1.0000
  C   C162      1.0  0.34574  0.26869  0.26885  1.0000
  C   C163      1.0  0.02396  0.30612  0.39090  1.0000
  H   H265      1.0  0.21857  0.43217  0.41850  1.0000
  C   C164      1.0  0.13542  0.34604  0.02623  1.0000
  S   S44       1.0  0.17709  0.34856  0.48836  1.0000
  S   S45       1.0  0.21842  0.38469  0.32520  1.0000
  H   H266      1.0  0.42599  0.29453  0.04878  1.0000
  C   C165      1.0  0.02979  0.30563  0.42970  1.0000
  H   H267      1.0  0.27525  0.37607  0.18831  1.0000
  H   H268      1.0  0.25074  0.28844  0.42049  1.0000
  H   H269      1.0  0.36962  0.24589  0.49347  1.0000
  H   H270      1.0  0.33838  0.31090  0.31092  1.0000
  H   H271      1.0  0.36297  0.28901  0.23074  1.0000
  S   S46       1.0  0.35672  0.27328  0.16202  1.0000
  C   C166      1.0  0.47889  0.25402  0.47546  1.0000
  H   H272      1.0  0.40864  0.25638  0.46106  1.0000
  H   H273      1.0  0.38865  0.30752  0.46891  1.0000
  C   C167      1.0  0.28349  0.42778  0.15572  1.0000
  S   S47       1.0  0.31317  0.24955  0.41529  1.0000
  N   N12       1.0  0.29566  0.28424  0.30495  1.0000
  H   H274      1.0  0.17374  0.30438  0.40421  1.0000
  H   H275      1.0  0.23763  0.41318  0.22694  1.0000
  H   H276      1.0  0.15515  0.47841  0.23412  1.0000
  H   H277      1.0  0.30858  0.28525  0.35546  1.0000
  C   C168      1.0  0.27469  0.30834  0.07860  1.0000
  H   H278      1.0  0.03622  0.30982  0.37288  1.0000
  H   H279      1.0  0.19956  0.45063  0.01191  1.0000
  H   H280      1.0  0.14146  0.37526  0.46759  1.0000
  H   H281      1.0  0.24912  0.43144  0.25539  1.0000
  Fe  Fe21      1.0  0.23997  0.38698  0.45070  1.0000
  H   H282      1.0  0.24066  0.39729  0.17289  1.0000
  H   H283      1.0  0.28507  0.41888  0.13413  1.0000
  H   H284      1.0  0.04118  0.31874  0.43435  1.0000
  H   H285      1.0  0.17042  0.27473  0.00836  1.0000
  S   S48       1.0  0.34808  0.28377  0.37764  1.0000
  H   H286      1.0  0.27844  0.28028  0.42314  1.0000
  C   C169      1.0  0.16553  0.29413  0.46001  1.0000
  C   C170      1.0  0.22645  0.36188  0.21672  1.0000
  H   H287      1.0  0.42376  0.33097  0.03898  1.0000
  H   H288      1.0  0.12972  0.46627  0.30034  1.0000
  H   H289      1.0  0.08176  0.44962  0.30205  1.0000
  H   H290      1.0  0.35084  0.27694  0.29167  1.0000
  H   H291      1.0  0.27763  0.28131  0.35105  1.0000
  H   H292      1.0  0.00936  0.34465  0.45228  1.0000
  Fe  Fe22      1.0  0.34356  0.26433  0.10870  1.0000
  C   C171      1.0  0.26495  0.31930  0.06638  1.0000
  C   C172      1.0  0.13983  0.41791  0.47778  1.0000
  H   H293      1.0  0.42865  0.24326  0.03431  1.0000
  H   H294      1.0  0.26603  0.38402  0.15146  1.0000
  C   C173      1.0  0.28415  0.30868  0.33179  1.0000
  H   H295      1.0  0.20904  0.45295  0.44951  1.0000
  H   H296      1.0  0.28679  0.31751  0.30732  1.0000
  C   C174      1.0  0.32545  0.30949  0.32531  1.0000
  H   H297      1.0  0.24730  0.43739  0.15186  1.0000
  C   C175      1.0  0.25033  0.40985  0.15908  1.0000
  C   C176      1.0  0.41855  0.32416  0.01467  1.0000
  H   H298      1.0  0.25346  0.40524  0.13270  1.0000
  H   H299      1.0  0.99607  0.31417  0.47824  1.0000
  H   H300      1.0  0.35935  0.35057  0.03345  1.0000
  C   C177      1.0  0.27958  0.29447  0.42448  1.0000
  C   C178      1.0  0.39539  0.29478  0.31827  1.0000
  H   H301      1.0  0.31473  0.32969  0.01891  1.0000
  H   H302      1.0  0.25042  0.47794  0.01922  1.0000
  H   H303      1.0  0.40828  0.30007  0.33259  1.0000
  Fe  Fe23      1.0  0.22340  0.37372  0.37911  1.0000
  C   C179      1.0  0.25091  0.42073  0.23838  1.0000
  C   C180      1.0  0.26578  0.42987  0.20929  1.0000
  H   H304      1.0  0.24153  0.34813  0.24532  1.0000
  N   N13       1.0  0.26737  0.41751  0.18008  1.0000
  Fe  Fe24      1.0  0.31479  0.27074  0.06167  1.0000
  Fe  Fe25      1.0  0.32823  0.27962  0.42439  1.0000
  S   S49       1.0  0.25202  0.37327  0.08251  1.0000
  C   C181      1.0  0.21241  0.46078  0.37878  1.0000
  C   C182      1.0  0.28048  0.43747  0.46258  1.0000
  H   H305      1.0  0.25470  0.41126  0.25628  1.0000
  H   H306      1.0  0.28640  0.28935  0.25342  1.0000
  S   S50       1.0  0.25070  0.37722  0.40164  1.0000
  C   C183      1.0  0.09332  0.48068  0.23759  1.0000
  H   H307      1.0  0.26323  0.44204  0.19886  1.0000
  C   C184      1.0  0.31243  0.28916  0.32687  1.0000
  C   C185      1.0  0.42850  0.30192  0.44817  1.0000
  S   S51       1.0  0.25009  0.40934  0.49147  1.0000
  H   H308      1.0  0.25901  0.32597  0.08529  1.0000
  H   H309      1.0  0.07525  0.48207  0.30273  1.0000
  H   H310      1.0  0.27892  0.43565  0.22296  1.0000
  H   H311      1.0  0.32079  0.28094  0.31873  1.0000
  H   H312      1.0  0.26935  0.25111  0.34388  1.0000
  C   C186      1.0  0.28200  0.33119  0.42854  1.0000
  Fe  Fe26      1.0  0.23692  0.35216  0.04387  1.0000
  H   H313      1.0  0.46717  0.26819  0.00710  1.0000
  C   C187      1.0  0.33248  0.24769  0.20909  1.0000
  H   H314      1.0  0.28123  0.42805  0.44247  1.0000
  C   C188      1.0  0.21614  0.37311  0.21993  1.0000
  C   C189      1.0  0.34613  0.26498  0.20430  1.0000
  H   H315      1.0  0.08434  0.48336  0.34483  1.0000
  H   H316      1.0  0.25994  0.46272  0.45429  1.0000
  H   H317      1.0  0.13476  0.41748  0.45036  1.0000
  H   H318      1.0  0.28987  0.39484  0.16105  1.0000
  H   H319      1.0  0.22632  0.44163  0.49427  1.0000
  H   H320      1.0  0.17279  0.39471  0.01446  1.0000
  Fe  Fe27      1.0  0.22682  0.36173  0.11799  1.0000
  H   H321      1.0  0.27088  0.46797  0.38818  1.0000
  C   C190      1.0  0.40269  0.30869  0.47059  1.0000
  C   C191      1.0  0.29314  0.46756  0.48938  1.0000
  S   S52       1.0  0.31722  0.30320  0.43028  1.0000
  Fe  Fe28      1.0  0.23637  0.34836  0.42479  1.0000
  H   H322      1.0  0.17031  0.26429  0.48653  1.0000
  C   C192      1.0  0.10873  0.38231  0.45741  1.0000
  S   S53       1.0  0.34732  0.27352  0.46281  1.0000
  C   C193      1.0  0.28308  0.44518  0.13620  1.0000
  H   H323      1.0  0.11002  0.45398  0.32891  1.0000
  H   H324      1.0  0.21805  0.28889  0.47017  1.0000
  C   C194      1.0  0.27011  0.47869  0.40607  1.0000
  Fe  Fe29      1.0  0.36575  0.27548  0.41530  1.0000
  H   H325      1.0  0.04492  0.29202  0.48637  1.0000
  H   H326      1.0  0.23312  0.41958  0.12608  1.0000
  S   S54       1.0  0.25012  0.33471  0.01296  1.0000
  H   H327      1.0  0.23665  0.35961  0.30439  1.0000
  C   C195      1.0  0.26486  0.31755  0.42519  1.0000
  C   C196      1.0  0.38429  0.25452  0.49363  1.0000
  C   C197      1.0  0.39642  0.28226  0.28772  1.0000
  S   S55       1.0  0.34380  0.28778  0.07259  1.0000
  H   H328      1.0  0.15779  0.29818  0.48134  1.0000
  C   C198      1.0  0.29670  0.30811  0.42813  1.0000
  C   C199      1.0  0.23085  0.36336  0.28104  1.0000
  H   H329      1.0  0.27210  0.44181  0.11683  1.0000
  C   C200      1.0  0.23361  0.35690  0.24749  1.0000
  C   C201      1.0  0.11543  0.33825  0.49182  1.0000
  C   C202      1.0  0.27119  0.40175  0.19784  1.0000
  H   H330      1.0  0.28257  0.40689  0.21647  1.0000
  C   C203      1.0  0.10320  0.38066  0.03055  1.0000
  C   C204      1.0  0.23937  0.42252  0.15245  1.0000
  C   C205      1.0  0.22091  0.37494  0.28413  1.0000
  S   S56       1.0  0.24434  0.32253  0.42356  1.0000
  H   H331      1.0  0.29598  0.45154  0.12026  1.0000
  H   H332      1.0  0.39239  0.30775  0.03902  1.0000
  H   H333      1.0  0.43435  0.29520  0.42924  1.0000
  H   H334      1.0  0.28315  0.34537  0.43020  1.0000
  S   S57       1.0  0.39679  0.28621  0.41247  1.0000
  C   C206      1.0  0.27588  0.38859  0.17280  1.0000
  H   H335      1.0  0.22768  0.41917  0.17180  1.0000
  H   H336      1.0  0.02671  0.33972  0.42803  1.0000
  H   H337      1.0  0.36945  0.24595  0.25089  1.0000
  H   H338      1.0  0.23178  0.47497  0.07900  1.0000
  H   H339      1.0  0.34527  0.30469  0.00030  1.0000
  H   H340      1.0  0.29963  0.25977  0.28606  1.0000
  H   H341      1.0  0.43185  0.27548  0.06523  1.0000
  C   C207      1.0  0.25528  0.47126  0.43587  1.0000
  H   H342      1.0  0.17339  0.38883  0.44691  1.0000
  H   H343      1.0  0.08170  0.45286  0.34960  1.0000
  H   H344      1.0  0.16186  0.28969  0.04960  1.0000
  H   H345      1.0  0.14575  0.39413  0.43720  1.0000
  H   H346      1.0  0.10930  0.39463  0.44151  1.0000
  C   C208      1.0  0.07768  0.45693  0.32351  1.0000
  C   C209      1.0  0.12219  0.46659  0.32551  1.0000
  H   H347      1.0  0.21901  0.43251  0.02831  1.0000
  N   N14       1.0  0.10420  0.48664  0.30213  1.0000
  C   C210      1.0  0.31382  0.29021  0.24488  1.0000
  H   H348      1.0  0.23726  0.43483  0.44444  1.0000
  H   H349      1.0  0.10020  0.39122  0.04609  1.0000
  H   H350      1.0  0.36119  0.32856  0.03601  1.0000
  S   S58       1.0  0.22503  0.37133  0.01586  1.0000
  C   C211      1.0  0.39442  0.24692  0.46614  1.0000
  H   H351      1.0  0.15462  0.30853  0.05419  1.0000
  Fe  Fe30      1.0  0.33381  0.24357  0.44963  1.0000
  H   H352      1.0  0.18427  0.47173  0.00431  1.0000
  H   H353      1.0  0.23542  0.48960  0.02420  1.0000
  H   H354      1.0  0.28605  0.29458  0.99944  1.0000
  H   H355      1.0  0.11369  0.48541  0.35569  1.0000
  H   H356      1.0  0.16608  0.43275  0.45019  1.0000
  H   H357      1.0  0.33680  0.36270  0.02893  1.0000
  C   C212      1.0  0.11789  0.48434  0.32754  1.0000
  H   H358      1.0  0.23422  0.48431  0.39679  1.0000
  H   H359      1.0  0.21645  0.28218  0.42517  1.0000
  H   H360      1.0  0.47738  0.30138  0.03305  1.0000
  H   H361      1.0  0.36782  0.25663  0.30969  1.0000
  H   H362      1.0  0.22361  0.29324  0.01235  1.0000
  H   H363      1.0  0.10778  0.34128  0.01086  1.0000
  C   C213      1.0  0.16819  0.39476  0.46945  1.0000
  C   C214      1.0  0.19928  0.47737  0.00010  1.0000
  C   C215      1.0  0.23566  0.47549  0.02151  1.0000
  C   C216      1.0  0.20832  0.28160  0.45006  1.0000
  H   H364      1.0  0.17627  0.40959  0.46911  1.0000
  H   H365      1.0  0.45795  0.26472  0.48899  1.0000
  H   H366      1.0  0.38761  0.24577  0.44035  1.0000
  H   H367      1.0  0.20498  0.48421  0.02493  1.0000
  S   S59       1.0  0.31436  0.24766  0.09975  1.0000
  H   H368      1.0  0.28354  0.48456  0.41851  1.0000
  H   H369      1.0  0.07888  0.47364  0.24611  1.0000
  S   S60       1.0  0.16564  0.49224  0.37872  1.0000
  C   C217      1.0  0.39848  0.25424  0.26469  1.0000
  C   C218      1.0  0.98621  0.27578  0.48325  1.0000
  C   C219      1.0  0.32997  0.35798  0.00370  1.0000
  H   H370      1.0  0.31707  0.36073  0.00480  1.0000
  H   H371      1.0  0.15752  0.44655  0.47803  1.0000
  S   S61       1.0  0.31073  0.48932  0.49046  1.0000
  H   H372      1.0  0.14361  0.38079  0.99744  1.0000
  N   N15       1.0  0.13291  0.40271  0.99879  1.0000
  C   C220      1.0  0.21955  0.43159  0.99907  1.0000
  C   C221      1.0  0.32541  0.33728  0.99853  1.0000
  C   C222      1.0  0.23088  0.44994  0.97978  1.0000
  S   S62       1.0  0.44410  0.33251  0.53671  1.0000
  H   H373      1.0  0.24045  0.46527  0.50173  1.0000
  H   H374      1.0  0.36806  0.28349  0.56591  1.0000
  C   C223      1.0  0.14093  0.39783  0.93354  1.0000
  H   H375      1.0  0.44617  0.29379  0.92450  1.0000
  H   H376      1.0  0.01268  0.35449  0.80032  1.0000
  Fe  Fe31      1.0  0.08184  0.34878  0.92878  1.0000
  S   S63       1.0  0.08569  0.37737  0.90849  1.0000
  S   S64       1.0  0.10908  0.34386  0.93214  1.0000
  Fe  Fe32      1.0  0.03889  0.33703  0.92986  1.0000
  S   S65       1.0  0.04122  0.36547  0.91192  1.0000
  S   S66       1.0  0.01113  0.31234  0.93215  1.0000
  Fe  Fe33      1.0  0.06260  0.36408  0.87229  1.0000
  S   S67       1.0  0.06016  0.37359  0.81531  1.0000
  Fe  Fe34      1.0  0.06424  0.37606  0.94970  1.0000
  H   H377      1.0  0.03458  0.30426  0.78534  1.0000
  S   S68       1.0  0.06003  0.33552  0.88909  1.0000
  S   S69       1.0  0.06064  0.34763  0.97122  1.0000
  C   C224      1.0  0.03230  0.28938  0.50280  1.0000
  Fe  Fe35      1.0  0.03697  0.34206  0.55883  1.0000
  S   S70       1.0  0.04862  0.36233  0.60209  1.0000
  S   S71       1.0  0.00642  0.33329  0.54570  1.0000
  Fe  Fe36      1.0  0.07539  0.34214  0.53658  1.0000
  S   S72       1.0  0.08885  0.36137  0.57913  1.0000
  H   H378      1.0  0.41967  0.26582  0.51379  1.0000
  Fe  Fe37      1.0  0.06508  0.34497  0.61524  1.0000
  S   S73       1.0  0.07068  0.33682  0.67119  1.0000
  Fe  Fe38      1.0  0.07152  0.37730  0.56261  1.0000
  S   S74       1.0  0.05267  0.32395  0.57374  1.0000
  H   H379      1.0  0.98707  0.33402  0.94140  1.0000
  C   C225      1.0  0.23339  0.48042  0.95781  1.0000
  H   H380      1.0  0.46162  0.26355  0.79811  1.0000
  H   H381      1.0  0.24535  0.45242  0.98480  1.0000
  H   H382      1.0  0.27812  0.47131  0.53519  1.0000
  H   H383      1.0  0.10122  0.40185  0.78000  1.0000
  C   C226      1.0  0.21301  0.29358  0.99365  1.0000
  H   H384      1.0  0.45558  0.30812  0.83169  1.0000
  H   H385      1.0  0.39171  0.29213  0.55421  1.0000
  H   H386      1.0  0.46405  0.27519  0.84034  1.0000
  C   C227      1.0  0.48188  0.31051  0.80825  1.0000
  C   C228      1.0  0.12572  0.34287  0.52231  1.0000
  H   H387      1.0  0.18407  0.31531  0.50921  1.0000
  H   H388      1.0  0.11914  0.34368  0.54748  1.0000
  C   C229      1.0  0.31758  0.47148  0.58395  1.0000
  H   H389      1.0  0.99188  0.27352  0.50887  1.0000
  H   H390      1.0  0.98723  0.31456  0.86068  1.0000
  H   H391      1.0  0.40750  0.32555  0.51673  1.0000
  H   H392      1.0  0.16019  0.40673  0.52842  1.0000
  H   H393      1.0  0.46874  0.29920  0.97152  1.0000
  H   H394      1.0  0.15060  0.39104  0.94077  1.0000
  H   H395      1.0  0.47374  0.30382  0.70341  1.0000
  C   C230      1.0  0.06097  0.36115  0.77684  1.0000
  C   C231      1.0  0.05309  0.36460  0.74563  1.0000
  C   C232      1.0  0.05533  0.35670  0.71329  1.0000
  C   C233      1.0  0.06559  0.34535  0.71188  1.0000
  C   C234      1.0  0.07271  0.34121  0.74349  1.0000
  C   C235      1.0  0.07040  0.34903  0.77584  1.0000
  H   H396      1.0  0.04560  0.37381  0.74627  1.0000
  H   H397      1.0  0.04952  0.35976  0.68929  1.0000
  H   H398      1.0  0.08053  0.33230  0.74275  1.0000
  H   H399      1.0  0.07653  0.34624  0.79967  1.0000
  H   H400      1.0  0.30953  0.47549  0.56366  1.0000
  H   H401      1.0  0.13796  0.42145  0.55056  1.0000
  C   C236      1.0  0.14401  0.34963  0.95351  1.0000
  S   S75       1.0  0.47591  0.35757  0.80662  1.0000
  H   H402      1.0  0.14744  0.35093  0.92528  1.0000
  N   N16       1.0  0.39124  0.25626  0.53089  1.0000
  C   C237      1.0  0.09743  0.42649  0.95666  1.0000
  C   C238      1.0  0.41902  0.27532  0.56641  1.0000
  C   C239      1.0  0.40494  0.30662  0.95218  1.0000
  C   C240      1.0  0.42279  0.31955  0.95222  1.0000
  H   H403      1.0  0.45750  0.26929  0.94870  1.0000
  C   C241      1.0  0.42969  0.32842  0.98349  1.0000
  H   H404      1.0  0.39967  0.29998  0.92776  1.0000
  H   H405      1.0  0.43111  0.32283  0.92795  1.0000
  H   H406      1.0  0.28809  0.47529  0.61768  1.0000
  H   H407      1.0  0.17170  0.35474  0.96886  1.0000
  H   H408      1.0  0.31857  0.33431  0.97269  1.0000
  H   H409      1.0  0.34617  0.47335  0.58703  1.0000
  C   C242      1.0  0.11192  0.44353  0.95602  1.0000
  H   H410      1.0  0.27125  0.45698  0.64174  1.0000
  C   C243      1.0  0.46111  0.30559  0.80572  1.0000
  H   H411      1.0  0.17423  0.29081  0.54872  1.0000
  H   H412      1.0  0.99731  0.34690  0.83923  1.0000
  S   S76       1.0  0.05883  0.35881  0.51822  1.0000
  H   H413      1.0  0.47793  0.35395  0.67619  1.0000
  H   H414      1.0  0.00641  0.28778  0.82273  1.0000
  H   H415      1.0  0.31276  0.30575  0.95701  1.0000
  H   H416      1.0  0.22034  0.30184  0.96989  1.0000
  H   H417      1.0  0.14709  0.44342  0.99558  1.0000
  H   H418      1.0  0.99535  0.29492  0.57466  1.0000
  Fe  Fe39      1.0  0.47381  0.34852  0.94089  1.0000
  H   H419      1.0  0.45812  0.31506  0.78644  1.0000
  H   H420      1.0  0.45323  0.29121  0.79974  1.0000
  C   C244      1.0  0.01797  0.33376  0.83486  1.0000
  H   H421      1.0  0.17081  0.41469  0.99560  1.0000
  C   C245      1.0  0.37020  0.33320  0.96236  1.0000
  C   C246      1.0  0.00819  0.31910  0.77847  1.0000
  H   H422      1.0  0.13008  0.41789  0.95199  1.0000
  H   H423      1.0  0.20550  0.27922  0.98643  1.0000
  S   S77       1.0  0.37159  0.28573  0.98172  1.0000
  H   H424      1.0  0.14584  0.26747  0.96513  1.0000
  H   H425      1.0  0.12206  0.39859  0.56242  1.0000
  H   H426      1.0  0.01301  0.30235  0.51553  1.0000
  C   C247      1.0  0.43172  0.32068  0.50033  1.0000
  C   C248      1.0  0.37851  0.26181  0.55465  1.0000
  C   C249      1.0  0.98677  0.30675  0.93311  1.0000
  C   C250      1.0  0.17816  0.27721  0.49986  1.0000
  C   C251      1.0  0.48175  0.29339  0.75205  1.0000
  H   H427      1.0  0.15331  0.27826  0.52693  1.0000
  C   C252      1.0  0.14537  0.39904  0.52784  1.0000
  C   C253      1.0  0.03418  0.30483  0.81479  1.0000
  C   C254      1.0  0.43728  0.27922  0.92852  1.0000
  S   S78       1.0  0.08658  0.40826  0.56174  1.0000
  H   H428      1.0  0.28661  0.43761  0.94144  1.0000
  C   C255      1.0  0.01137  0.34996  0.82874  1.0000
  H   H429      1.0  0.11420  0.37676  0.98020  1.0000
  H   H430      1.0  0.11445  0.37774  0.63498  1.0000
  C   C256      1.0  0.10828  0.44033  0.52727  1.0000
  H   H431      1.0  0.14364  0.38475  0.53672  1.0000
  H   H432      1.0  0.22939  0.44718  0.95082  1.0000
  H   H433      1.0  0.28053  0.41827  0.56748  1.0000
  H   H434      1.0  0.38136  0.26047  0.58322  1.0000
  H   H435      1.0  0.14515  0.28562  0.99237  1.0000
  H   H436      1.0  0.11180  0.44535  0.55368  1.0000
  C   C257      1.0  0.11560  0.45447  0.98611  1.0000
  H   H437      1.0  0.22573  0.47524  0.93336  1.0000
  H   H438      1.0  0.41056  0.28331  0.51664  1.0000
  H   H439      1.0  0.20220  0.48762  0.97777  1.0000
  C   C258      1.0  0.21055  0.31292  0.51016  1.0000
  N   N17       1.0  0.30828  0.45152  0.59506  1.0000
  C   C259      1.0  0.30759  0.44041  0.56228  1.0000
  H   H440      1.0  0.20557  0.42605  0.98908  1.0000
  C   C260      1.0  0.28899  0.44793  0.60802  1.0000
  C   C261      1.0  0.31857  0.44528  0.62268  1.0000
  C   C262      1.0  0.29510  0.41997  0.56509  1.0000
  H   H441      1.0  0.00085  0.28944  0.76700  1.0000
  C   C263      1.0  0.28572  0.46214  0.63239  1.0000
  C   C264      1.0  0.32309  0.45615  0.65717  1.0000
  C   C265      1.0  0.20580  0.33259  0.95658  1.0000
  H   H442      1.0  0.21276  0.32334  0.53092  1.0000
  H   H443      1.0  0.34295  0.49186  0.56318  1.0000
  H   H444      1.0  0.28315  0.43434  0.62236  1.0000
  H   H445      1.0  0.31084  0.43082  0.63148  1.0000
  H   H446      1.0  0.33147  0.44462  0.61121  1.0000
  H   H447      1.0  0.26631  0.41608  0.98746  1.0000
  H   H448      1.0  0.98517  0.29978  0.75112  1.0000
  C   C266      1.0  0.15336  0.28202  0.97146  1.0000
  H   H449      1.0  0.42306  0.27823  0.93375  1.0000
  H   H450      1.0  0.43758  0.27251  0.90289  1.0000
  H   H451      1.0  0.36066  0.35505  0.97254  1.0000
  H   H452      1.0  0.29394  0.46477  0.65635  1.0000
  H   H453      1.0  0.31224  0.45005  0.67806  1.0000
  H   H454      1.0  0.32556  0.47094  0.65374  1.0000
  H   H455      1.0  0.33601  0.45562  0.66735  1.0000
  N   N18       1.0  0.09743  0.40500  0.68716  1.0000
  C   C267      1.0  0.09976  0.39718  0.72312  1.0000
  C   C268      1.0  0.09741  0.39108  0.65993  1.0000
  C   C269      1.0  0.07924  0.40734  0.68832  1.0000
  C   C270      1.0  0.11271  0.42327  0.68065  1.0000
  C   C271      1.0  0.09708  0.40765  0.75585  1.0000
  C   C272      1.0  0.11421  0.38534  0.65945  1.0000
  C   C273      1.0  0.07248  0.41253  0.65313  1.0000
  C   C274      1.0  0.11771  0.43012  0.64144  1.0000
  H   H456      1.0  0.09026  0.38274  0.72698  1.0000
  H   H457      1.0  0.11357  0.39651  0.72507  1.0000
  H   H458      1.0  0.09612  0.39577  0.63248  1.0000
  H   H459      1.0  0.08522  0.37832  0.66435  1.0000
  H   H460      1.0  0.06847  0.39447  0.69857  1.0000
  H   H461      1.0  0.07919  0.41813  0.70710  1.0000
  H   H462      1.0  0.10981  0.43425  0.69520  1.0000
  H   H463      1.0  0.12548  0.42272  0.69177  1.0000
  H   H464      1.0  0.08255  0.40569  0.76064  1.0000
  H   H465      1.0  0.10543  0.42247  0.75359  1.0000
  H   H466      1.0  0.46353  0.35556  0.73509  1.0000
  H   H467      1.0  0.12710  0.39730  0.65958  1.0000
  H   H468      1.0  0.11351  0.37577  0.68225  1.0000
  H   H469      1.0  0.07099  0.40218  0.63265  1.0000
  H   H470      1.0  0.08104  0.42647  0.64303  1.0000
  H   H471      1.0  0.05867  0.41290  0.65805  1.0000
  H   H472      1.0  0.12209  0.44533  0.64007  1.0000
  H   H473      1.0  0.10664  0.42504  0.62267  1.0000
  H   H474      1.0  0.12962  0.42698  0.63155  1.0000
  H   H475      1.0  0.10541  0.39468  0.97992  1.0000
  H   H476      1.0  0.14620  0.40573  0.90817  1.0000
  C   C275      1.0  0.25382  0.48596  0.94758  1.0000
  H   H477      1.0  0.15407  0.29043  0.94693  1.0000
  C   C276      1.0  0.01491  0.30184  0.82997  1.0000
  H   H478      1.0  0.20988  0.33799  0.92885  1.0000
  H   H479      1.0  0.29671  0.41329  0.54007  1.0000
  C   C277      1.0  0.28286  0.44294  0.96550  1.0000
  C   C278      1.0  0.17236  0.28391  0.98432  1.0000
  H   H480      1.0  0.01526  0.30110  0.85960  1.0000
  S   S79       1.0  0.46947  0.32992  0.89501  1.0000
  S   S80       1.0  0.45220  0.34455  0.98493  1.0000
  H   H481      1.0  0.12039  0.44820  0.93208  1.0000
  S   S81       1.0  0.30417  0.47676  0.93673  1.0000
  H   H482      1.0  0.03845  0.29364  0.82532  1.0000
  H   H483      1.0  0.03228  0.33867  0.82480  1.0000
  H   H484      1.0  0.19711  0.30498  0.93796  1.0000
  H   H485      1.0  0.43237  0.28670  0.56210  1.0000
  C   C279      1.0  0.32528  0.30273  0.96105  1.0000
  C   C280      1.0  0.27891  0.46199  0.51499  1.0000
  H   H486      1.0  0.00135  0.32877  0.77069  1.0000
  C   C281      1.0  0.28945  0.46202  0.97015  1.0000
  H   H487      1.0  0.47201  0.25680  0.83470  1.0000
  H   H488      1.0  0.32135  0.44061  0.55427  1.0000
  H   H489      1.0  0.11609  0.37392  0.50769  1.0000
  H   H490      1.0  0.30309  0.44651  0.53903  1.0000
  H   H491      1.0  0.16507  0.31663  0.99611  1.0000
  H   H492      1.0  0.25765  0.47415  0.94002  1.0000
  H   H493      1.0  0.19977  0.45569  0.96602  1.0000
  C   C282      1.0  0.11396  0.38872  0.99539  1.0000
  C   C283      1.0  0.98755  0.31064  0.83242  1.0000
  H   H494      1.0  0.41090  0.28034  0.58508  1.0000
  C   C284      1.0  0.13657  0.40707  0.55704  1.0000
  H   H495      1.0  0.15219  0.34923  0.54448  1.0000
  H   H496      1.0  0.08266  0.46965  0.98282  1.0000
  C   C285      1.0  0.15783  0.35174  0.97821  1.0000
  H   H497      1.0  0.01852  0.33180  0.86419  1.0000
  H   H498      1.0  0.46722  0.28466  0.75517  1.0000
  H   H499      1.0  0.28017  0.44720  0.58499  1.0000
  C   C286      1.0  0.37855  0.28143  0.54806  1.0000
  H   H500      1.0  0.02251  0.32637  0.76869  1.0000
  H   H501      1.0  0.42120  0.28440  0.99108  1.0000
  H   H502      1.0  0.33472  0.30776  0.93763  1.0000
  C   C287      1.0  0.35430  0.34004  0.96860  1.0000
  C   C288      1.0  0.45735  0.29721  0.99127  1.0000
  H   H503      1.0  0.00712  0.30448  0.72951  1.0000
  N   N19       1.0  0.44516  0.27722  0.99464  1.0000
  H   H504      1.0  0.25510  0.43981  0.53535  1.0000
  Fe  Fe40      1.0  0.47455  0.34033  0.54398  1.0000
  H   H505      1.0  0.19030  0.27483  0.50963  1.0000
  H   H506      1.0  0.16499  0.26634  0.55126  1.0000
  N   N20       1.0  0.00695  0.31592  0.81832  1.0000
  C   C289      1.0  0.26586  0.44411  0.51499  1.0000
  C   C290      1.0  0.41021  0.27040  0.53004  1.0000
  C   C291      1.0  0.27143  0.43069  0.99165  1.0000
  H   H507      1.0  0.36419  0.25244  0.55166  1.0000
  H   H508      1.0  0.34703  0.33884  0.94323  1.0000
  C   C292      1.0  0.14450  0.34601  0.52051  1.0000
  C   C293      1.0  0.12586  0.34614  0.96487  1.0000
  H   H509      1.0  0.47902  0.31993  0.73822  1.0000
  C   C294      1.0  0.13937  0.41114  0.96212  1.0000
  C   C295      1.0  0.09579  0.42242  0.52325  1.0000
  H   H510      1.0  0.09483  0.41816  0.93337  1.0000
  H   H511      1.0  0.32114  0.28754  0.96213  1.0000
  H   H512      1.0  0.11032  0.39377  0.50891  1.0000
  C   C296      1.0  0.33424  0.31021  0.99631  1.0000
  H   H513      1.0  0.37931  0.34160  0.94044  1.0000
  H   H514      1.0  0.12758  0.38732  0.92779  1.0000
  C   C297      1.0  0.33713  0.47679  0.56834  1.0000
  C   C298      1.0  0.20599  0.46160  0.99137  1.0000
  H   H515      1.0  0.17846  0.27757  0.96379  1.0000
  H   H516      1.0  0.17988  0.31445  0.94100  1.0000
  H   H517      1.0  0.26895  0.31388  0.97767  1.0000
  C   C299      1.0  0.47747  0.35622  0.73354  1.0000
  H   H518      1.0  0.29862  0.41242  0.58727  1.0000
  H   H519      1.0  0.12606  0.46552  0.50069  1.0000
  H   H520      1.0  0.31818  0.48082  0.60602  1.0000
  H   H521      1.0  0.42178  0.26364  0.57894  1.0000
  H   H522      1.0  0.47933  0.29394  0.51157  1.0000
  C   C300      1.0  0.39389  0.30217  0.98346  1.0000
  C   C301      1.0  0.47055  0.26886  0.82069  1.0000
  C   C302      1.0  0.19145  0.31305  0.95554  1.0000
  H   H523      1.0  0.14358  0.40717  0.58233  1.0000
  C   C303      1.0  0.16703  0.27849  0.53338  1.0000
  H   H524      1.0  0.03638  0.29082  0.53095  1.0000
  H   H525      1.0  0.21666  0.45735  0.51140  1.0000
  H   H526      1.0  0.09981  0.47762  0.94873  1.0000
  C   C304      1.0  0.08627  0.42032  0.98730  1.0000
  H   H527      1.0  0.43459  0.25478  0.95846  1.0000
  H   H528      1.0  0.20029  0.34220  0.96953  1.0000
  H   H529      1.0  0.37861  0.33463  0.98608  1.0000
  H   H530      1.0  0.37508  0.28374  0.52049  1.0000
  C   C305      1.0  0.99968  0.30214  0.75574  1.0000
  N   N21       1.0  0.18496  0.30320  0.99109  1.0000
  N   N22       1.0  0.22633  0.46664  0.98853  1.0000
  S   S82       1.0  0.06822  0.39870  0.98965  1.0000
  H   H531      1.0  0.04446  0.31784  0.82302  1.0000
  S   S83       1.0  0.13421  0.47564  0.98366  1.0000
  C   C306      1.0  0.08985  0.48160  0.96455  1.0000
  C   C307      1.0  0.44398  0.26934  0.95804  1.0000
  H   H532      1.0  0.20993  0.30028  0.52478  1.0000
  H   H533      1.0  0.07954  0.48346  0.94695  1.0000
  H   H534      1.0  0.15284  0.42228  0.96231  1.0000
  H   H535      1.0  0.36550  0.31878  0.95395  1.0000
  C   C308      1.0  0.98501  0.31441  0.55105  1.0000
  H   H536      1.0  0.44982  0.30569  0.98059  1.0000
  H   H537      1.0  0.33831  0.36638  0.98099  1.0000
  H   H538      1.0  0.33743  0.47054  0.54224  1.0000
  H   H539      1.0  0.02021  0.36191  0.84334  1.0000
  H   H540      1.0  0.21836  0.33290  0.96954  1.0000
  C   C309      1.0  0.41344  0.31898  0.49760  1.0000
  H   H541      1.0  0.22591  0.42129  0.99326  1.0000
  H   H542      1.0  0.25822  0.49236  0.79614  1.0000
  C   C310      1.0  0.48302  0.30923  0.72559  1.0000
  H   H543      1.0  0.02304  0.27498  0.50038  1.0000
  C   C311      1.0  0.11639  0.45180  0.49728  1.0000
  H   H544      1.0  0.16747  0.43214  0.49827  1.0000
  C   C312      1.0  0.24548  0.53016  0.01075  1.0000
  Fe  Fe41      1.0  0.47976  0.67398  0.04228  1.0000
  Fe  Fe42      1.0  0.15394  0.53310  0.05568  1.0000
  S   S84       1.0  0.17327  0.53044  0.09650  1.0000
  S   S85       1.0  0.14782  0.55942  0.05331  1.0000
  Fe  Fe43      1.0  0.18409  0.51738  0.05326  1.0000
  S   S86       1.0  0.21438  0.52382  0.05031  1.0000
  C   C313      1.0  0.22685  0.52688  0.00977  1.0000
  H   H545      1.0  0.46716  0.61287  0.42873  1.0000
  H   H546      1.0  0.17203  0.57331  0.43073  1.0000
  H   H547      1.0  0.47204  0.70069  0.23439  1.0000
  Fe  Fe44      1.0  0.44083  0.64836  0.02467  1.0000
  S   S87       1.0  0.42789  0.66106  0.06524  1.0000
  H   H548      1.0  0.08979  0.53313  0.01130  1.0000
  H   H549      1.0  0.22504  0.62520  0.05476  1.0000
  C   C314      1.0  0.10394  0.70993  0.01087  1.0000
  Fe  Fe45      1.0  0.44977  0.66029  0.10205  1.0000
  S   S88       1.0  0.44311  0.64776  0.15863  1.0000
  Fe  Fe46      1.0  0.44869  0.68790  0.04442  1.0000
  S   S89       1.0  0.44384  0.71461  0.04080  1.0000
  S   S90       1.0  0.46154  0.64591  0.06273  1.0000
  H   H550      1.0  0.23478  0.73205  0.29974  1.0000
  Fe  Fe47      1.0  0.43293  0.64743  0.41751  1.0000
  S   S91       1.0  0.42926  0.67070  0.38604  1.0000
  S   S92       1.0  0.41167  0.61831  0.42058  1.0000
  H   H551      1.0  0.22336  0.55204  0.42461  1.0000
  S   S93       1.0  0.47102  0.69610  0.40787  1.0000
  Fe  Fe48      1.0  0.44274  0.68821  0.43146  1.0000
  H   H552      1.0  0.13905  0.68326  0.47872  1.0000
  Fe  Fe49      1.0  0.45774  0.67657  0.36422  1.0000
  S   S94       1.0  0.46705  0.68676  0.30667  1.0000
  C   C315      1.0  0.22151  0.60736  0.45426  1.0000
  S   S95       1.0  0.46076  0.65212  0.39277  1.0000
  Fe  Fe50      1.0  0.16142  0.51861  0.36676  1.0000
  S   S96       1.0  0.13881  0.51306  0.40846  1.0000
  S   S97       1.0  0.15941  0.53019  0.31126  1.0000
  H   H553      1.0  0.46158  0.73084  0.41831  1.0000
  C   C316      1.0  0.10940  0.51817  0.33000  1.0000
  H   H554      1.0  0.44638  0.58832  0.46135  1.0000
  C   C317      1.0  0.10810  0.50694  0.29625  1.0000
  Fe  Fe51      1.0  0.16086  0.52746  0.44606  1.0000
  S   S98       1.0  0.10772  0.72006  0.42166  1.0000
  H   H555      1.0  0.14877  0.69976  0.00839  1.0000
  S   S99       1.0  0.18300  0.53503  0.40354  1.0000
  H   H556      1.0  0.22752  0.59820  0.09145  1.0000
  H   H557      1.0  0.21399  0.55610  0.08988  1.0000
  H   H558      1.0  0.11225  0.53274  0.32183  1.0000
  C   C318      1.0  0.01008  0.73206  0.43623  1.0000
  H   H559      1.0  0.43600  0.63424  0.23132  1.0000
  C   C319      1.0  0.10787  0.71078  0.21843  1.0000
  C   C320      1.0  0.45871  0.73859  0.43963  1.0000
  C   C321      1.0  0.44082  0.74015  0.49189  1.0000
  H   H560      1.0  0.20294  0.60384  0.09480  1.0000
  H   H561      1.0  0.20108  0.56902  0.10903  1.0000
  H   H562      1.0  0.24146  0.61003  0.49390  1.0000
  H   H563      1.0  0.10699  0.69992  0.16366  1.0000
  C   C322      1.0  0.26395  0.73727  0.30820  1.0000
  H   H564      1.0  0.42634  0.74151  0.37202  1.0000
  S   S100      1.0  0.11223  0.72938  0.07273  1.0000
  H   H565      1.0  0.01811  0.71789  0.39440  1.0000
  C   C323      1.0  0.16414  0.57043  0.48639  1.0000
  H   H566      1.0  0.08202  0.72669  0.27448  1.0000
  S   S101      1.0  0.46939  0.68802  0.08444  1.0000
  C   C324      1.0  0.44888  0.65913  0.19960  1.0000
  C   C325      1.0  0.45894  0.67794  0.20077  1.0000
  C   C326      1.0  0.46411  0.68618  0.23379  1.0000
  C   C327      1.0  0.45913  0.67582  0.26606  1.0000
  C   C328      1.0  0.44879  0.65707  0.26488  1.0000
  C   C329      1.0  0.44378  0.64879  0.23184  1.0000
  H   H567      1.0  0.46283  0.68613  0.17628  1.0000
  H   H568      1.0  0.41468  0.57013  0.46812  1.0000
  H   H569      1.0  0.44488  0.64891  0.28943  1.0000
  Fe  Fe52      1.0  0.15293  0.50229  0.10864  1.0000
  H   H570      1.0  0.22248  0.57061  0.12607  1.0000
  C   C330      1.0  0.23207  0.71869  0.47220  1.0000
  C   C331      1.0  0.13629  0.70256  0.00900  1.0000
  C   C332      1.0  0.99419  0.73402  0.04395  1.0000
  H   H571      1.0  0.25024  0.51195  0.43417  1.0000
  C   C333      1.0  0.21485  0.56935  0.10123  1.0000
  S   S102      1.0  0.44433  0.66454  0.46422  1.0000
  H   H572      1.0  0.21234  0.55246  0.48037  1.0000
  H   H573      1.0  0.11849  0.71360  0.23882  1.0000
  C   C334      1.0  0.15837  0.50129  0.26803  1.0000
  H   H574      1.0  0.22837  0.56822  0.01989  1.0000
  H   H575      1.0  0.47923  0.60546  0.46271  1.0000
  C   C335      1.0  0.21536  0.56625  0.46748  1.0000
  C   C336      1.0  0.15831  0.51915  0.27005  1.0000
  C   C337      1.0  0.15615  0.52822  0.23869  1.0000
  C   C338      1.0  0.15360  0.51942  0.20584  1.0000
  H   H576      1.0  0.21885  0.60618  0.99747  1.0000
  C   C339      1.0  0.15102  0.59220  0.02005  1.0000
  H   H577      1.0  0.15613  0.54204  0.23993  1.0000
  H   H578      1.0  0.15157  0.52646  0.18212  1.0000
  C   C340      1.0  0.17589  0.73156  0.45632  1.0000
  C   C341      1.0  0.39347  0.61701  0.48577  1.0000
  H   H579      1.0  0.23879  0.60131  0.00596  1.0000
  C   C342      1.0  0.24439  0.73403  0.32159  1.0000
  H   H580      1.0  0.24502  0.59980  0.45478  1.0000
  C   C343      1.0  0.22503  0.58576  0.07572  1.0000
  S   S103      1.0  0.16647  0.52234  0.01141  1.0000
  C   C344      1.0  0.44927  0.72762  0.00058  1.0000
  H   H581      1.0  0.25186  0.53090  0.03612  1.0000
  H   H582      1.0  0.40562  0.74237  0.42103  1.0000
  C   C345      1.0  0.99487  0.73322  0.45520  1.0000
  C   C346      1.0  0.17545  0.59964  0.45305  1.0000
  H   H583      1.0  0.14592  0.73328  0.48826  1.0000
  H   H584      1.0  0.21800  0.57111  0.40944  1.0000
  H   H585      1.0  0.26345  0.72479  0.29374  1.0000
  H   H586      1.0  0.19373  0.61247  0.05773  1.0000
  C   C347      1.0  0.23520  0.62168  0.03883  1.0000
  H   H587      1.0  0.22294  0.70451  0.47312  1.0000
  C   C348      1.0  0.24330  0.72610  0.44171  1.0000
  S   S104      1.0  0.13235  0.50562  0.07088  1.0000
  S   S105      1.0  0.21268  0.50480  0.42151  1.0000
  C   C349      1.0  0.00675  0.71917  0.40932  1.0000
  C   C350      1.0  0.39488  0.60787  0.45487  1.0000
  H   H588      1.0  0.19012  0.71601  0.42922  1.0000
  H   H589      1.0  0.07863  0.69761  0.17068  1.0000
  C   C351      1.0  0.11632  0.71635  0.03783  1.0000
  H   H590      1.0  0.39995  0.74061  0.48007  1.0000
  S   S106      1.0  0.02569  0.72500  0.03601  1.0000
  C   C352      1.0  0.22596  0.51387  0.45837  1.0000
  C   C353      1.0  0.38311  0.58956  0.45159  1.0000
  N   N23       1.0  0.10403  0.72797  0.20904  1.0000
  H   H591      1.0  0.38401  0.58236  0.42779  1.0000
  H   H592      1.0  0.07510  0.71552  0.22139  1.0000
  C   C354      1.0  0.47521  0.61687  0.45303  1.0000
  H   H593      1.0  0.08825  0.49911  0.00599  1.0000
  C   C355      1.0  0.13072  0.69147  0.48312  1.0000
  C   C356      1.0  0.07839  0.71159  0.16633  1.0000
  H   H594      1.0  0.12939  0.71005  0.18060  1.0000
  H   H595      1.0  0.08647  0.71817  0.14193  1.0000
  N   N24       1.0  0.39498  0.59915  0.10503  1.0000
  C   C357      1.0  0.38761  0.58461  0.07775  1.0000
  C   C358      1.0  0.41482  0.60920  0.09528  1.0000
  C   C359      1.0  0.38503  0.61238  0.10182  1.0000
  C   C360      1.0  0.39187  0.58988  0.14160  1.0000
  C   C361      1.0  0.36684  0.57432  0.07898  1.0000
  C   C362      1.0  0.42654  0.59711  0.09271  1.0000
  C   C363      1.0  0.39051  0.62859  0.12704  1.0000
  C   C364      1.0  0.40457  0.60016  0.17113  1.0000
  H   H596      1.0  0.39146  0.59060  0.05038  1.0000
  H   H597      1.0  0.39373  0.57383  0.08024  1.0000
  H   H598      1.0  0.42145  0.62006  0.11404  1.0000
  H   H599      1.0  0.41634  0.61670  0.06911  1.0000
  H   H600      1.0  0.38658  0.61823  0.07409  1.0000
  H   H601      1.0  0.37020  0.60527  0.10717  1.0000
  H   H602      1.0  0.37760  0.58682  0.15135  1.0000
  H   H603      1.0  0.39360  0.57635  0.14020  1.0000
  H   H604      1.0  0.35963  0.58306  0.06809  1.0000
  H   H605      1.0  0.36357  0.56236  0.06145  1.0000
  H   H606      1.0  0.36143  0.56904  0.10613  1.0000
  H   H607      1.0  0.42425  0.58961  0.06746  1.0000
  H   H608      1.0  0.44113  0.60604  0.09222  1.0000
  H   H609      1.0  0.42405  0.58727  0.11564  1.0000
  H   H610      1.0  0.38615  0.62389  0.15499  1.0000
  H   H611      1.0  0.38333  0.63800  0.11953  1.0000
  H   H612      1.0  0.40519  0.63692  0.12527  1.0000
  H   H613      1.0  0.39694  0.59674  0.19716  1.0000
  H   H614      1.0  0.40987  0.61526  0.16822  1.0000
  H   H615      1.0  0.41607  0.59524  0.17388  1.0000
  H   H616      1.0  0.98646  0.69810  0.38069  1.0000
  H   H617      1.0  0.12894  0.69718  0.42719  1.0000
  H   H618      1.0  0.11455  0.68806  0.19730  1.0000
  C   C365      1.0  0.98943  0.70182  0.04160  1.0000
  H   H619      1.0  0.09558  0.70004  0.23095  1.0000
  C   C366      1.0  0.11703  0.73897  0.17963  1.0000
  H   H620      1.0  0.17977  0.59359  0.08602  1.0000
  H   H621      1.0  0.09662  0.51350  0.34642  1.0000
  Fe  Fe53      1.0  0.47191  0.67123  0.43769  1.0000
  H   H622      1.0  0.24277  0.71754  0.41923  1.0000
  H   H623      1.0  0.43370  0.60206  0.45161  1.0000
  C   C367      1.0  0.09689  0.73029  0.27624  1.0000
  S   S107      1.0  0.43133  0.70661  0.46185  1.0000
  C   C368      1.0  0.11409  0.71002  0.45919  1.0000
  C   C369      1.0  0.13246  0.71255  0.03688  1.0000
  H   H624      1.0  0.17672  0.74032  0.43214  1.0000
  C   C370      1.0  0.12493  0.69933  0.45396  1.0000
  H   H625      1.0  0.19342  0.71684  0.47591  1.0000
  H   H626      1.0  0.18733  0.57207  0.05659  1.0000
  C   C371      1.0  0.08449  0.72328  0.19925  1.0000
  C   C372      1.0  0.15297  0.50133  0.20404  1.0000
  C   C373      1.0  0.98867  0.70789  0.40158  1.0000
  C   C374      1.0  0.19346  0.59995  0.07278  1.0000
  C   C375      1.0  0.25491  0.57397  0.49127  1.0000
  H   H627      1.0  0.26923  0.52372  0.48619  1.0000
  H   H628      1.0  0.10921  0.49546  0.00366  1.0000
  S   S108      1.0  0.46019  0.67551  0.00089  1.0000
  C   C376      1.0  0.25507  0.52228  0.48709  1.0000
  H   H629      1.0  0.12113  0.51357  0.28068  1.0000
  H   H630      1.0  0.48199  0.66532  0.15877  1.0000
  H   H631      1.0  0.24643  0.62150  0.05588  1.0000
  C   C377      1.0  0.19661  0.58603  0.04744  1.0000
  H   H632      1.0  0.14208  0.71741  0.05770  1.0000
  H   H633      1.0  0.20529  0.55717  0.03404  1.0000
  H   H634      1.0  0.18049  0.60723  0.42819  1.0000
  H   H635      1.0  0.08135  0.73593  0.19496  1.0000
  H   H636      1.0  0.21359  0.61262  0.47306  1.0000
  H   H637      1.0  0.19093  0.58833  0.02182  1.0000
  S   S109      1.0  0.15886  0.54634  0.49016  1.0000
  C   C378      1.0  0.10725  0.73970  0.24143  1.0000
  H   H638      1.0  0.01935  0.73316  0.32545  1.0000
  H   H639      1.0  0.11512  0.73140  0.15451  1.0000
  C   C379      1.0  0.21845  0.51891  0.48863  1.0000
  H   H640      1.0  0.47712  0.63689  0.12840  1.0000
  H   H641      1.0  0.16326  0.71930  0.45412  1.0000
  H   H642      1.0  0.26292  0.58646  0.47530  1.0000
  H   H643      1.0  0.13124  0.49564  0.32325  1.0000
  H   H644      1.0  0.20429  0.51746  0.48953  1.0000
  S   S110      1.0  0.06513  0.73588  0.09805  1.0000
  C   C380      1.0  0.23423  0.59966  0.47424  1.0000
  H   H645      1.0  0.20180  0.56689  0.46164  1.0000
  C   C381      1.0  0.17391  0.60916  0.48360  1.0000
  H   H646      1.0  0.22977  0.61924  0.43681  1.0000
  H   H647      1.0  0.09748  0.50936  0.28018  1.0000
  C   C382      1.0  0.17065  0.58040  0.45440  1.0000
  C   C383      1.0  0.22699  0.60353  0.01931  1.0000
  N   N25       1.0  0.21581  0.58666  0.04143  1.0000
  H   H648      1.0  0.99487  0.69095  0.03986  1.0000
  H   H649      1.0  0.41486  0.73205  0.01366  1.0000
  C   C384      1.0  0.19212  0.72500  0.45242  1.0000
  H   H650      1.0  0.23957  0.57441  0.42880  1.0000
  H   H651      1.0  0.09594  0.49515  0.22931  1.0000
  H   H652      1.0  0.12087  0.51821  0.34637  1.0000
  C   C385      1.0  0.11498  0.70183  0.18798  1.0000
  C   C386      1.0  0.00162  0.72020  0.04171  1.0000
  C   C387      1.0  0.43791  0.59523  0.47419  1.0000
  C   C388      1.0  0.37020  0.58042  0.47894  1.0000
  H   H653      1.0  0.25019  0.56179  0.47440  1.0000
  C   C389      1.0  0.24428  0.51558  0.45768  1.0000
  C   C390      1.0  0.44470  0.72992  0.46470  1.0000
  H   H654      1.0  0.36129  0.56634  0.47605  1.0000
  C   C391      1.0  0.22489  0.56636  0.43088  1.0000
  C   C392      1.0  0.21493  0.56997  0.02077  1.0000
  S   S111      1.0  0.18100  0.63349  0.48064  1.0000
  H   H655      1.0  0.20512  0.73666  0.44722  1.0000
  H   H656      1.0  0.21211  0.59711  0.43712  1.0000
  Fe  Fe54      1.0  0.18541  0.50805  0.41880  1.0000
  H   H657      1.0  0.38578  0.73612  0.01871  1.0000
  H   H658      1.0  0.40220  0.63116  0.48855  1.0000
  H   H659      1.0  0.46101  0.63427  0.46746  1.0000
  H   H660      1.0  0.14621  0.59549  0.04527  1.0000
  C   C393      1.0  0.46485  0.62354  0.48156  1.0000
  S   S112      1.0  0.16464  0.50119  0.46382  1.0000
  N   N26       1.0  0.17502  0.74157  0.48985  1.0000
  H   H661      1.0  0.23944  0.72114  0.33826  1.0000
  H   H662      1.0  0.09989  0.71799  0.28454  1.0000
  H   H663      1.0  0.12699  0.52812  0.00782  1.0000
  H   H664      1.0  0.47992  0.72016  0.48311  1.0000
  H   H665      1.0  0.09989  0.52252  0.04377  1.0000
  H   H666      1.0  0.06407  0.70992  0.16133  1.0000
  H   H667      1.0  0.23882  0.58536  0.06993  1.0000
  C   C394      1.0  0.10272  0.53331  0.02234  1.0000
  H   H668      1.0  0.10905  0.54669  0.03520  1.0000
  C   C395      1.0  0.15308  0.57517  0.01641  1.0000
  H   H669      1.0  0.09142  0.71265  0.01142  1.0000
  C   C396      1.0  0.10885  0.71258  0.49391  1.0000
  C   C397      1.0  0.42081  0.57972  0.48962  1.0000
  H   H670      1.0  0.24123  0.63306  0.01873  1.0000
  H   H671      1.0  0.39268  0.62881  0.00811  1.0000
  H   H672      1.0  0.26033  0.74186  0.23754  1.0000
  H   H673      1.0  0.36039  0.60856  0.00201  1.0000
  H   H674      1.0  0.10121  0.74015  0.29808  1.0000
  H   H675      1.0  0.43091  0.62469  0.48963  1.0000
  H   H676      1.0  0.27162  0.73730  0.33268  1.0000
  H   H677      1.0  0.13130  0.74140  0.18694  1.0000
  Fe  Fe55      1.0  0.14630  0.49447  0.02926  1.0000
  H   H678      1.0  0.16026  0.49422  0.29181  1.0000
  N   N27       1.0  0.22514  0.58110  0.49266  1.0000
  H   H679      1.0  0.29830  0.73606  0.31182  1.0000
  H   H680      1.0  0.28881  0.74196  0.25229  1.0000
  Fe  Fe56      1.0  0.09604  0.74272  0.42496  1.0000
  C   C398      1.0  0.38944  0.61527  0.99755  1.0000
  Fe  Fe57      1.0  0.32736  0.54814  0.94213  1.0000
  S   S113      1.0  0.31391  0.55614  0.89582  1.0000
  H   H681      1.0  0.21583  0.70593  0.87400  1.0000
  Fe  Fe58      1.0  0.30944  0.50716  0.92625  1.0000
  S   S114      1.0  0.29567  0.51286  0.87806  1.0000
  Fe  Fe59      1.0  0.32189  0.53588  0.86455  1.0000
  S   S115      1.0  0.33453  0.54712  0.80964  1.0000
  Fe  Fe60      1.0  0.28881  0.53256  0.91279  1.0000
  S   S116      1.0  0.26080  0.53378  0.90633  1.0000
  S   S117      1.0  0.33672  0.52892  0.90997  1.0000
  S   S118      1.0  0.30115  0.52573  0.96191  1.0000
  Fe  Fe61      1.0  0.15309  0.67708  0.93203  1.0000
  S   S119      1.0  0.17695  0.69829  0.90311  1.0000
  S   S120      1.0  0.12793  0.68377  0.94600  1.0000
  Fe  Fe62      1.0  0.16760  0.64612  0.91942  1.0000
  S   S121      1.0  0.19225  0.66528  0.88892  1.0000
  S   S122      1.0  0.16576  0.61619  0.92075  1.0000
  Fe  Fe63      1.0  0.19375  0.68504  0.93225  1.0000
  H   H682      1.0  0.29330  0.57648  0.79976  1.0000
  Fe  Fe64      1.0  0.17371  0.67702  0.86175  1.0000
  S   S123      1.0  0.17717  0.68893  0.80474  1.0000
  S   S124      1.0  0.17018  0.66515  0.96486  1.0000
  S   S125      1.0  0.14877  0.65650  0.88869  1.0000
  Fe  Fe65      1.0  0.17885  0.65272  0.52410  1.0000
  S   S126      1.0  0.20169  0.66580  0.56115  1.0000
  S   S127      1.0  0.26110  0.53703  0.55362  1.0000
  Fe  Fe66      1.0  0.15663  0.67519  0.55173  1.0000
  S   S128      1.0  0.17761  0.68934  0.59102  1.0000
  H   H683      1.0  0.23791  0.55725  0.75872  1.0000
  Fe  Fe67      1.0  0.19795  0.69230  0.54616  1.0000
  S   S129      1.0  0.21906  0.72111  0.54045  1.0000
  Fe  Fe68      1.0  0.17946  0.66191  0.60291  1.0000
  S   S130      1.0  0.17929  0.64962  0.65871  1.0000
  H   H684      1.0  0.36277  0.61006  0.88296  1.0000
  S   S131      1.0  0.15678  0.64710  0.56668  1.0000
  Fe  Fe69      1.0  0.31088  0.52099  0.60836  1.0000
  S   S132      1.0  0.33296  0.52412  0.56680  1.0000
  S   S133      1.0  0.30899  0.50720  0.66344  1.0000
  Fe  Fe70      1.0  0.28839  0.53361  0.55545  1.0000
  C   C399      1.0  0.24285  0.54563  0.76142  1.0000
  H   H685      1.0  0.14682  0.69646  0.70466  1.0000
  Fe  Fe71      1.0  0.31022  0.51112  0.52947  1.0000
  Fe  Fe72      1.0  0.32995  0.55088  0.55065  1.0000
  S   S134      1.0  0.35374  0.57847  0.54637  1.0000
  H   H686      1.0  0.08973  0.54676  0.95319  1.0000
  S   S135      1.0  0.30912  0.54841  0.59498  1.0000
  C   C400      1.0  0.13188  0.66004  0.72692  1.0000
  H   H687      1.0  0.26021  0.55706  0.80397  1.0000
  H   H688      1.0  0.40583  0.61084  0.80177  1.0000
  H   H689      1.0  0.37377  0.60767  0.82292  1.0000
  H   H690      1.0  0.21582  0.70276  0.79270  1.0000
  C   C401      1.0  0.09909  0.49857  0.98704  1.0000
  H   H691      1.0  0.26989  0.56566  0.76100  1.0000
  C   C402      1.0  0.39318  0.60110  0.79102  1.0000
  H   H692      1.0  0.13285  0.51149  0.95938  1.0000
  H   H693      1.0  0.39253  0.62522  0.85918  1.0000
  H   H694      1.0  0.41013  0.58484  0.49904  1.0000
  H   H695      1.0  0.34386  0.59194  0.90223  1.0000
  C   C403      1.0  0.11433  0.70438  0.52306  1.0000
  H   H696      1.0  0.15914  0.69281  0.66548  1.0000
  H   H697      1.0  0.47980  0.59712  0.52256  1.0000
  C   C404      1.0  0.14811  0.69731  0.67519  1.0000
  H   H698      1.0  0.25705  0.49547  0.92390  1.0000
  C   C405      1.0  0.21141  0.58305  0.51951  1.0000
  H   H699      1.0  0.08703  0.66745  0.67728  1.0000
  H   H700      1.0  0.26632  0.54219  0.69494  1.0000
  H   H701      1.0  0.46207  0.61162  0.54976  1.0000
  C   C406      1.0  0.21873  0.72931  0.98085  1.0000
  H   H702      1.0  0.11894  0.63146  0.62819  1.0000
  C   C407      1.0  0.25177  0.72241  0.81243  1.0000
  H   H703      1.0  0.30389  0.49393  0.73609  1.0000
  C   C408      1.0  0.12875  0.63711  0.64939  1.0000
  H   H704      1.0  0.12267  0.63088  0.67560  1.0000
  C   C409      1.0  0.17865  0.67779  0.76484  1.0000
  C   C410      1.0  0.18330  0.68826  0.73272  1.0000
  C   C411      1.0  0.18397  0.67990  0.70013  1.0000
  C   C412      1.0  0.17980  0.66094  0.69930  1.0000
  C   C413      1.0  0.17556  0.65054  0.73152  1.0000
  C   C414      1.0  0.17500  0.65891  0.76418  1.0000
  H   H705      1.0  0.18627  0.70290  0.73300  1.0000
  H   H706      1.0  0.18764  0.68810  0.67562  1.0000
  H   H707      1.0  0.17244  0.63587  0.73117  1.0000
  H   H708      1.0  0.17145  0.65070  0.78871  1.0000
  H   H709      1.0  0.29006  0.55471  0.73260  1.0000
  H   H710      1.0  0.12309  0.54486  0.98104  1.0000
  H   H711      1.0  0.44536  0.72317  0.91097  1.0000
  C   C415      1.0  0.36661  0.58615  0.97996  1.0000
  H   H712      1.0  0.23288  0.73036  0.77697  1.0000
  C   C416      1.0  0.15934  0.57111  0.98375  1.0000
  H   H713      1.0  0.24266  0.69244  0.76988  1.0000
  C   C417      1.0  0.32729  0.53580  0.76925  1.0000
  C   C418      1.0  0.33194  0.54596  0.73678  1.0000
  C   C419      1.0  0.32628  0.53749  0.70417  1.0000
  C   C420      1.0  0.31618  0.51867  0.70369  1.0000
  C   C421      1.0  0.31163  0.50850  0.73617  1.0000
  C   C422      1.0  0.31702  0.51703  0.76881  1.0000
  H   H714      1.0  0.33990  0.56048  0.73677  1.0000
  H   H715      1.0  0.32993  0.54547  0.67937  1.0000
  H   H716      1.0  0.44737  0.63038  0.56414  1.0000
  H   H717      1.0  0.31348  0.50900  0.79355  1.0000
  H   H718      1.0  0.09505  0.68194  0.63719  1.0000
  H   H719      1.0  0.21048  0.73386  0.86285  1.0000
  H   H720      1.0  0.22836  0.74233  0.82995  1.0000
  H   H721      1.0  0.39852  0.56467  0.89048  1.0000
  C   C423      1.0  0.09717  0.54087  0.93454  1.0000
  C   C424      1.0  0.16113  0.60091  0.95838  1.0000
  H   H722      1.0  0.23114  0.67212  0.79781  1.0000
  H   H723      1.0  0.11148  0.73589  0.93174  1.0000
  H   H724      1.0  0.42997  0.73346  0.51134  1.0000
  H   H725      1.0  0.29247  0.53395  0.74367  1.0000
  C   C425      1.0  0.24792  0.53165  0.94622  1.0000
  C   C426      1.0  0.22928  0.52855  0.94515  1.0000
  H   H726      1.0  0.15740  0.57234  0.54174  1.0000
  H   H727      1.0  0.22296  0.52786  0.91973  1.0000
  C   C427      1.0  0.46509  0.58866  0.52506  1.0000
  H   H728      1.0  0.37196  0.56035  0.82925  1.0000
  C   C428      1.0  0.22926  0.52571  0.51798  1.0000
  H   H729      1.0  0.38962  0.60826  0.76812  1.0000
  H   H730      1.0  0.30953  0.56956  0.82210  1.0000
  H   H731      1.0  0.16699  0.72285  0.57771  1.0000
  H   H732      1.0  0.27367  0.50424  0.76063  1.0000
  C   C429      1.0  0.28201  0.54033  0.74148  1.0000
  C   C430      1.0  0.11680  0.66096  0.70219  1.0000
  N   N28       1.0  0.10784  0.51668  0.96668  1.0000
  H   H733      1.0  0.23276  0.68607  0.87227  1.0000
  C   C431      1.0  0.17390  0.72871  0.52130  1.0000
  C   C432      1.0  0.36376  0.58205  0.87779  1.0000
  H   H734      1.0  0.20431  0.52339  0.97598  1.0000
  S   S136      1.0  0.28849  0.50594  0.57200  1.0000
  H   H735      1.0  0.39835  0.59292  0.89776  1.0000
  C   C433      1.0  0.26871  0.50579  0.78779  1.0000
  H   H736      1.0  0.09798  0.69482  0.96257  1.0000
  H   H737      1.0  0.35336  0.56879  0.87029  1.0000
  C   C434      1.0  0.26207  0.55277  0.77644  1.0000
  H   H738      1.0  0.38331  0.73537  0.97234  1.0000
  C   C435      1.0  0.09364  0.52053  0.94505  1.0000
  H   H739      1.0  0.34582  0.59508  0.85488  1.0000
  C   C436      1.0  0.35374  0.59577  0.87918  1.0000
  C   C437      1.0  0.38561  0.55779  0.87694  1.0000
  H   H740      1.0  0.07823  0.65962  0.63477  1.0000
  H   H741      1.0  0.23262  0.56277  0.52787  1.0000
  C   C438      1.0  0.26009  0.52070  0.78865  1.0000
  H   H742      1.0  0.27809  0.52633  0.69128  1.0000
  H   H743      1.0  0.13086  0.64560  0.73183  1.0000
  H   H744      1.0  0.24245  0.53984  0.73479  1.0000
  H   H745      1.0  0.20773  0.55642  0.97042  1.0000
  C   C439      1.0  0.36903  0.58947  0.51011  1.0000
  H   H746      1.0  0.29524  0.53771  0.80570  1.0000
  H   H747      1.0  0.24506  0.58644  0.53357  1.0000
  C   C440      1.0  0.21871  0.52604  0.97691  1.0000
  H   H748      1.0  0.15021  0.72827  0.55408  1.0000
  H   H749      1.0  0.41257  0.62780  0.88144  1.0000
  C   C441      1.0  0.27016  0.53175  0.70984  1.0000
  H   H750      1.0  0.21915  0.58054  0.96480  1.0000
  H   H751      1.0  0.15341  0.61812  0.99430  1.0000
  H   H752      1.0  0.10910  0.66132  0.61258  1.0000
  H   H753      1.0  0.15241  0.71211  0.66744  1.0000
  H   H754      1.0  0.16114  0.55812  0.98075  1.0000
  H   H755      1.0  0.46851  0.70632  0.54402  1.0000
  C   C442      1.0  0.22673  0.71676  0.85812  1.0000
  H   H756      1.0  0.11067  0.67040  0.71425  1.0000
  H   H757      1.0  0.24980  0.68832  0.83881  1.0000
  H   H758      1.0  0.13572  0.73399  0.96440  1.0000
  H   H759      1.0  0.09845  0.64418  0.64606  1.0000
  C   C443      1.0  0.22252  0.69536  0.80931  1.0000
  H   H760      1.0  0.47405  0.69095  0.51606  1.0000
  C   C444      1.0  0.23052  0.72037  0.97076  1.0000
  H   H761      1.0  0.43453  0.64205  0.54270  1.0000
  H   H762      1.0  0.27034  0.53515  0.98029  1.0000
  S   S137      1.0  0.13217  0.68406  0.55510  1.0000
  C   C445      1.0  0.39897  0.59160  0.97354  1.0000
  H   H763      1.0  0.21017  0.56337  0.56370  1.0000
  H   H764      1.0  0.19478  0.55351  0.52818  1.0000
  H   H765      1.0  0.13946  0.66319  0.62069  1.0000
  C   C446      1.0  0.44670  0.71921  0.96768  1.0000
  H   H766      1.0  0.14586  0.66827  0.71781  1.0000
  H   H767      1.0  0.12505  0.53407  0.89775  1.0000
  H   H768      1.0  0.12989  0.66514  0.75348  1.0000
  H   H769      1.0  0.21791  0.59466  0.53731  1.0000
  H   H770      1.0  0.42404  0.57161  0.51122  1.0000
  H   H771      1.0  0.25820  0.72139  0.97072  1.0000
  C   C447      1.0  0.16732  0.59917  0.51555  1.0000
  H   H772      1.0  0.09138  0.54147  0.90810  1.0000
  C   C448      1.0  0.43604  0.61911  0.51283  1.0000
  C   C449      1.0  0.39345  0.74099  0.99286  1.0000
  H   H773      1.0  0.19008  0.56846  0.55868  1.0000
  H   H774      1.0  0.46104  0.58015  0.50146  1.0000
  C   C450      1.0  0.20123  0.56597  0.54363  1.0000
  C   C451      1.0  0.22966  0.68412  0.78368  1.0000
  N   N29       1.0  0.12218  0.66638  0.66352  1.0000
  H   H775      1.0  0.20446  0.72330  0.97524  1.0000
  H   H776      1.0  0.24798  0.51554  0.77215  1.0000
  C   C452      1.0  0.25597  0.53249  0.97912  1.0000
  C   C453      1.0  0.38068  0.58009  0.97002  1.0000
  C   C454      1.0  0.13550  0.65828  0.64879  1.0000
  N   N30       1.0  0.44837  0.60934  0.50007  1.0000
  C   C455      1.0  0.12992  0.68699  0.65807  1.0000
  H   H777      1.0  0.14043  0.63270  0.64374  1.0000
  C   C456      1.0  0.30019  0.56635  0.79957  1.0000
  C   C457      1.0  0.28674  0.54636  0.80467  1.0000
  H   H778      1.0  0.10599  0.64705  0.70432  1.0000
  H   H779      1.0  0.14847  0.66296  0.66267  1.0000
  H   H780      1.0  0.16595  0.71422  0.51487  1.0000
  H   H781      1.0  0.25784  0.51981  0.71729  1.0000
  H   H782      1.0  0.25454  0.52073  0.81626  1.0000
  H   H783      1.0  0.18761  0.72885  0.52780  1.0000
  H   H784      1.0  0.39124  0.61884  0.90622  1.0000
  C   C458      1.0  0.44450  0.63521  0.53780  1.0000
  H   H785      1.0  0.26350  0.69652  0.89523  1.0000
  S   S138      1.0  0.22280  0.69929  0.94884  1.0000
  H   H786      1.0  0.19553  0.57108  0.97988  1.0000
  H   H787      1.0  0.36516  0.58549  0.80593  1.0000
  N   N31       1.0  0.27246  0.53982  0.77697  1.0000
  H   H788      1.0  0.25454  0.71404  0.90168  1.0000
  H   H789      1.0  0.11158  0.55000  0.93218  1.0000
  H   H790      1.0  0.16790  0.58056  0.92951  1.0000
  H   H791      1.0  0.27984  0.50833  0.80658  1.0000
  H   H792      1.0  0.45697  0.64585  0.52605  1.0000
  H   H793      1.0  0.28029  0.54504  0.83187  1.0000
  N   N32       1.0  0.23630  0.70806  0.83305  1.0000
  H   H794      1.0  0.46285  0.57860  0.54771  1.0000
  C   C459      1.0  0.13359  0.53174  0.91896  1.0000
  H   H795      1.0  0.23612  0.72518  0.87785  1.0000
  C   C460      1.0  0.16242  0.57992  0.51686  1.0000
  H   H796      1.0  0.26200  0.71637  0.80388  1.0000
  C   C461      1.0  0.10768  0.69980  0.98325  1.0000
  H   H797      1.0  0.37991  0.61496  0.53718  1.0000
  H   H798      1.0  0.27123  0.71639  0.86617  1.0000
  C   C462      1.0  0.48003  0.70397  0.53025  1.0000
  H   H799      1.0  0.30889  0.56828  0.77507  1.0000
  C   C463      1.0  0.38340  0.56941  0.84478  1.0000
  S   S139      1.0  0.34324  0.57205  0.97717  1.0000
  C   C464      1.0  0.12537  0.69390  0.51778  1.0000
  C   C465      1.0  0.15513  0.60508  0.99124  1.0000
  H   H800      1.0  0.16606  0.60629  0.53925  1.0000
  H   H801      1.0  0.39969  0.71626  0.98521  1.0000
  C   C466      1.0  0.24762  0.52751  0.51724  1.0000
  H   H802      1.0  0.44261  0.70444  0.96666  1.0000
  H   H803      1.0  0.09139  0.51267  0.92013  1.0000
  H   H804      1.0  0.25898  0.73390  0.82997  1.0000
  C   C467      1.0  0.16511  0.73201  0.55635  1.0000
  H   H805      1.0  0.47495  0.63103  0.50127  1.0000
  H   H806      1.0  0.13183  0.69077  0.62910  1.0000
  H   H807      1.0  0.11007  0.70627  0.54979  1.0000
  S   S140      1.0  0.30884  0.53815  0.51012  1.0000
  H   H808      1.0  0.21949  0.67847  0.76295  1.0000
  H   H809      1.0  0.37746  0.56643  0.96010  1.0000
  C   C468      1.0  0.45373  0.60078  0.53211  1.0000
  H   H810      1.0  0.12035  0.69331  0.66883  1.0000
  H   H811      1.0  0.16628  0.73536  0.94593  1.0000
  H   H812      1.0  0.08035  0.51554  0.96020  1.0000
  H   H813      1.0  0.25032  0.72442  0.75413  1.0000
  H   H814      1.0  0.47381  0.74186  0.51762  1.0000
  H   H815      1.0  0.21120  0.68534  0.82565  1.0000
  C   C469      1.0  0.21795  0.72959  0.84143  1.0000
  H   H816      1.0  0.14497  0.52901  0.90528  1.0000
  H   H817      1.0  0.38609  0.54462  0.86725  1.0000
  S   S141      1.0  0.17678  0.67980  0.50613  1.0000
  C   C470      1.0  0.39808  0.61874  0.88003  1.0000
  C   C471      1.0  0.10540  0.65926  0.64162  1.0000
  C   C472      1.0  0.16323  0.58387  0.95483  1.0000
  H   H818      1.0  0.22337  0.52953  0.54140  1.0000
  C   C473      1.0  0.38077  0.60780  0.51330  1.0000
  H   H819      1.0  0.40985  0.60020  0.85686  1.0000
  C   C474      1.0  0.09073  0.66772  0.64859  1.0000
  H   H820      1.0  0.41655  0.73651  0.96585  1.0000
  H   H821      1.0  0.23307  0.53534  0.78004  1.0000
  C   C475      1.0  0.37114  0.60376  0.99397  1.0000
  H   H822      1.0  0.39564  0.58910  0.78003  1.0000
  C   C476      1.0  0.12285  0.51495  0.94303  1.0000
  C   C477      1.0  0.44820  0.72982  0.93621  1.0000
  H   H823      1.0  0.37408  0.55421  0.89653  1.0000
  H   H824      1.0  0.36705  0.57974  0.90553  1.0000
  N   N33       1.0  0.38047  0.58698  0.85341  1.0000
  C   C478      1.0  0.39709  0.59919  0.87160  1.0000
  H   H825      1.0  0.39584  0.57220  0.82762  1.0000
  C   C479      1.0  0.37725  0.59530  0.81879  1.0000
  C   C480      1.0  0.12386  0.69610  0.98209  1.0000
  C   C481      1.0  0.24702  0.73085  0.77810  1.0000
  C   C482      1.0  0.24383  0.69637  0.85567  1.0000
  C   C483      1.0  0.25910  0.70671  0.88084  1.0000
  H   H826      1.0  0.13980  0.54436  0.93395  1.0000
  H   H827      1.0  0.20779  0.72279  0.82158  1.0000
  C   C484      1.0  0.24902  0.72827  0.97831  1.0000
  H   H828      1.0  0.40972  0.58670  0.96598  1.0000
  H   H829      1.0  0.42380  0.60956  0.52759  1.0000
  C   C485      1.0  0.40711  0.73112  0.98909  1.0000
  H   H830      1.0  0.47941  0.73531  0.55980  1.0000
  C   C486      1.0  0.20897  0.56977  0.98186  1.0000
  H   H831      1.0  0.44169  0.59282  0.54946  1.0000
  C   C487      1.0  0.23284  0.72962  0.50155  1.0000
  C   C488      1.0  0.40349  0.60921  0.98747  1.0000
  H   H832      1.0  0.11749  0.50353  0.92449  1.0000
  H   H833      1.0  0.20065  0.58652  0.50595  1.0000
  C   C489      1.0  0.11607  0.53110  0.99365  1.0000
  H   H834      1.0  0.26447  0.57137  0.51002  1.0000
  H   H835      1.0  0.47409  0.71083  0.87980  1.0000
  S   S142      1.0  0.42681  0.62273  0.99246  1.0000
  C   C490      1.0  0.23904  0.57610  0.51306  1.0000
  H   H836      1.0  0.47598  0.74256  0.87645  1.0000
  H   H837      1.0  0.26259  0.49350  0.96895  1.0000
  H   H838      1.0  0.16519  0.74270  0.99003  1.0000
  H   H839      1.0  0.23131  0.49343  0.96358  1.0000
  H   H840      1.0  0.10046  0.72072  0.49824  1.0000
  Fe  Fe73      1.0  0.09087  0.78040  0.04091  1.0000
  S   S143      1.0  0.10233  0.77212  0.08980  1.0000
  H   H841      1.0  0.28611  0.88897  0.43497  1.0000
  C   C491      1.0  0.41502  0.76762  0.02012  1.0000
  H   H842      1.0  0.30662  0.76032  0.32094  1.0000
  H   H843      1.0  0.26995  0.75079  0.00210  1.0000
  Fe  Fe74      1.0  0.07454  0.76487  0.11602  1.0000
  C   C492      1.0  0.40049  0.84179  0.46595  1.0000
  H   H844      1.0  0.41363  0.79416  0.03665  1.0000
  S   S144      1.0  0.06317  0.77530  0.06885  1.0000
  H   H845      1.0  0.34242  0.89337  0.20380  1.0000
  Fe  Fe75      1.0  0.30478  0.82970  0.04347  1.0000
  S   S145      1.0  0.28628  0.80994  0.08427  1.0000
  S   S146      1.0  0.30429  0.85849  0.03699  1.0000
  Fe  Fe76      1.0  0.32221  0.80248  0.01921  1.0000
  S   S147      1.0  0.30427  0.78012  0.05723  1.0000
  N   N34       1.0  0.27349  0.75430  0.28524  1.0000
  Fe  Fe77      1.0  0.28140  0.78927  0.04120  1.0000
  C   C493      1.0  0.26211  0.77847  0.31497  1.0000
  Fe  Fe78      1.0  0.31036  0.80245  0.09757  1.0000
  S   S148      1.0  0.31907  0.79701  0.15304  1.0000
  S   S149      1.0  0.26964  0.75329  0.40226  1.0000
  S   S150      1.0  0.32965  0.82418  0.06017  1.0000
  Fe  Fe79      1.0  0.30987  0.81642  0.35938  1.0000
  S   S151      1.0  0.32629  0.83189  0.40517  1.0000
  S   S152      1.0  0.30757  0.82792  0.30394  1.0000
  Fe  Fe80      1.0  0.29063  0.78196  0.40527  1.0000
  S   S153      1.0  0.30534  0.79419  0.45375  1.0000
  C   C494      1.0  0.39838  0.77376  0.40933  1.0000
  Fe  Fe81      1.0  0.30001  0.81970  0.43767  1.0000
  Fe  Fe82      1.0  0.06373  0.75563  0.43330  1.0000
  Fe  Fe83      1.0  0.33061  0.80539  0.41847  1.0000
  S   S154      1.0  0.35510  0.79910  0.43850  1.0000
  S   S155      1.0  0.28343  0.80647  0.39145  1.0000
  S   S156      1.0  0.31609  0.79097  0.37044  1.0000
  H   H846      1.0  0.29102  0.94415  0.46208  1.0000
  H   H847      1.0  0.38815  0.78281  0.36212  1.0000
  C   C495      1.0  0.26247  0.75443  0.25306  1.0000
  H   H848      1.0  0.17684  0.82328  0.04450  1.0000
  Fe  Fe84      1.0  0.10343  0.78124  0.45444  1.0000
  S   S157      1.0  0.11572  0.77077  0.40929  1.0000
  C   C496      1.0  0.35491  0.85256  0.49411  1.0000
  Fe  Fe85      1.0  0.09349  0.77310  0.37566  1.0000
  S   S158      1.0  0.10260  0.78696  0.32095  1.0000
  C   C497      1.0  0.18406  0.81528  0.44261  1.0000
  H   H849      1.0  0.45636  0.75327  0.02712  1.0000
  S   S159      1.0  0.08192  0.78531  0.41973  1.0000
  S   S160      1.0  0.08433  0.75253  0.47198  1.0000
  C   C498      1.0  0.28214  0.87892  0.45680  1.0000
  C   C499      1.0  0.02679  0.75896  0.35217  1.0000
  H   H850      1.0  0.40881  0.79931  0.37608  1.0000
  H   H851      1.0  0.07746  0.80837  0.31286  1.0000
  H   H852      1.0  0.28895  0.78303  0.29350  1.0000
  H   H853      1.0  0.18563  0.84256  0.42923  1.0000
  H   H854      1.0  0.33676  0.84175  0.17797  1.0000
  H   H855      1.0  0.36743  0.88251  0.15224  1.0000
  H   H856      1.0  0.38787  0.75996  0.40558  1.0000
  C   C500      1.0  0.27067  0.77115  0.22710  1.0000
  C   C501      1.0  0.28708  0.86328  0.45542  1.0000
  H   H857      1.0  0.16381  0.85192  0.04686  1.0000
  C   C502      1.0  0.11617  0.75791  0.16981  1.0000
  H   H858      1.0  0.05759  0.81396  0.32052  1.0000
  H   H859      1.0  0.15284  0.86630  0.46596  1.0000
  H   H860      1.0  0.22798  0.87107  0.47759  1.0000
  H   H861      1.0  0.30393  0.86306  0.11549  1.0000
  H   H862      1.0  0.00320  0.74823  0.04375  1.0000
  H   H863      1.0  0.10333  0.75186  0.23667  1.0000
  H   H864      1.0  0.24929  0.77151  0.30168  1.0000
  H   H865      1.0  0.20826  0.83622  0.06223  1.0000
  H   H866      1.0  0.33434  0.88998  0.07049  1.0000
  C   C503      1.0  0.06540  0.80578  0.33101  1.0000
  N   N35       1.0  0.41482  0.77197  0.42658  1.0000
  H   H867      1.0  0.13137  0.83472  0.45545  1.0000
  H   H868      1.0  0.38321  0.75025  0.46619  1.0000
  H   H869      1.0  0.43493  0.79108  0.38986  1.0000
  C   C504      1.0  0.38377  0.83171  0.45088  1.0000
  C   C505      1.0  0.33931  0.89049  0.09801  1.0000
  C   C506      1.0  0.39589  0.75284  0.48077  1.0000
  H   H870      1.0  0.37726  0.83854  0.43353  1.0000
  H   H871      1.0  0.21190  0.89087  0.45603  1.0000
  H   H872      1.0  0.26656  0.79331  0.30734  1.0000
  H   H873      1.0  0.28300  0.77089  0.21261  1.0000
  H   H874      1.0  0.26832  0.95606  0.41417  1.0000
  H   H875      1.0  0.14989  0.79546  0.01055  1.0000
  H   H876      1.0  0.03165  0.77721  0.27409  1.0000
  H   H877      1.0  0.39153  0.78079  0.42692  1.0000
  H   H878      1.0  0.34958  0.90474  0.16051  1.0000
  C   C507      1.0  0.31470  0.80479  0.19511  1.0000
  C   C508      1.0  0.32316  0.80090  0.22512  1.0000
  C   C509      1.0  0.32071  0.80743  0.25881  1.0000
  C   C510      1.0  0.30997  0.81820  0.26273  1.0000
  C   C511      1.0  0.30136  0.82195  0.23278  1.0000
  C   C512      1.0  0.30345  0.81502  0.19928  1.0000
  H   H879      1.0  0.33185  0.79295  0.22222  1.0000
  H   H880      1.0  0.32751  0.80452  0.28155  1.0000
  H   H881      1.0  0.29289  0.83013  0.23561  1.0000
  H   H882      1.0  0.29641  0.81761  0.17671  1.0000
  H   H883      1.0  0.35623  0.87103  0.19228  1.0000
  H   H884      1.0  0.21765  0.82206  0.47274  1.0000
  H   H885      1.0  0.36914  0.85330  0.15288  1.0000
  C   C513      1.0  0.23892  0.84873  0.03016  1.0000
  H   H886      1.0  0.99705  0.74303  0.47605  1.0000
  H   H887      1.0  0.32902  0.89346  0.11470  1.0000
  C   C514      1.0  0.35271  0.89635  0.18155  1.0000
  H   H888      1.0  0.33202  0.86130  0.09115  1.0000
  H   H889      1.0  0.29151  0.85365  0.15603  1.0000
  H   H890      1.0  0.30312  0.84116  0.13314  1.0000
  H   H891      1.0  0.31844  0.85853  0.18953  1.0000
  H   H892      1.0  0.32867  0.83716  0.13431  1.0000
  H   H893      1.0  0.41071  0.75189  0.35888  1.0000
  H   H894      1.0  0.32012  0.87894  0.16632  1.0000
  C   C515      1.0  0.30407  0.85511  0.14023  1.0000
  C   C516      1.0  0.07637  0.76905  0.21362  1.0000
  H   H895      1.0  0.42991  0.79617  0.00043  1.0000
  C   C517      1.0  0.07681  0.76373  0.27798  1.0000
  C   C518      1.0  0.09279  0.77905  0.27981  1.0000
  C   C519      1.0  0.10091  0.78886  0.24821  1.0000
  C   C520      1.0  0.09284  0.78378  0.21517  1.0000
  H   H896      1.0  0.37847  0.78947  0.48537  1.0000
  H   H897      1.0  0.12118  0.76782  0.19126  1.0000
  H   H898      1.0  0.11331  0.80073  0.24939  1.0000
  H   H899      1.0  0.09896  0.79175  0.19117  1.0000
  H   H900      1.0  0.36036  0.84779  0.10864  1.0000
  C   C521      1.0  0.35741  0.84485  0.13758  1.0000
  C   C522      1.0  0.02340  0.78704  0.32551  1.0000
  C   C523      1.0  0.35434  0.87849  0.16790  1.0000
  C   C524      1.0  0.37581  0.81275  0.45750  1.0000
  C   C525      1.0  0.27773  0.77138  0.30662  1.0000
  C   C526      1.0  0.03596  0.78720  0.38480  1.0000
  H   H901      1.0  0.21619  0.75263  0.00709  1.0000
  H   H902      1.0  0.21437  0.85197  0.39938  1.0000
  H   H903      1.0  0.29950  0.76603  0.25635  1.0000
  C   C527      1.0  0.27339  0.95848  0.48265  1.0000
  H   H904      1.0  0.41970  0.80909  0.43100  1.0000
  H   H905      1.0  0.24449  0.87134  0.42724  1.0000
  H   H906      1.0  0.43503  0.80658  0.46393  1.0000
  H   H907      1.0  0.01107  0.76848  0.41341  1.0000
  C   C528      1.0  0.43244  0.80649  0.43502  1.0000
  H   H908      1.0  0.42894  0.75292  0.43040  1.0000
  H   H909      1.0  0.29487  0.86139  0.43273  1.0000
  H   H910      1.0  0.29211  0.96502  0.41868  1.0000
  H   H911      1.0  0.36008  0.86276  0.02734  1.0000
  C   C529      1.0  0.43201  0.78834  0.41885  1.0000
  H   H912      1.0  0.44399  0.78557  0.42896  1.0000
  S   S161      1.0  0.47798  0.79112  0.47046  1.0000
  C   C530      1.0  0.30385  0.75016  0.29976  1.0000
  C   C531      1.0  0.14800  0.76664  0.00648  1.0000
  H   H913      1.0  0.42666  0.76303  0.01509  1.0000
  S   S162      1.0  0.08054  0.75173  0.01902  1.0000
  H   H914      1.0  0.44383  0.81813  0.42237  1.0000
  H   H915      1.0  0.42392  0.77092  0.48032  1.0000
  H   H916      1.0  0.28325  0.76939  0.33263  1.0000
  H   H917      1.0  0.18740  0.80692  0.46354  1.0000
  H   H918      1.0  0.00872  0.77912  0.33150  1.0000
  C   C532      1.0  0.34132  0.87205  0.10782  1.0000
  C   C533      1.0  0.41786  0.75486  0.41510  1.0000
  H   H919      1.0  0.43454  0.76574  0.36551  1.0000
  C   C534      1.0  0.28896  0.95099  0.48650  1.0000
  C   C535      1.0  0.24098  0.85682  0.42001  1.0000
  C   C536      1.0  0.46496  0.76763  0.46891  1.0000
  H   H920      1.0  0.12527  0.76374  0.14608  1.0000
  H   H921      1.0  0.20307  0.85005  0.02915  1.0000
  C   C537      1.0  0.42359  0.78850  0.02541  1.0000
  H   H922      1.0  0.40807  0.78200  0.47628  1.0000
  H   H923      1.0  0.05474  0.77995  0.30617  1.0000
  H   H924      1.0  0.40870  0.76108  0.04624  1.0000
  C   C538      1.0  0.42264  0.75386  0.37547  1.0000
  H   H925      1.0  0.03717  0.75101  0.30230  1.0000
  H   H926      1.0  0.31715  0.75175  0.28670  1.0000
  H   H927      1.0  0.43458  0.79119  0.04479  1.0000
  N   N36       1.0  0.21047  0.84537  0.45612  1.0000
  C   C539      1.0  0.19039  0.83582  0.45121  1.0000
  C   C540      1.0  0.15712  0.84543  0.02333  1.0000
  C   C541      1.0  0.39513  0.82402  0.99800  1.0000
  H   H928      1.0  0.21861  0.83203  0.41251  1.0000
  C   C542      1.0  0.02661  0.78767  0.28457  1.0000
  C   C543      1.0  0.20973  0.87774  0.44270  1.0000
  H   H929      1.0  0.19497  0.76617  0.46446  1.0000
  H   H930      1.0  0.36589  0.90491  0.19256  1.0000
  H   H931      1.0  0.35603  0.83029  0.14241  1.0000
  H   H932      1.0  0.35506  0.87338  0.09740  1.0000
  N   N37       1.0  0.33892  0.86615  0.14664  1.0000
  C   C544      1.0  0.33946  0.84701  0.14979  1.0000
  C   C545      1.0  0.32076  0.86517  0.16235  1.0000
  H   H933      1.0  0.36928  0.81934  0.02529  1.0000
  H   H934      1.0  0.02571  0.80147  0.33263  1.0000
  C   C546      1.0  0.28194  0.98291  0.38983  1.0000
  H   H935      1.0  0.25306  0.87494  0.05385  1.0000
  H   H936      1.0  0.04456  0.78204  0.40191  1.0000
  H   H937      1.0  0.00808  0.78778  0.39023  1.0000
  H   H938      1.0  0.47351  0.88255  0.44061  1.0000
  C   C547      1.0  0.24037  0.86838  0.03933  1.0000
  H   H939      1.0  0.35255  0.90203  0.09904  1.0000
  C   C548      1.0  0.40155  0.78438  0.37313  1.0000
  C   C549      1.0  0.21747  0.83523  0.48323  1.0000
  H   H940      1.0  0.13499  0.82486  0.05354  1.0000
  H   H941      1.0  0.26519  0.76949  0.46900  1.0000
  H   H942      1.0  0.18244  0.83705  0.47509  1.0000
  C   C550      1.0  0.20573  0.83706  0.03330  1.0000
  H   H943      1.0  0.27384  0.78432  0.24072  1.0000
  H   H944      1.0  0.38155  0.76578  0.02693  1.0000
  H   H945      1.0  0.24654  0.85697  0.39253  1.0000
  H   H946      1.0  0.07063  0.75589  0.30204  1.0000
  H   H947      1.0  0.19543  0.87257  0.43454  1.0000
  C   C551      1.0  0.27207  0.88157  0.48617  1.0000
  H   H948      1.0  0.46455  0.90063  0.44904  1.0000
  Fe  Fe86      1.0  0.09183  0.74379  0.06816  1.0000
  C   C552      1.0  0.29125  0.75322  0.27149  1.0000
  C   C553      1.0  0.38465  0.80408  0.47963  1.0000
  H   H949      1.0  0.18958  0.81312  0.41638  1.0000
  H   H950      1.0  0.23190  0.84325  0.48887  1.0000
  H   H951      1.0  0.07069  0.81080  0.35741  1.0000
  H   H952      1.0  0.24807  0.85010  0.43740  1.0000
  S   S163      1.0  0.06433  0.76359  0.17383  1.0000
  H   H953      1.0  0.22896  0.86860  0.05689  1.0000
  H   H954      1.0  0.12934  0.77877  0.03061  1.0000
  H   H955      1.0  0.40303  0.83142  0.01962  1.0000
  S   S164      1.0  0.25160  0.77436  0.03013  1.0000
  S   S165      1.0  0.26588  0.90122  0.48656  1.0000
  H   H956      1.0  0.35549  0.86606  0.48287  1.0000
  C   C554      1.0  0.22031  0.84610  0.42091  1.0000
  S   S166      1.0  0.12436  0.79917  0.49408  1.0000
  H   H957      1.0  0.26067  0.77076  0.20655  1.0000
  H   H958      1.0  0.21904  0.88106  0.41890  1.0000
  C   C555      1.0  0.28219  0.85033  0.48371  1.0000
  C   C556      1.0  0.14069  0.82999  0.02725  1.0000
  H   H959      1.0  0.16900  0.80989  0.44107  1.0000
  H   H960      1.0  0.45040  0.87701  0.45437  1.0000
  H   H961      1.0  0.18323  0.82075  0.99986  1.0000
  N   N38       1.0  0.22213  0.83746  0.01109  1.0000
  H   H962      1.0  0.29133  0.88816  0.02308  1.0000
  C   C557      1.0  0.21373  0.86439  0.46916  1.0000
  N   N39       1.0  0.03499  0.77960  0.34795  1.0000
  C   C558      1.0  0.06846  0.75898  0.24512  1.0000
  H   H963      1.0  0.03582  0.80154  0.27504  1.0000
  C   C559      1.0  0.46865  0.75745  0.44149  1.0000
  H   H964      1.0  0.06199  0.77837  0.34939  1.0000
  C   C560      1.0  0.01764  0.78316  0.40530  1.0000
  C   C561      1.0  0.05423  0.78500  0.33321  1.0000
  H   H965      1.0  0.14212  0.75395  0.02370  1.0000
  H   H966      1.0  0.01301  0.75446  0.36511  1.0000
  C   C562      1.0  0.02431  0.74803  0.31794  1.0000
  C   C563      1.0  0.19207  0.75840  0.49048  1.0000
  H   H967      1.0  0.40898  0.77935  0.35314  1.0000
  H   H968      1.0  0.24375  0.74492  0.33929  1.0000
  S   S167      1.0  0.28875  0.83091  0.48433  1.0000
  H   H969      1.0  0.24008  0.84162  0.05554  1.0000
  H   H970      1.0  0.10236  0.75702  0.16264  1.0000
  H   H971      1.0  0.33540  0.81164  0.49583  1.0000
  C   C564      1.0  0.41143  0.77026  0.46646  1.0000
  H   H972      1.0  0.22252  0.81227  0.03565  1.0000
  H   H973      1.0  0.25891  0.77720  0.34409  1.0000
  H   H974      1.0  0.01352  0.78551  0.27163  1.0000
  H   H975      1.0  0.04254  0.80240  0.38380  1.0000
  H   H976      1.0  0.02024  0.79075  0.43046  1.0000
  H   H977      1.0  0.14470  0.76266  0.46234  1.0000
  C   C565      1.0  0.25600  0.75535  0.46970  1.0000
  H   H978      1.0  0.16878  0.77141  0.45459  1.0000
  C   C566      1.0  0.18763  0.82119  0.02759  1.0000
  C   C567      1.0  0.14071  0.83703  0.47697  1.0000
  H   H979      1.0  0.03514  0.75382  0.37001  1.0000
  H   H980      1.0  0.12200  0.74523  0.24723  1.0000
  H   H981      1.0  0.20415  0.75431  0.49352  1.0000
  C   C568      1.0  0.24389  0.75373  0.00670  1.0000
  H   H982      1.0  0.25183  0.82289  0.00137  1.0000
  C   C569      1.0  0.40949  0.83302  0.48750  1.0000
  H   H983      1.0  0.25142  0.85036  0.01399  1.0000
  H   H984      1.0  0.18814  0.80772  0.03633  1.0000
  C   C570      1.0  0.14408  0.78216  0.02554  1.0000
  S   S168      1.0  0.29862  0.80958  0.99994  1.0000
  C   C571      1.0  0.15671  0.75861  0.45746  1.0000
  H   H985      1.0  0.24146  0.87709  0.01508  1.0000
  H   H986      1.0  0.15033  0.78395  0.05200  1.0000
  C   C572      1.0  0.29186  0.86295  0.00167  1.0000
  C   C573      1.0  0.46437  0.88696  0.45804  1.0000
  H   H987      1.0  0.47931  0.76415  0.42169  1.0000
  H   H988      1.0  0.26154  0.94663  0.47433  1.0000
  S   S169      1.0  0.03262  0.74745  0.44672  1.0000
  H   H989      1.0  0.15429  0.75122  0.43212  1.0000
  C   C574      1.0  0.15799  0.74614  0.48889  1.0000
  H   H990      1.0  0.40664  0.85641  0.46036  1.0000
  C   C575      1.0  0.29433  0.98990  0.46864  1.0000
  C   C576      1.0  0.28731  0.87878  0.00146  1.0000
  C   C577      1.0  0.22260  0.81836  0.00848  1.0000
  H   H991      1.0  0.30664  0.98867  0.45551  1.0000
  Fe  Fe87      1.0  0.05401  0.74598  0.05081  1.0000
  H   H992      1.0  0.33845  0.85803  0.00889  1.0000
  C   C578      1.0  0.25542  0.74440  0.44051  1.0000
  H   H993      1.0  0.24855  0.75366  0.26023  1.0000
  H   H994      1.0  0.26974  0.98669  0.38739  1.0000
  C   C579      1.0  0.45433  0.74672  0.00171  1.0000
  C   C580      1.0  0.37600  0.81722  0.00126  1.0000
  C   C581      1.0  0.15296  0.85501  0.48306  1.0000
  H   H995      1.0  0.23771  0.95575  0.47319  1.0000
  H   H996      1.0  0.20514  0.86373  0.49342  1.0000
  S   S170      1.0  0.47570  0.83715  0.49159  1.0000
  H   H997      1.0  0.16286  0.77002  0.00719  1.0000
  H   H998      1.0  0.35367  0.84351  0.47121  1.0000
  C   C582      1.0  0.35319  0.86425  0.00267  1.0000
  C   C583      1.0  0.24247  0.96666  0.45194  1.0000
  H   H999      1.0  0.24232  0.96056  0.42559  1.0000
  H   H1000     1.0  0.01376  0.75015  0.30132  1.0000
  H   H1001     1.0  0.05572  0.74754  0.24408  1.0000
  N   N40       1.0  0.27720  0.97483  0.45734  1.0000
  C   C584      1.0  0.27979  0.96879  0.42043  1.0000
  H   H1002     1.0  0.23228  0.97347  0.45172  1.0000
  S   S171      1.0  0.07463  0.74411  0.38729  1.0000
  S   S172      1.0  0.10997  0.80244  0.00025  1.0000
  C   C585      1.0  0.22541  0.74591  0.99887  1.0000
  C   C586      1.0  0.40133  0.81415  0.49469  1.0000
  C   C587      1.0  0.26116  0.98104  0.45998  1.0000
  C   C588      1.0  0.38673  0.76925  0.99882  1.0000
  C   C589      1.0  0.45112  0.75895  0.49430  1.0000
  H   H1003     1.0  0.28370  0.97672  0.36431  1.0000
  H   H1004     1.0  0.25990  0.98582  0.48722  1.0000
  C   C590      1.0  0.13137  0.82162  0.99728  1.0000
  H   H1005     1.0  0.30196  0.96158  0.49372  1.0000
  C   C591      1.0  0.19333  0.77195  0.52034  1.0000
  S   S173      1.0  0.24278  0.96833  0.55707  1.0000
  Fe  Fe88      1.0  0.23936  0.92966  0.92797  1.0000
  S   S174      1.0  0.24798  0.91786  0.87945  1.0000
  S   S175      1.0  0.25969  0.95976  0.93464  1.0000
  Fe  Fe89      1.0  0.20687  0.89150  0.94455  1.0000
  S   S176      1.0  0.21393  0.87909  0.89561  1.0000
  C   C592      1.0  0.34291  0.81501  0.52087  1.0000
  Fe  Fe90      1.0  0.24282  0.89213  0.91250  1.0000
  S   S177      1.0  0.26020  0.87450  0.90903  1.0000
  Fe  Fe91      1.0  0.21853  0.90618  0.86714  1.0000
  S   S178      1.0  0.20982  0.91260  0.81232  1.0000
  S   S179      1.0  0.20951  0.91828  0.91499  1.0000
  Fe  Fe92      1.0  0.44805  0.82330  0.92676  1.0000
  S   S180      1.0  0.44164  0.80635  0.87781  1.0000
  H   H1006     1.0  0.37365  0.83570  0.55337  1.0000
  H   H1007     1.0  0.35289  0.87252  0.89252  1.0000
  S   S181      1.0  0.22906  0.91930  0.51104  1.0000
  Fe  Fe93      1.0  0.46788  0.82675  0.85406  1.0000
  H   H1008     1.0  0.37290  0.83933  0.59900  1.0000
  Fe  Fe94      1.0  0.45953  0.79227  0.90090  1.0000
  S   S182      1.0  0.45253  0.76156  0.89822  1.0000
  S   S183      1.0  0.47334  0.84496  0.90195  1.0000
  S   S184      1.0  0.46407  0.80764  0.95136  1.0000
  Fe  Fe95      1.0  0.46503  0.81736  0.58904  1.0000
  S   S185      1.0  0.46829  0.84638  0.57369  1.0000
  S   S186      1.0  0.45862  0.80378  0.64484  1.0000
  H   H1009     1.0  0.32300  0.82933  0.89012  1.0000
  H   H1010     1.0  0.16215  0.85203  0.74517  1.0000
  C   C593      1.0  0.15253  0.82575  0.52720  1.0000
  H   H1011     1.0  0.34183  0.84304  0.59038  1.0000
  Fe  Fe96      1.0  0.45121  0.83419  0.52672  1.0000
  H   H1012     1.0  0.23850  0.97162  0.88388  1.0000
  H   H1013     1.0  0.30501  0.83284  0.91470  1.0000
  S   S187      1.0  0.44630  0.80499  0.54395  1.0000
  Fe  Fe97      1.0  0.23666  0.93684  0.55936  1.0000
  S   S188      1.0  0.25665  0.92415  0.57717  1.0000
  H   H1014     1.0  0.20000  0.85147  0.65522  1.0000
  Fe  Fe98      1.0  0.20719  0.89761  0.54419  1.0000
  S   S189      1.0  0.22583  0.88338  0.56167  1.0000
  H   H1015     1.0  0.27334  0.84564  0.92337  1.0000
  Fe  Fe99      1.0  0.23253  0.90323  0.60672  1.0000
  S   S190      1.0  0.23400  0.89116  0.66181  1.0000
  Fe  Fe100     1.0  0.24781  0.90557  0.53072  1.0000
  H   H1016     1.0  0.18479  0.85503  0.70302  1.0000
  S   S191      1.0  0.21263  0.91648  0.59106  1.0000
  H   H1017     1.0  0.37364  0.76818  0.94746  1.0000
  H   H1018     1.0  0.17576  0.75931  0.95411  1.0000
  C   C594      1.0  0.16504  0.84369  0.53287  1.0000
  C   C595      1.0  0.12059  0.75718  0.97230  1.0000
  H   H1019     1.0  0.17435  0.84603  0.55438  1.0000
  H   H1020     1.0  0.15892  0.83632  0.67218  1.0000
  C   C596      1.0  0.27239  0.87057  0.94513  1.0000
  C   C597      1.0  0.46996  0.83329  0.69045  1.0000
  C   C598      1.0  0.14019  0.82220  0.49924  1.0000
  C   C599      1.0  0.21284  0.95706  0.85986  1.0000
  N   N41       1.0  0.24397  0.97316  0.82668  1.0000
  C   C600      1.0  0.46831  0.82966  0.75575  1.0000
  C   C601      1.0  0.46114  0.81060  0.75243  1.0000
  H   H1021     1.0  0.17122  0.74623  0.56522  1.0000
  C   C602      1.0  0.46269  0.81422  0.68713  1.0000
  H   H1022     1.0  0.45765  0.80174  0.77610  1.0000
  C   C603      1.0  0.33814  0.84471  0.51969  1.0000
  H   H1023     1.0  0.36789  0.85474  0.50711  1.0000
  H   H1024     1.0  0.42534  0.76912  0.95567  1.0000
  H   H1025     1.0  0.36011  0.76900  0.98533  1.0000
  C   C604      1.0  0.22261  0.84664  0.97515  1.0000
  C   C605      1.0  0.45832  0.80296  0.71836  1.0000
  C   C606      1.0  0.37468  0.80501  0.94250  1.0000
  C   C607      1.0  0.14794  0.77990  0.94508  1.0000
  C   C608      1.0  0.39382  0.81153  0.93948  1.0000
  H   H1026     1.0  0.38642  0.84844  0.93044  1.0000
  H   H1027     1.0  0.38516  0.86688  0.90141  1.0000
  C   C609      1.0  0.25571  0.74491  0.99612  1.0000
  H   H1028     1.0  0.40058  0.80930  0.91557  1.0000
  H   H1029     1.0  0.35500  0.82927  0.92035  1.0000
  C   C610      1.0  0.20722  0.83104  0.51980  1.0000
  C   C611      1.0  0.47382  0.89542  0.57437  1.0000
  H   H1030     1.0  0.36276  0.74791  0.97650  1.0000
  C   C612      1.0  0.16871  0.86632  0.73433  1.0000
  C   C613      1.0  0.27717  0.85492  0.94519  1.0000
  C   C614      1.0  0.21816  0.90765  0.77104  1.0000
  C   C615      1.0  0.22616  0.89436  0.76849  1.0000
  C   C616      1.0  0.23136  0.88984  0.73488  1.0000
  C   C617      1.0  0.22901  0.89880  0.70355  1.0000
  C   C618      1.0  0.22160  0.91257  0.70619  1.0000
  C   C619      1.0  0.21595  0.91675  0.73973  1.0000
  H   H1031     1.0  0.22790  0.88722  0.79233  1.0000
  H   H1032     1.0  0.23707  0.87917  0.73316  1.0000
  H   H1033     1.0  0.21986  0.91968  0.68236  1.0000
  H   H1034     1.0  0.20974  0.92703  0.74143  1.0000
  H   H1035     1.0  0.47341  0.84215  0.66680  1.0000
  H   H1036     1.0  0.32700  0.78751  0.54426  1.0000
  H   H1037     1.0  0.24041  0.82294  0.95995  1.0000
  H   H1038     1.0  0.11418  0.75886  0.91552  1.0000
  H   H1039     1.0  0.41032  0.75086  0.91207  1.0000
  H   H1040     1.0  0.37166  0.85684  0.56810  1.0000
  H   H1041     1.0  0.09541  0.74602  0.94423  1.0000
  H   H1042     1.0  0.21380  0.84040  0.92118  1.0000
  H   H1043     1.0  0.45983  0.77196  0.97164  1.0000
  S   S192      1.0  0.23608  0.90407  0.96206  1.0000
  N   N42       1.0  0.35055  0.85382  0.93725  1.0000
  S   S193      1.0  0.18579  0.87246  0.98657  1.0000
  H   H1044     1.0  0.34882  0.89726  0.93885  1.0000
  S   S194      1.0  0.42827  0.82986  0.96499  1.0000
  C   C620      1.0  0.35388  0.87287  0.92204  1.0000
  H   H1045     1.0  0.14444  0.84771  0.68650  1.0000
  C   C621      1.0  0.40416  0.82112  0.96725  1.0000
  C   C622      1.0  0.45258  0.74888  0.93753  1.0000
  C   C623      1.0  0.34085  0.88250  0.93517  1.0000
  H   H1046     1.0  0.41315  0.78419  0.95210  1.0000
  H   H1047     1.0  0.17816  0.86892  0.60890  1.0000
  C   C624      1.0  0.16523  0.85857  0.51103  1.0000
  C   C625      1.0  0.37977  0.85186  0.90702  1.0000
  C   C626      1.0  0.16368  0.88163  0.66119  1.0000
  C   C627      1.0  0.16439  0.74649  0.96162  1.0000
  H   H1048     1.0  0.17117  0.91126  0.66353  1.0000
  H   H1049     1.0  0.28712  0.97133  0.84224  1.0000
  H   H1050     1.0  0.17166  0.80439  0.93385  1.0000
  H   H1051     1.0  0.30726  0.84148  0.55416  1.0000
  C   C628      1.0  0.27737  0.88247  0.97351  1.0000
  C   C629      1.0  0.30655  0.82910  0.57009  1.0000
  H   H1052     1.0  0.23692  0.80204  0.98459  1.0000
  H   H1053     1.0  0.36803  0.88213  0.92699  1.0000
  C   C630      1.0  0.15471  0.84812  0.66528  1.0000
  Fe  Fe101     1.0  0.47199  0.80876  0.51215  1.0000
  H   H1054     1.0  0.26729  0.98770  0.85767  1.0000
  H   H1055     1.0  0.23913  0.98485  0.94329  1.0000
  H   H1056     1.0  0.40479  0.77016  0.89993  1.0000
  H   H1057     1.0  0.32630  0.84191  0.50218  1.0000
  H   H1058     1.0  0.15079  0.87894  0.67693  1.0000
  C   C631      1.0  0.16487  0.85271  0.98947  1.0000
  H   H1059     1.0  0.25583  0.74558  0.77550  1.0000
  H   H1060     1.0  0.28236  0.97746  0.56560  1.0000
  H   H1061     1.0  0.38817  0.75149  0.92361  1.0000
  H   H1062     1.0  0.35352  0.84388  0.88477  1.0000
  H   H1063     1.0  0.16135  0.84934  0.93320  1.0000
  H   H1064     1.0  0.29628  0.98860  0.49765  1.0000
  H   H1065     1.0  0.23610  0.85023  0.96142  1.0000
  H   H1066     1.0  0.38386  0.84531  0.88405  1.0000
  H   H1067     1.0  0.24430  0.95583  0.74148  1.0000
  H   H1068     1.0  0.46985  0.87258  0.50320  1.0000
  H   H1069     1.0  0.11646  0.76894  0.97930  1.0000
  C   C632      1.0  0.48327  0.91952  0.50531  1.0000
  H   H1070     1.0  0.25934  0.87043  0.53707  1.0000
  H   H1071     1.0  0.45267  0.78822  0.71619  1.0000
  C   C633      1.0  0.28662  0.85100  0.97350  1.0000
  H   H1072     1.0  0.24107  0.94694  0.80422  1.0000
  H   H1073     1.0  0.30893  0.81222  0.52707  1.0000
  C   C634      1.0  0.41131  0.76940  0.95572  1.0000
  H   H1074     1.0  0.15316  0.84218  0.60795  1.0000
  C   C635      1.0  0.16867  0.78965  0.94073  1.0000
  H   H1075     1.0  0.47826  0.85567  0.72672  1.0000
  C   C636      1.0  0.26409  0.97969  0.83299  1.0000
  H   H1076     1.0  0.24539  0.75651  0.52264  1.0000
  C   C637      1.0  0.17694  0.90069  0.67111  1.0000
  C   C638      1.0  0.20807  0.83644  0.94875  1.0000
  H   H1077     1.0  0.32345  0.84776  0.96136  1.0000
  C   C639      1.0  0.19131  0.85170  0.63260  1.0000
  C   C640      1.0  0.36566  0.80769  0.97346  1.0000
  S   S195      1.0  0.18004  0.88183  0.51773  1.0000
  H   H1078     1.0  0.22560  0.98571  0.80531  1.0000
  C   C641      1.0  0.23923  0.98973  0.81707  1.0000
  C   C642      1.0  0.23896  0.81680  0.98724  1.0000
  H   H1079     1.0  0.15805  0.87225  0.73067  1.0000
  N   N43       1.0  0.33643  0.82778  0.54210  1.0000
  H   H1080     1.0  0.20773  0.96616  0.84407  1.0000
  H   H1081     1.0  0.44837  0.76667  0.51579  1.0000
  H   H1082     1.0  0.39283  0.75460  0.50918  1.0000
  H   H1083     1.0  0.20013  0.85396  0.60818  1.0000
  C   C643      1.0  0.18399  0.86754  0.63505  1.0000
  C   C644      1.0  0.13921  0.82878  0.96340  1.0000
  H   H1084     1.0  0.11497  0.74676  0.99432  1.0000
  C   C645      1.0  0.27216  0.85301  0.51309  1.0000
  H   H1085     1.0  0.47853  0.89397  0.60152  1.0000
  C   C646      1.0  0.31651  0.81777  0.55145  1.0000
  H   H1086     1.0  0.13224  0.82262  0.93988  1.0000
  H   H1087     1.0  0.19868  0.76773  0.54478  1.0000
  H   H1088     1.0  0.47012  0.90782  0.57363  1.0000
  C   C647      1.0  0.31974  0.83914  0.90742  1.0000
  C   C648      1.0  0.26700  0.86849  0.51424  1.0000
  H   H1089     1.0  0.27383  0.89464  0.97360  1.0000
  C   C649      1.0  0.34134  0.79675  0.53978  1.0000
  H   H1090     1.0  0.37434  0.86188  0.96987  1.0000
  H   H1091     1.0  0.46152  0.88306  0.57081  1.0000
  C   C650      1.0  0.35940  0.85456  0.97259  1.0000
  H   H1092     1.0  0.18040  0.83813  0.63034  1.0000
  H   H1093     1.0  0.18040  0.77383  0.52687  1.0000
  C   C651      1.0  0.26195  0.98952  0.55931  1.0000
  H   H1094     1.0  0.27204  0.98937  0.81128  1.0000
  H   H1095     1.0  0.31445  0.80566  0.56953  1.0000
  S   S196      1.0  0.47185  0.84015  0.79802  1.0000
  H   H1096     1.0  0.33336  0.87717  0.96068  1.0000
  H   H1097     1.0  0.34260  0.82108  0.59570  1.0000
  C   C652      1.0  0.18009  0.86680  0.69999  1.0000
  C   C653      1.0  0.27982  0.99014  0.56263  1.0000
  C   C654      1.0  0.47270  0.84092  0.72452  1.0000
  H   H1098     1.0  0.36681  0.79770  0.92076  1.0000
  H   H1099     1.0  0.14194  0.79030  0.95273  1.0000
  H   H1100     1.0  0.19589  0.84035  0.95185  1.0000
  C   C655      1.0  0.14452  0.84402  0.63013  1.0000
  C   C656      1.0  0.14559  0.74738  0.95395  1.0000
  H   H1101     1.0  0.17601  0.78965  0.96534  1.0000
  N   N44       1.0  0.17060  0.86601  0.66544  1.0000
  H   H1102     1.0  0.35727  0.82157  0.51181  1.0000
  C   C657      1.0  0.27243  0.96470  0.83716  1.0000
  H   H1103     1.0  0.17431  0.78364  0.91901  1.0000
  H   H1104     1.0  0.26841  0.84309  0.53517  1.0000
  H   H1105     1.0  0.32903  0.82841  0.95296  1.0000
  H   H1106     1.0  0.20823  0.84376  0.53354  1.0000
  H   H1107     1.0  0.29189  0.82050  0.57334  1.0000
  H   H1108     1.0  0.34774  0.78935  0.52217  1.0000
  H   H1109     1.0  0.20748  0.95704  0.88748  1.0000
  C   C658      1.0  0.23380  0.96338  0.86003  1.0000
  H   H1110     1.0  0.17903  0.90157  0.70020  1.0000
  H   H1111     1.0  0.22115  0.86020  0.97817  1.0000
  H   H1112     1.0  0.17775  0.87473  0.75468  1.0000
  H   H1113     1.0  0.26971  0.96174  0.50977  1.0000
  C   C659      1.0  0.45618  0.75734  0.97026  1.0000
  H   H1114     1.0  0.20403  0.82140  0.95044  1.0000
  H   H1115     1.0  0.19023  0.90435  0.65680  1.0000
  H   H1116     1.0  0.35730  0.84041  0.98270  1.0000
  H   H1117     1.0  0.13272  0.83092  0.63358  1.0000
  H   H1118     1.0  0.20686  0.94299  0.84974  1.0000
  H   H1119     1.0  0.16003  0.88305  0.63311  1.0000
  H   H1120     1.0  0.19291  0.87890  0.70027  1.0000
  H   H1121     1.0  0.46897  0.91770  0.51303  1.0000
  H   H1122     1.0  0.19612  0.88031  0.63677  1.0000
  C   C660      1.0  0.37004  0.76296  0.97530  1.0000
  C   C661      1.0  0.23884  0.95986  0.79692  1.0000
  H   H1123     1.0  0.34863  0.79889  0.56507  1.0000
  H   H1124     1.0  0.39213  0.78448  0.99634  1.0000
  C   C662      1.0  0.36723  0.84179  0.57342  1.0000
  H   H1125     1.0  0.14312  0.77649  0.91768  1.0000
  H   H1126     1.0  0.13910  0.85481  0.62246  1.0000
  H   H1127     1.0  0.31156  0.83300  0.59710  1.0000
  H   H1128     1.0  0.22400  0.95537  0.79236  1.0000
  H   H1129     1.0  0.28989  0.83876  0.97326  1.0000
  H   H1130     1.0  0.33784  0.85607  0.53679  1.0000
  C   C663      1.0  0.24867  0.96710  0.76066  1.0000
  H   H1131     1.0  0.32185  0.85207  0.89215  1.0000
  C   C664      1.0  0.33065  0.84224  0.94172  1.0000
  C   C665      1.0  0.35887  0.84399  0.91191  1.0000
  H   H1132     1.0  0.23685  0.95079  0.86584  1.0000
  C   C666      1.0  0.26611  0.98446  0.93571  1.0000
  C   C667      1.0  0.15580  0.84404  0.95949  1.0000
  H   H1133     1.0  0.27135  0.95657  0.81297  1.0000
  H   H1134     1.0  0.26638  0.95545  0.86041  1.0000
  H   H1135     1.0  0.33092  0.88228  0.91455  1.0000
  N   N45       1.0  0.14103  0.76301  0.96933  1.0000
  C   C668      1.0  0.34632  0.83294  0.57629  1.0000
  C   C669      1.0  0.40284  0.75963  0.92161  1.0000
  H   H1136     1.0  0.29471  0.98947  0.92858  1.0000
  H   H1137     1.0  0.26362  0.97143  0.76213  1.0000
  S   S197      1.0  0.34151  0.79897  0.97582  1.0000
  H   H1138     1.0  0.28512  0.94030  0.50830  1.0000
  S   S198      1.0  0.43075  0.84613  0.50515  1.0000
  H   H1139     1.0  0.24498  0.97852  0.74954  1.0000
  H   H1140     1.0  0.14422  0.74716  0.92452  1.0000
  H   H1141     1.0  0.15573  0.75275  0.51339  1.0000
  C   C670      1.0  0.24474  0.74798  0.50005  1.0000
  C   C671      1.0  0.11013  0.74909  0.93871  1.0000
  H   H1142     1.0  0.47957  0.76654  0.55918  1.0000
  H   H1143     1.0  0.21360  0.82351  0.53715  1.0000
  H   H1144     1.0  0.19274  0.82222  0.51795  1.0000
  H   H1145     1.0  0.40788  0.80735  0.51203  1.0000
  H   H1146     1.0  0.15234  0.81449  0.54470  1.0000
  H   H1147     1.0  0.45684  0.88636  0.51313  1.0000
  N   N46       1.0  0.40150  0.76169  0.99088  1.0000
  H   H1148     1.0  0.20279  0.78580  0.51131  1.0000
  C   C672      1.0  0.46903  0.88634  0.49760  1.0000
  H   H1149     1.0  0.21033  0.80880  0.99630  1.0000
  H   H1150     1.0  0.35727  0.87918  0.99674  1.0000
  Fe  Fe102     1.0  0.72609  0.11982  0.37302  1.0000
  S   S199      1.0  0.74721  0.10783  0.38572  1.0000
  S   S200      1.0  0.71744  0.12391  0.31692  1.0000
  Fe  Fe103     1.0  0.71657  0.12170  0.45199  1.0000
  S   S201      1.0  0.73687  0.10913  0.46902  1.0000
  H   H1151     1.0  0.82478  0.11828  0.15731  1.0000
  Fe  Fe104     1.0  0.75593  0.12909  0.42873  1.0000
  S   S202      1.0  0.78580  0.14864  0.43498  1.0000
  Fe  Fe105     1.0  0.72582  0.08919  0.42488  1.0000
  S   S203      1.0  0.71877  0.05763  0.42642  1.0000
  S   S204      1.0  0.73583  0.14215  0.41312  1.0000
  S   S205      1.0  0.70453  0.10068  0.41074  1.0000
  C   C673      1.0  0.50811  0.16736  0.22785  1.0000
  Fe  Fe106     1.0  0.50223  0.19507  0.42302  1.0000
  S   S206      1.0  0.50125  0.22127  0.39855  1.0000
  S   S207      1.0  0.52811  0.18908  0.43292  1.0000
  H   H1152     1.0  0.49705  0.16958  0.12216  1.0000
  H   H1153     1.0  0.78362  0.12356  0.15016  1.0000
  H   H1154     1.0  0.48654  0.13702  0.13627  1.0000
  H   H1155     1.0  0.65879  0.23493  0.07736  1.0000
  N   N47       1.0  0.70964  0.21217  0.49317  1.0000
  H   H1156     1.0  0.66896  0.21316  0.45879  1.0000
  Fe  Fe107     1.0  0.73498  0.10594  0.11471  1.0000
  S   S208      1.0  0.74598  0.09522  0.06730  1.0000
  S   S209      1.0  0.74644  0.10381  0.16916  1.0000
  Fe  Fe108     1.0  0.71028  0.11825  0.06826  1.0000
  S   S210      1.0  0.69109  0.13396  0.06919  1.0000
  Fe  Fe109     1.0  0.71654  0.08255  0.05212  1.0000
  S   S211      1.0  0.70232  0.05403  0.02747  1.0000
  Fe  Fe110     1.0  0.74763  0.12166  0.03837  1.0000
  C   C674      1.0  0.69086  0.21313  0.49250  1.0000
  S   S212      1.0  0.70573  0.09222  0.10075  1.0000
  S   S213      1.0  0.73862  0.13286  0.08671  1.0000
  H   H1157     1.0  0.51738  0.16979  0.10235  1.0000
  H   H1158     1.0  0.50016  0.22881  0.22813  1.0000
  H   H1159     1.0  0.82450  0.15430  0.12564  1.0000
  H   H1160     1.0  0.73697  0.07269  0.29359  1.0000
  H   H1161     1.0  0.83113  0.13739  0.10671  1.0000
  H   H1162     1.0  0.50784  0.18131  0.23198  1.0000
  H   H1163     1.0  0.65319  0.08565  0.46585  1.0000
  Fe  Fe111     1.0  0.50562  0.19170  0.03717  1.0000
  C   C675      1.0  0.63601  0.06611  0.01049  1.0000
  S   S214      1.0  0.50555  0.21003  0.08249  1.0000
  H   H1164     1.0  0.65254  0.02020  0.43337  1.0000
  C   C676      1.0  0.68948  0.03022  0.03917  1.0000
  C   C677      1.0  0.68138  0.13954  0.03081  1.0000
  C   C678      1.0  0.67293  0.15256  0.03317  1.0000
  C   C679      1.0  0.68487  0.02361  0.07444  1.0000
  H   H1165     1.0  0.68938  0.03297  0.09595  1.0000
  H   H1166     1.0  0.77371  0.12712  0.11073  1.0000
  H   H1167     1.0  0.77590  0.15009  0.15642  1.0000
  H   H1168     1.0  0.65590  0.07076  0.09368  1.0000
  H   H1169     1.0  0.78364  0.17056  0.04708  1.0000
  H   H1170     1.0  0.80971  0.20031  0.04116  1.0000
  H   H1171     1.0  0.67258  0.15902  0.05820  1.0000
  H   H1172     1.0  0.73528  0.07540  0.34099  1.0000
  H   H1173     1.0  0.77785  0.20729  0.43643  1.0000
  H   H1174     1.0  0.80759  0.22219  0.40029  1.0000
  H   H1175     1.0  0.73621  0.19670  0.46627  1.0000
  H   H1176     1.0  0.67999  0.19837  0.44361  1.0000
  C   C680      1.0  0.66490  0.15730  0.00335  1.0000
  H   H1177     1.0  0.62738  0.06367  0.03535  1.0000
  C   C681      1.0  0.49369  0.13522  0.43049  1.0000
  H   H1178     1.0  0.67039  0.03770  0.32176  1.0000
  H   H1179     1.0  0.66281  0.06007  0.47791  1.0000
  H   H1180     1.0  0.63941  0.24051  0.46176  1.0000
  H   H1181     1.0  0.62185  0.22967  0.43218  1.0000
  C   C682      1.0  0.69900  0.03686  0.42697  1.0000
  C   C683      1.0  0.68122  0.03678  0.43000  1.0000
  C   C684      1.0  0.80409  0.14374  0.07085  1.0000
  C   C685      1.0  0.70130  0.01984  0.42389  1.0000
  H   H1182     1.0  0.67902  0.04963  0.43125  1.0000
  H   H1183     1.0  0.71548  0.04423  0.35184  1.0000
  C   C686      1.0  0.66615  0.02000  0.43074  1.0000
  C   C687      1.0  0.72609  0.11866  0.27614  1.0000
  C   C688      1.0  0.74112  0.11313  0.27451  1.0000
  C   C689      1.0  0.74729  0.10880  0.24153  1.0000
  C   C690      1.0  0.73851  0.10992  0.20987  1.0000
  C   C691      1.0  0.72354  0.11552  0.21151  1.0000
  C   C692      1.0  0.71740  0.11987  0.24445  1.0000
  H   H1184     1.0  0.74800  0.11222  0.29862  1.0000
  H   H1185     1.0  0.75889  0.10450  0.24059  1.0000
  H   H1186     1.0  0.71665  0.11646  0.18744  1.0000
  H   H1187     1.0  0.70580  0.12417  0.24539  1.0000
  C   C693      1.0  0.79865  0.16478  0.46661  1.0000
  H   H1188     1.0  0.78943  0.19236  0.42534  1.0000
  C   C694      1.0  0.72292  0.22574  0.46730  1.0000
  H   H1189     1.0  0.52152  0.16689  0.23473  1.0000
  H   H1190     1.0  0.81140  0.11071  0.08292  1.0000
  C   C695      1.0  0.68621  0.00307  0.42414  1.0000
  C   C696      1.0  0.81994  0.13914  0.12299  1.0000
  C   C697      1.0  0.66384  0.08747  0.48571  1.0000
  H   H1191     1.0  0.74608  0.06067  0.32409  1.0000
  C   C698      1.0  0.78918  0.09666  0.11990  1.0000
  C   C699      1.0  0.68055  0.14413  0.46311  1.0000
  C   C700      1.0  0.66797  0.15314  0.46168  1.0000
  H   H1192     1.0  0.68560  0.14017  0.43881  1.0000
  H   H1193     1.0  0.66340  0.15611  0.43615  1.0000
  H   H1194     1.0  0.71967  0.22192  0.43922  1.0000
  C   C701      1.0  0.50806  0.16394  0.12551  1.0000
  H   H1195     1.0  0.49781  0.15806  0.24710  1.0000
  C   C702      1.0  0.81639  0.17682  0.45679  1.0000
  H   H1196     1.0  0.72292  0.17869  0.05313  1.0000
  H   H1197     1.0  0.77473  0.09501  0.12483  1.0000
  H   H1198     1.0  0.53485  0.19841  0.10769  1.0000
  H   H1199     1.0  0.62421  0.08705  0.00113  1.0000
  C   C703      1.0  0.55925  0.18962  0.46468  1.0000
  H   H1200     1.0  0.78956  0.10930  0.06910  1.0000
  H   H1201     1.0  0.68165  0.07630  0.28804  1.0000
  C   C704      1.0  0.67442  0.00481  0.08204  1.0000
  H   H1202     1.0  0.83179  0.14694  0.05076  1.0000
  C   C705      1.0  0.64035  0.02828  0.01954  1.0000
  H   H1203     1.0  0.50918  0.15515  0.46629  1.0000
  C   C706      1.0  0.66845  0.00294  0.42797  1.0000
  H   H1204     1.0  0.50880  0.13583  0.12742  1.0000
  C   C707      1.0  0.65832  0.08243  0.07445  1.0000
  H   H1205     1.0  0.53990  0.21647  0.13822  1.0000
  C   C708      1.0  0.66138  0.15847  0.49300  1.0000
  H   H1206     1.0  0.68324  0.03962  0.36030  1.0000
  H   H1207     1.0  0.67101  0.00011  0.10943  1.0000
  C   C709      1.0  0.78638  0.13258  0.12593  1.0000
  C   C710      1.0  0.73461  0.06549  0.31988  1.0000
  C   C711      1.0  0.71658  0.04892  0.32333  1.0000
  H   H1208     1.0  0.49616  0.14060  0.09205  1.0000
  H   H1209     1.0  0.70347  0.06654  0.22353  1.0000
  H   H1210     1.0  0.63820  0.01651  0.03854  1.0000
  H   H1211     1.0  0.66828  0.09464  0.08657  1.0000
  H   H1212     1.0  0.50311  0.14334  0.40866  1.0000
  H   H1213     1.0  0.67044  0.06582  0.33023  1.0000
  H   H1214     1.0  0.70349  0.19064  0.45436  1.0000
  C   C712      1.0  0.50285  0.16112  0.18969  1.0000
  C   C713      1.0  0.49951  0.14308  0.12048  1.0000
  S   S215      1.0  0.71919  0.10809  0.01875  1.0000
  H   H1215     1.0  0.84458  0.23644  0.41081  1.0000
  H   H1216     1.0  0.51112  0.19460  0.15924  1.0000
  N   N48       1.0  0.51711  0.16966  0.16042  1.0000
  H   H1217     1.0  0.55133  0.20057  0.14185  1.0000
  H   H1218     1.0  0.54535  0.17352  0.11105  1.0000
  C   C714      1.0  0.68317  0.07537  0.31719  1.0000
  H   H1219     1.0  0.70103  0.07057  0.35568  1.0000
  C   C715      1.0  0.54475  0.19611  0.46589  1.0000
  H   H1220     1.0  0.72266  0.06262  0.24206  1.0000
  N   N49       1.0  0.48414  0.13897  0.49542  1.0000
  H   H1221     1.0  0.49814  0.12372  0.43799  1.0000
  C   C716      1.0  0.73566  0.17670  0.04464  1.0000
  H   H1222     1.0  0.81796  0.15248  0.01923  1.0000
  H   H1223     1.0  0.71390  0.07933  0.25961  1.0000
  C   C717      1.0  0.72509  0.18812  0.48472  1.0000
  H   H1224     1.0  0.68184  0.01327  0.29932  1.0000
  N   N50       1.0  0.69951  0.05206  0.31290  1.0000
  C   C718      1.0  0.82073  0.13045  0.15988  1.0000
  N   N51       1.0  0.65393  0.06393  0.01707  1.0000
  H   H1225     1.0  0.71489  0.01957  0.42146  1.0000
  H   H1226     1.0  0.80014  0.15808  0.15433  1.0000
  H   H1227     1.0  0.55933  0.16732  0.14103  1.0000
  H   H1228     1.0  0.49878  0.14591  0.19070  1.0000
  H   H1229     1.0  0.73893  0.16891  0.06676  1.0000
  H   H1230     1.0  0.69394  0.01475  0.34033  1.0000
  H   H1231     1.0  0.54135  0.14971  0.12180  1.0000
  Fe  Fe112     1.0  0.49229  0.22368  0.04454  1.0000
  C   C719      1.0  0.69693  0.05036  0.27333  1.0000
  H   H1232     1.0  0.52774  0.14880  0.17635  1.0000
  H   H1233     1.0  0.80834  0.15848  0.07741  1.0000
  H   H1234     1.0  0.67910  0.07673  0.04367  1.0000
  H   H1235     1.0  0.78753  0.16100  0.11619  1.0000
  H   H1236     1.0  0.62680  0.02735  0.01047  1.0000
  H   H1237     1.0  0.62912  0.22717  0.04844  1.0000
  C   C720      1.0  0.73304  0.16554  0.01048  1.0000
  H   H1238     1.0  0.48979  0.15891  0.45178  1.0000
  C   C721      1.0  0.78789  0.15169  0.13864  1.0000
  H   H1239     1.0  0.60645  0.23220  0.48647  1.0000
  H   H1240     1.0  0.81910  0.21528  0.43466  1.0000
  C   C722      1.0  0.79151  0.17440  0.02230  1.0000
  C   C723      1.0  0.68248  0.21187  0.45558  1.0000
  H   H1241     1.0  0.67095  0.09262  0.02367  1.0000
  C   C724      1.0  0.52301  0.19024  0.16249  1.0000
  H   H1242     1.0  0.71184  0.08192  0.31598  1.0000
  H   H1243     1.0  0.66294  0.04539  0.04864  1.0000
  H   H1244     1.0  0.68288  0.04901  0.26629  1.0000
  C   C725      1.0  0.54508  0.16363  0.13274  1.0000
  H   H1245     1.0  0.78271  0.23514  0.45268  1.0000
  C   C726      1.0  0.61122  0.24009  0.02868  1.0000
  H   H1246     1.0  0.71845  0.03771  0.30779  1.0000
  H   H1247     1.0  0.64156  0.04587  0.06298  1.0000
  H   H1248     1.0  0.69934  0.08703  0.49555  1.0000
  H   H1249     1.0  0.82191  0.17603  0.43050  1.0000
  C   C727      1.0  0.79860  0.11238  0.09234  1.0000
  C   C728      1.0  0.69977  0.07026  0.32619  1.0000
  H   H1250     1.0  0.83100  0.14073  0.17574  1.0000
  H   H1251     1.0  0.64575  0.08549  0.07131  1.0000
  C   C729      1.0  0.67273  0.99883  0.01941  1.0000
  C   C730      1.0  0.68179  0.13130  0.99830  1.0000
  H   H1252     1.0  0.66990  0.00792  0.34148  1.0000
  H   H1253     1.0  0.69279  0.06399  0.48326  1.0000
  C   C731      1.0  0.53811  0.20177  0.13575  1.0000
  C   C732      1.0  0.68250  0.01729  0.32746  1.0000
  H   H1254     1.0  0.74701  0.19010  0.04167  1.0000
  C   C733      1.0  0.53286  0.16329  0.16591  1.0000
  H   H1255     1.0  0.63086  0.23090  0.00199  1.0000
  C   C734      1.0  0.81772  0.14273  0.04144  1.0000
  H   H1256     1.0  0.67709  0.09461  0.47163  1.0000
  H   H1257     1.0  0.68524  0.08919  0.32748  1.0000
  C   C735      1.0  0.82714  0.18980  0.48061  1.0000
  H   H1258     1.0  0.56011  0.18072  0.44360  1.0000
  C   C736      1.0  0.68348  0.03729  0.33135  1.0000
  H   H1259     1.0  0.52839  0.19495  0.18899  1.0000
  H   H1260     1.0  0.69079  0.22318  0.43705  1.0000
  N   N52       1.0  0.80231  0.13178  0.10391  1.0000
  H   H1261     1.0  0.54176  0.17145  0.18673  1.0000
  H   H1262     1.0  0.79068  0.14022  0.05833  1.0000
  H   H1263     1.0  0.49017  0.16367  0.18428  1.0000
  C   C737      1.0  0.71020  0.06555  0.24873  1.0000
  C   C738      1.0  0.79036  0.20443  0.44140  1.0000
  H   H1264     1.0  0.69806  0.03733  0.26434  1.0000
  S   S216      1.0  0.52894  0.18083  0.03055  1.0000
  C   C739      1.0  0.49459  0.14796  0.46168  1.0000
  C   C740      1.0  0.66633  0.07925  0.03843  1.0000
  C   C741      1.0  0.80789  0.22043  0.42976  1.0000
  H   H1265     1.0  0.80801  0.12666  0.17621  1.0000
  C   C742      1.0  0.80633  0.19135  0.01881  1.0000
  S   S217      1.0  0.77003  0.13967  0.99804  1.0000
  H   H1266     1.0  0.84077  0.19870  0.47253  1.0000
  H   H1267     1.0  0.79606  0.09837  0.14550  1.0000
  H   H1268     1.0  0.79071  0.20005  0.46949  1.0000
  H   H1269     1.0  0.72049  0.15317  0.01497  1.0000
  H   H1270     1.0  0.81362  0.12895  0.02987  1.0000
  C   C743      1.0  0.65009  0.04630  0.03872  1.0000
  C   C744      1.0  0.68321  0.01761  0.01182  1.0000
  C   C745      1.0  0.49073  0.21481  0.22719  1.0000
  S   S218      1.0  0.64608  0.17027  0.48975  1.0000
  C   C746      1.0  0.81530  0.23728  0.48618  1.0000
  C   C747      1.0  0.66536  0.23572  0.05076  1.0000
  H   H1271     1.0  0.48624  0.11192  0.49280  1.0000
  C   C748      1.0  0.54383  0.20763  0.49324  1.0000
  C   C749      1.0  0.56244  0.18157  0.00599  1.0000
  H   H1272     1.0  0.72169  0.17367  0.47665  1.0000
  H   H1273     1.0  0.65996  0.22190  0.03924  1.0000
  H   H1274     1.0  0.74439  0.16024  0.00907  1.0000
  N   N53       1.0  0.81138  0.23853  0.44726  1.0000
  H   H1275     1.0  0.78911  0.08352  0.10900  1.0000
  H   H1276     1.0  0.49077  0.21494  0.16958  1.0000
  C   C750      1.0  0.70787  0.19310  0.48226  1.0000
  C   C751      1.0  0.57267  0.19449  0.49052  1.0000
  C   C752      1.0  0.62827  0.24244  0.44697  1.0000
  H   H1277     1.0  0.58370  0.18933  0.48927  1.0000
  H   H1278     1.0  0.68006  0.23917  0.05529  1.0000
  H   H1279     1.0  0.60027  0.22634  0.02861  1.0000
  H   H1280     1.0  0.73674  0.22526  0.46998  1.0000
  H   H1281     1.0  0.55889  0.16851  0.02029  1.0000
  S   S219      1.0  0.49093  0.21545  0.30020  1.0000
  H   H1282     1.0  0.65833  0.16726  0.00558  1.0000
  H   H1283     1.0  0.72126  0.19424  0.00265  1.0000
  C   C753      1.0  0.62977  0.23763  0.02729  1.0000
  C   C754      1.0  0.48543  0.20698  0.19394  1.0000
  H   H1284     1.0  0.53281  0.21278  0.49447  1.0000
  H   H1285     1.0  0.64794  0.09656  0.00128  1.0000
  H   H1286     1.0  0.82404  0.22895  0.48999  1.0000
  S   S220      1.0  0.48608  0.17757  0.37969  1.0000
  C   C755      1.0  0.55006  0.19085  0.00631  1.0000
  C   C756      1.0  0.68643  0.14017  0.49599  1.0000
  S   S221      1.0  0.49421  0.20672  0.99811  1.0000
  Fe  Fe113     1.0  0.63516  0.19364  0.61366  1.0000
  S   S222      1.0  0.61553  0.17813  0.57242  1.0000
  S   S223      1.0  0.63264  0.18083  0.66974  1.0000
  Fe  Fe114     1.0  0.65496  0.22514  0.56052  1.0000
  H   H1287     1.0  0.59390  0.21399  0.86568  1.0000
  H   H1288     1.0  0.66055  0.23567  0.74106  1.0000
  Fe  Fe115     1.0  0.61376  0.20541  0.55669  1.0000
  Fe  Fe116     1.0  0.85849  0.23348  0.54887  1.0000
  Fe  Fe117     1.0  0.64018  0.18629  0.53507  1.0000
  C   C757      1.0  0.75055  0.19058  0.96870  1.0000
  S   S224      1.0  0.63184  0.22037  0.60030  1.0000
  S   S225      1.0  0.65987  0.19953  0.57720  1.0000
  H   H1289     1.0  0.72433  0.20635  0.94133  1.0000
  H   H1290     1.0  0.58413  0.16779  0.79880  1.0000
  H   H1291     1.0  0.57224  0.21132  0.79608  1.0000
  C   C758      1.0  0.57175  0.21512  0.96884  1.0000
  C   C759      1.0  0.79882  0.22944  0.51273  1.0000
  H   H1292     1.0  0.80603  0.22824  0.64517  1.0000
  C   C760      1.0  0.56448  0.18884  0.83404  1.0000
  H   H1293     1.0  0.59312  0.23103  0.83465  1.0000
  Fe  Fe118     1.0  0.65537  0.21103  0.87049  1.0000
  S   S226      1.0  0.63101  0.18773  0.89256  1.0000
  S   S227      1.0  0.65940  0.22283  0.81346  1.0000
  Fe  Fe119     1.0  0.67123  0.22052  0.94514  1.0000
  S   S228      1.0  0.64742  0.19839  0.97246  1.0000
  C   C761      1.0  0.71296  0.19353  0.94938  1.0000
  Fe  Fe120     1.0  0.65093  0.18115  0.92771  1.0000
  S   S229      1.0  0.65356  0.15323  0.93404  1.0000
  Fe  Fe121     1.0  0.62964  0.20703  0.93532  1.0000
  H   H1294     1.0  0.75210  0.20271  0.98508  1.0000
  S   S230      1.0  0.67537  0.20294  0.90192  1.0000
  S   S231      1.0  0.65348  0.23074  0.91190  1.0000
  C   C762      1.0  0.79187  0.16600  0.50091  1.0000
  H   H1295     1.0  0.67912  0.07722  0.93573  1.0000
  H   H1296     1.0  0.78571  0.22174  0.50100  1.0000
  H   H1297     1.0  0.55023  0.18396  0.82529  1.0000
  H   H1298     1.0  0.76155  0.18560  0.97687  1.0000
  H   H1299     1.0  0.72052  0.23090  0.57797  1.0000
  H   H1300     1.0  0.62743  0.24139  0.82499  1.0000
  C   C763      1.0  0.81698  0.19682  0.98689  1.0000
  H   H1301     1.0  0.73141  0.21752  0.53037  1.0000
  H   H1302     1.0  0.69037  0.22591  0.50381  1.0000
  H   H1303     1.0  0.66787  0.09015  0.95849  1.0000
  C   C764      1.0  0.81229  0.18498  0.95831  1.0000
  C   C765      1.0  0.79773  0.16784  0.96206  1.0000
  H   H1304     1.0  0.82026  0.18878  0.93360  1.0000
  H   H1305     1.0  0.79474  0.15868  0.93999  1.0000
  S   S232      1.0  0.60536  0.21615  0.94486  1.0000
  C   C766      1.0  0.60400  0.23357  0.76233  1.0000
  H   H1306     1.0  0.51327  0.13509  0.54512  1.0000
  H   H1307     1.0  0.72205  0.07313  0.50921  1.0000
  H   H1308     1.0  0.73680  0.13999  0.96318  1.0000
  C   C767      1.0  0.66478  0.14864  0.97115  1.0000
  C   C768      1.0  0.67323  0.13560  0.96876  1.0000
  H   H1309     1.0  0.80155  0.21981  0.53203  1.0000
  H   H1310     1.0  0.66488  0.02081  0.53907  1.0000
  H   H1311     1.0  0.62250  0.22086  0.78062  1.0000
  C   C769      1.0  0.57166  0.20586  0.51805  1.0000
  H   H1312     1.0  0.67321  0.12889  0.94388  1.0000
  S   S233      1.0  0.83378  0.20613  0.54739  1.0000
  H   H1313     1.0  0.65711  0.04667  0.55954  1.0000
  C   C770      1.0  0.66238  0.06850  0.50115  1.0000
  H   H1314     1.0  0.71013  0.20155  0.54683  1.0000
  C   C771      1.0  0.71651  0.21456  0.53061  1.0000
  H   H1315     1.0  0.68235  0.03501  0.50907  1.0000
  H   H1316     1.0  0.60479  0.20682  0.75496  1.0000
  H   H1317     1.0  0.50390  0.17716  0.54903  1.0000
  H   H1318     1.0  0.72571  0.16804  0.92137  1.0000
  C   C772      1.0  0.71758  0.18381  0.98172  1.0000
  N   N54       1.0  0.59711  0.20760  0.81063  1.0000
  H   H1319     1.0  0.63709  0.08379  0.96335  1.0000
  C   C773      1.0  0.66202  0.08135  0.57747  1.0000
  C   C774      1.0  0.71022  0.07076  0.52788  1.0000
  H   H1320     1.0  0.65327  0.05416  0.96328  1.0000
  C   C775      1.0  0.67912  0.08284  0.55474  1.0000
  H   H1321     1.0  0.51415  0.11690  0.51723  1.0000
  S   S234      1.0  0.63684  0.21244  0.51611  1.0000
  H   H1322     1.0  0.66090  0.07274  0.60199  1.0000
  C   C776      1.0  0.66919  0.03366  0.52230  1.0000
  C   C777      1.0  0.64075  0.19277  0.70916  1.0000
  C   C778      1.0  0.63897  0.18270  0.74145  1.0000
  C   C779      1.0  0.64485  0.19163  0.77354  1.0000
  C   C780      1.0  0.65263  0.21078  0.77363  1.0000
  C   C781      1.0  0.65453  0.22085  0.74131  1.0000
  C   C782      1.0  0.64859  0.21192  0.70925  1.0000
  H   H1323     1.0  0.63299  0.16787  0.74162  1.0000
  H   H1324     1.0  0.64340  0.18369  0.79814  1.0000
  S   S235      1.0  0.83641  0.21793  0.98518  1.0000
  H   H1325     1.0  0.65009  0.21985  0.68462  1.0000
  H   H1326     1.0  0.69852  0.22550  0.56085  1.0000
  H   H1327     1.0  0.57468  0.19126  0.77938  1.0000
  H   H1328     1.0  0.55634  0.22128  0.54035  1.0000
  C   C783      1.0  0.69443  0.07272  0.50677  1.0000
  S   S236      1.0  0.87903  0.24112  0.59273  1.0000
  C   C784      1.0  0.63664  0.08438  0.99284  1.0000
  C   C785      1.0  0.67502  0.08046  0.96249  1.0000
  C   C786      1.0  0.66731  0.15455  0.52589  1.0000
  C   C787      1.0  0.67972  0.14534  0.52734  1.0000
  H   H1329     1.0  0.66227  0.15854  0.55017  1.0000
  H   H1330     1.0  0.68420  0.14230  0.55289  1.0000
  N   N55       1.0  0.73218  0.17573  0.97628  1.0000
  S   S237      1.0  0.69505  0.23499  0.97970  1.0000
  H   H1331     1.0  0.70831  0.18445  0.92661  1.0000
  H   H1332     1.0  0.68938  0.08233  0.57409  1.0000
  C   C788      1.0  0.75541  0.19754  0.92953  1.0000
  S   S238      1.0  0.88087  0.24024  0.91076  1.0000
  H   H1333     1.0  0.61322  0.23935  0.73871  1.0000
  H   H1334     1.0  0.67988  0.04989  0.56809  1.0000
  H   H1335     1.0  0.60416  0.17948  0.77096  1.0000
  C   C789      1.0  0.73922  0.15072  0.94183  1.0000
  C   C790      1.0  0.60764  0.21664  0.77697  1.0000
  H   H1336     1.0  0.62737  0.22318  0.85559  1.0000
  N   N56       1.0  0.82689  0.20512  0.67025  1.0000
  C   C791      1.0  0.82339  0.22160  0.68432  1.0000
  C   C792      1.0  0.82781  0.19348  0.70223  1.0000
  C   C793      1.0  0.81094  0.19461  0.64832  1.0000
  C   C794      1.0  0.84424  0.21185  0.64767  1.0000
  H   H1337     1.0  0.76417  0.19081  0.91685  1.0000
  C   C795      1.0  0.84312  0.20276  0.72798  1.0000
  C   C796      1.0  0.81099  0.17657  0.63266  1.0000
  C   C797      1.0  0.85400  0.19811  0.64087  1.0000
  H   H1338     1.0  0.81164  0.21724  0.70386  1.0000
  H   H1339     1.0  0.76387  0.21239  0.92915  1.0000
  H   H1340     1.0  0.82940  0.18052  0.69478  1.0000
  H   H1341     1.0  0.81473  0.18898  0.71807  1.0000
  H   H1342     1.0  0.79800  0.19134  0.66427  1.0000
  H   H1343     1.0  0.80996  0.20307  0.62475  1.0000
  H   H1344     1.0  0.84177  0.21702  0.62122  1.0000
  H   H1345     1.0  0.85438  0.22395  0.65981  1.0000
  C   C798      1.0  0.48562  0.15325  0.52293  1.0000
  H   H1346     1.0  0.83022  0.23873  0.63454  1.0000
  H   H1347     1.0  0.79730  0.24058  0.52888  1.0000
  H   H1348     1.0  0.84039  0.21355  0.74331  1.0000
  H   H1349     1.0  0.84394  0.19238  0.74792  1.0000
  H   H1350     1.0  0.85659  0.20867  0.71407  1.0000
  H   H1351     1.0  0.82197  0.17913  0.61198  1.0000
  H   H1352     1.0  0.79807  0.17005  0.61883  1.0000
  H   H1353     1.0  0.81160  0.16642  0.65314  1.0000
  H   H1354     1.0  0.85764  0.19858  0.61199  1.0000
  H   H1355     1.0  0.84614  0.18361  0.64808  1.0000
  H   H1356     1.0  0.86706  0.20237  0.65476  1.0000
  H   H1357     1.0  0.68654  0.02238  0.98439  1.0000
  H   H1358     1.0  0.56747  0.17652  0.84216  1.0000
  N   N57       1.0  0.67663  0.06849  0.52723  1.0000
  C   C799      1.0  0.78734  0.16224  0.99418  1.0000
  C   C800      1.0  0.59891  0.17572  0.79874  1.0000
  H   H1359     1.0  0.77834  0.15689  0.50911  1.0000
  C   C801      1.0  0.82048  0.19077  0.51511  1.0000
  H   H1360     1.0  0.70701  0.05679  0.53973  1.0000
  H   H1361     1.0  0.66291  0.09531  0.58512  1.0000
  H   H1362     1.0  0.61873  0.19795  0.82398  1.0000
  H   H1363     1.0  0.60546  0.16629  0.80931  1.0000
  H   H1364     1.0  0.83519  0.23044  0.69919  1.0000
  C   C802      1.0  0.51046  0.12935  0.51820  1.0000
  H   H1365     1.0  0.69716  0.18265  0.49900  1.0000
  H   H1366     1.0  0.62772  0.05520  0.99293  1.0000
  C   C803      1.0  0.58409  0.20580  0.96842  1.0000
  H   H1367     1.0  0.66158  0.09642  0.50640  1.0000
  C   C804      1.0  0.80275  0.17874  0.52496  1.0000
  C   C805      1.0  0.67070  0.04995  0.54612  1.0000
  H   H1368     1.0  0.79736  0.17922  0.55147  1.0000
  C   C806      1.0  0.57716  0.20003  0.80307  1.0000
  H   H1369     1.0  0.59853  0.18744  0.85011  1.0000
  H   H1370     1.0  0.68518  0.09699  0.54285  1.0000
  C   C807      1.0  0.72670  0.16179  0.94756  1.0000
  C   C808      1.0  0.81969  0.23448  0.65631  1.0000
  H   H1371     1.0  0.75381  0.15950  0.94054  1.0000
  H   H1372     1.0  0.70141  0.19778  0.95735  1.0000
  S   S239      1.0  0.58813  0.21241  0.55138  1.0000
  H   H1373     1.0  0.72991  0.18871  0.51227  1.0000
  H   H1374     1.0  0.74376  0.19614  0.91268  1.0000
  C   C809      1.0  0.62002  0.23228  0.84774  1.0000
  H   H1375     1.0  0.73606  0.14348  0.91636  1.0000
  C   C810      1.0  0.55722  0.21244  0.51919  1.0000
  H   H1376     1.0  0.57528  0.22818  0.95457  1.0000
  H   H1377     1.0  0.71275  0.15170  0.95353  1.0000
  C   C811      1.0  0.60368  0.19255  0.82257  1.0000
  H   H1378     1.0  0.64924  0.07570  0.56313  1.0000
  S   S240      1.0  0.87073  0.23981  0.80966  1.0000
  H   H1379     1.0  0.58994  0.22989  0.75312  1.0000
  C   C812      1.0  0.66331  0.06242  0.98234  1.0000
  S   S241      1.0  0.70212  0.12882  0.49927  1.0000
  H   H1380     1.0  0.56505  0.19724  0.85770  1.0000
  H   H1381     1.0  0.64841  0.06177  0.51293  1.0000
  H   H1382     1.0  0.71474  0.08116  0.54860  1.0000
  H   H1383     1.0  0.68777  0.08730  0.97653  1.0000
  C   C813      1.0  0.71310  0.22948  0.55284  1.0000
  C   C814      1.0  0.50410  0.16912  0.52512  1.0000
  H   H1384     1.0  0.51574  0.16450  0.52719  1.0000
  C   C815      1.0  0.60007  0.22114  0.83997  1.0000
  H   H1385     1.0  0.58868  0.18165  0.98722  1.0000
  H   H1386     1.0  0.68123  0.20194  0.50990  1.0000
  H   H1387     1.0  0.50650  0.17878  0.50181  1.0000
  H   H1388     1.0  0.70468  0.17292  0.99139  1.0000
  H   H1389     1.0  0.88405  0.23612  0.73973  1.0000
  C   C816      1.0  0.57935  0.18898  0.98719  1.0000
  H   H1390     1.0  0.62042  0.24117  0.87060  1.0000
  Fe  Fe122     1.0  0.85527  0.23867  0.94250  1.0000
  H   H1391     1.0  0.67272  0.05484  0.98666  1.0000
  C   C817      1.0  0.55485  0.20772  0.98764  1.0000
  C   C818      1.0  0.49018  0.12403  0.51008  1.0000
  H   H1392     1.0  0.54551  0.21504  0.98764  1.0000
  H   H1393     1.0  0.65876  0.03174  0.50202  1.0000
  H   H1394     1.0  0.68852  0.12151  0.99595  1.0000
  H   H1395     1.0  0.51982  0.13901  0.49832  1.0000
  H   H1396     1.0  0.64866  0.02631  0.99687  1.0000
  Fe  Fe123     1.0  0.78326  0.32884  0.44462  1.0000
  S   S242      1.0  0.77099  0.31275  0.39683  1.0000
  H   H1397     1.0  0.72169  0.43920  0.02960  1.0000
  Fe  Fe124     1.0  0.76589  0.35790  0.43034  1.0000
  S   S243      1.0  0.75189  0.34334  0.38216  1.0000
  S   S244      1.0  0.75869  0.38267  0.44637  1.0000
  Fe  Fe125     1.0  0.74544  0.31710  0.41486  1.0000
  S   S245      1.0  0.71812  0.29364  0.41305  1.0000
  Fe  Fe126     1.0  0.77840  0.34026  0.36793  1.0000
  S   S246      1.0  0.79240  0.34806  0.31265  1.0000
  S   S247      1.0  0.75719  0.33182  0.46395  1.0000
  S   S248      1.0  0.79297  0.35622  0.41472  1.0000
  C   C819      1.0  0.66593  0.46877  0.31648  1.0000
  H   H1398     1.0  0.54444  0.35601  0.44297  1.0000
  H   H1399     1.0  0.79165  0.47385  0.07445  1.0000
  H   H1400     1.0  0.66882  0.28806  0.06236  1.0000
  C   C820      1.0  0.79775  0.26380  0.45543  1.0000
  H   H1401     1.0  0.68543  0.26211  0.42598  1.0000
  Fe  Fe127     1.0  0.62571  0.47443  0.44763  1.0000
  H   H1402     1.0  0.48917  0.33669  0.36537  1.0000
  S   S249      1.0  0.63635  0.46361  0.40057  1.0000
  Fe  Fe128     1.0  0.78341  0.37138  0.04473  1.0000
  S   S250      1.0  0.75445  0.35787  0.06496  1.0000
  H   H1403     1.0  0.79831  0.40039  0.45182  1.0000
  Fe  Fe129     1.0  0.79109  0.33559  0.05276  1.0000
  S   S251      1.0  0.76264  0.31978  0.07335  1.0000
  S   S252      1.0  0.80969  0.31898  0.05334  1.0000
  Fe  Fe130     1.0  0.75402  0.33464  0.03004  1.0000
  H   H1404     1.0  0.65062  0.43429  0.34076  1.0000
  Fe  Fe131     1.0  0.76557  0.34408  0.10700  1.0000
  S   S253      1.0  0.75325  0.33824  0.16375  1.0000
  H   H1405     1.0  0.73219  0.47530  0.07024  1.0000
  S   S254      1.0  0.79461  0.35902  0.08936  1.0000
  C   C821      1.0  0.64999  0.28437  0.46719  1.0000
  H   H1406     1.0  0.83165  0.26603  0.44116  1.0000
  C   C822      1.0  0.72353  0.28534  0.01568  1.0000
  Fe  Fe132     1.0  0.65474  0.47567  0.03146  1.0000
  H   H1407     1.0  0.67540  0.26285  0.02437  1.0000
  H   H1408     1.0  0.65024  0.44143  0.24534  1.0000
  Fe  Fe133     1.0  0.61415  0.46400  0.04964  1.0000
  S   S255      1.0  0.58544  0.44208  0.04960  1.0000
  S   S256      1.0  0.63717  0.45898  0.07732  1.0000
  C   C823      1.0  0.57070  0.37643  0.02373  1.0000
  H   H1409     1.0  0.91715  0.33683  0.01656  1.0000
  H   H1410     1.0  0.50384  0.28399  0.36996  1.0000
  H   H1411     1.0  0.59445  0.36812  0.03129  1.0000
  H   H1412     1.0  0.51530  0.27688  0.40401  1.0000
  C   C824      1.0  0.76486  0.41645  0.47420  1.0000
  C   C825      1.0  0.61370  0.24539  0.47144  1.0000
  H   H1413     1.0  0.78462  0.26599  0.45375  1.0000
  C   C826      1.0  0.68283  0.48605  0.30729  1.0000
  C   C827      1.0  0.80261  0.42769  0.47035  1.0000
  C   C828      1.0  0.69084  0.26692  0.45157  1.0000
  C   C829      1.0  0.51957  0.30586  0.40586  1.0000
  H   H1414     1.0  0.61891  0.42506  0.32595  1.0000
  H   H1415     1.0  0.60409  0.46658  0.24783  1.0000
  H   H1416     1.0  0.62394  0.43843  0.28535  1.0000
  C   C830      1.0  0.50093  0.26697  0.00526  1.0000
  H   H1417     1.0  0.63377  0.25378  0.42672  1.0000
  N   N58       1.0  0.55820  0.35844  0.00999  1.0000
  H   H1418     1.0  0.55706  0.35330  0.08326  1.0000
  H   H1419     1.0  0.62843  0.44932  0.32785  1.0000
  H   H1420     1.0  0.83320  0.34414  0.14840  1.0000
  C   C831      1.0  0.52661  0.33893  0.40404  1.0000
  C   C832      1.0  0.72533  0.24612  0.47055  1.0000
  H   H1421     1.0  0.52524  0.33830  0.46288  1.0000
  C   C833      1.0  0.67968  0.44664  0.29298  1.0000
  H   H1422     1.0  0.62243  0.27966  0.45184  1.0000
  H   H1423     1.0  0.49532  0.28098  0.41615  1.0000
  H   H1424     1.0  0.68125  0.47924  0.23879  1.0000
  H   H1425     1.0  0.72934  0.44298  0.07340  1.0000
  H   H1426     1.0  0.64763  0.46206  0.25818  1.0000
  C   C834      1.0  0.55969  0.34193  0.02950  1.0000
  N   N59       1.0  0.75081  0.45356  0.03282  1.0000
  C   C835      1.0  0.79568  0.24485  0.44102  1.0000
  C   C836      1.0  0.55031  0.41074  0.49063  1.0000
  S   S257      1.0  0.79642  0.31796  0.48867  1.0000
  H   H1427     1.0  0.69103  0.45635  0.34514  1.0000
  H   H1428     1.0  0.80606  0.42645  0.31120  1.0000
  C   C837      1.0  0.61783  0.47615  0.24284  1.0000
  C   C838      1.0  0.73179  0.43916  0.45720  1.0000
  H   H1429     1.0  0.68117  0.45757  0.22210  1.0000
  H   H1430     1.0  0.75023  0.41215  0.47552  1.0000
  C   C839      1.0  0.55576  0.42590  0.46640  1.0000
  C   C840      1.0  0.57374  0.43875  0.46513  1.0000
  N   N60       1.0  0.66315  0.45207  0.29461  1.0000
  H   H1431     1.0  0.54596  0.42782  0.44863  1.0000
  H   H1432     1.0  0.57762  0.45042  0.44660  1.0000
  H   H1433     1.0  0.52136  0.35035  0.40100  1.0000
  H   H1434     1.0  0.80568  0.27213  0.14075  1.0000
  H   H1435     1.0  0.73232  0.29079  0.03751  1.0000
  H   H1436     1.0  0.81132  0.33717  0.13013  1.0000
  H   H1437     1.0  0.81727  0.43203  0.46874  1.0000
  C   C841      1.0  0.78111  0.34619  0.27179  1.0000
  C   C842      1.0  0.76239  0.33687  0.26977  1.0000
  C   C843      1.0  0.75407  0.33496  0.23658  1.0000
  C   C844      1.0  0.76431  0.34231  0.20501  1.0000
  C   C845      1.0  0.78298  0.35202  0.20710  1.0000
  C   C846      1.0  0.79132  0.35390  0.24033  1.0000
  H   H1438     1.0  0.75434  0.33086  0.29371  1.0000
  H   H1439     1.0  0.73961  0.32746  0.23529  1.0000
  H   H1440     1.0  0.79100  0.35790  0.18309  1.0000
  H   H1441     1.0  0.80579  0.36126  0.24164  1.0000
  C   C847      1.0  0.77294  0.40413  0.46224  1.0000
  C   C848      1.0  0.79190  0.40975  0.46076  1.0000
  H   H1442     1.0  0.74622  0.44727  0.44972  1.0000
  C   C849      1.0  0.64318  0.49123  0.20110  1.0000
  H   H1443     1.0  0.85704  0.26006  0.41819  1.0000
  H   H1444     1.0  0.81502  0.41301  0.39196  1.0000
  S   S258      1.0  0.78238  0.34904  0.00676  1.0000
  H   H1445     1.0  0.97843  0.28497  0.48727  1.0000
  H   H1446     1.0  0.79484  0.38666  0.28967  1.0000
  C   C850      1.0  0.84128  0.30807  0.45351  1.0000
  C   C851      1.0  0.82641  0.31406  0.45464  1.0000
  H   H1447     1.0  0.85043  0.31145  0.43035  1.0000
  H   H1448     1.0  0.82414  0.32199  0.43251  1.0000
  H   H1449     1.0  0.70806  0.40506  0.48316  1.0000
  S   S259      1.0  0.68961  0.47824  0.40843  1.0000
  C   C852      1.0  0.70693  0.28237  0.45303  1.0000
  S   S260      1.0  0.61830  0.48010  0.31543  1.0000
  H   H1450     1.0  0.63502  0.26830  0.07077  1.0000
  C   C853      1.0  0.62802  0.48520  0.27156  1.0000
  C   C854      1.0  0.81477  0.31012  0.48482  1.0000
  N   N61       1.0  0.78448  0.40581  0.34177  1.0000
  C   C855      1.0  0.78535  0.42124  0.36611  1.0000
  C   C856      1.0  0.79323  0.39408  0.36086  1.0000
  C   C857      1.0  0.76469  0.39460  0.33708  1.0000
  C   C858      1.0  0.79396  0.41394  0.30662  1.0000
  C   C859      1.0  0.77611  0.43458  0.35338  1.0000
  C   C860      1.0  0.81342  0.40374  0.36933  1.0000
  C   C861      1.0  0.76043  0.37834  0.31211  1.0000
  H   H1451     1.0  0.77914  0.41565  0.39276  1.0000
  H   H1452     1.0  0.79968  0.42998  0.37085  1.0000
  H   H1453     1.0  0.79225  0.38167  0.34621  1.0000
  H   H1454     1.0  0.78575  0.38856  0.38661  1.0000
  H   H1455     1.0  0.75784  0.38909  0.36346  1.0000
  H   H1456     1.0  0.75742  0.40319  0.32583  1.0000
  H   H1457     1.0  0.78489  0.41869  0.29002  1.0000
  H   H1458     1.0  0.76109  0.42815  0.35558  1.0000
  H   H1459     1.0  0.77991  0.44645  0.37120  1.0000
  H   H1460     1.0  0.78058  0.44015  0.32596  1.0000
  H   H1461     1.0  0.71846  0.25709  0.03092  1.0000
  H   H1462     1.0  0.89504  0.30481  0.02705  1.0000
  H   H1463     1.0  0.76680  0.36841  0.32013  1.0000
  H   H1464     1.0  0.76424  0.38302  0.28398  1.0000
  H   H1465     1.0  0.74553  0.37062  0.31317  1.0000
  H   H1466     1.0  0.76820  0.28709  0.04430  1.0000
  H   H1467     1.0  0.74412  0.42385  0.08442  1.0000
  S   S261      1.0  0.50090  0.25465  0.04506  1.0000
  H   H1468     1.0  0.60903  0.24671  0.05323  1.0000
  H   H1469     1.0  0.74575  0.48828  0.47139  1.0000
  H   H1470     1.0  0.72834  0.25310  0.44378  1.0000
  C   C862      1.0  0.80094  0.40152  0.28333  1.0000
  H   H1471     1.0  0.65472  0.27277  0.46438  1.0000
  C   C863      1.0  0.50698  0.32038  0.35972  1.0000
  H   H1472     1.0  0.81595  0.40582  0.28422  1.0000
  H   H1473     1.0  0.82697  0.29283  0.04166  1.0000
  C   C864      1.0  0.66288  0.25031  0.02498  1.0000
  C   C865      1.0  0.84546  0.24786  0.42859  1.0000
  H   H1474     1.0  0.69118  0.45684  0.27764  1.0000
  C   C866      1.0  0.77556  0.43425  0.48426  1.0000
  C   C867      1.0  0.65752  0.45490  0.25743  1.0000
  C   C868      1.0  0.75591  0.42638  0.06576  1.0000
  C   C869      1.0  0.50755  0.28597  0.39818  1.0000
  Fe  Fe134     1.0  0.63249  0.48663  0.36853  1.0000
  H   H1475     1.0  0.49449  0.33265  0.32052  1.0000
  C   C870      1.0  0.53887  0.35785  0.01142  1.0000
  H   H1476     1.0  0.79802  0.40336  0.25502  1.0000
  H   H1477     1.0  0.64660  0.42305  0.29944  1.0000
  H   H1478     1.0  0.60945  0.24786  0.00487  1.0000
  C   C871      1.0  0.68721  0.44381  0.32926  1.0000
  C   C872      1.0  0.58646  0.43678  0.48861  1.0000
  H   H1479     1.0  0.80784  0.27508  0.43921  1.0000
  H   H1480     1.0  0.97627  0.26226  0.47596  1.0000
  C   C873      1.0  0.75377  0.43555  0.03025  1.0000
  H   H1481     1.0  0.69476  0.48324  0.29710  1.0000
  C   C874      1.0  0.79448  0.44002  0.48212  1.0000
  H   H1482     1.0  0.67670  0.43373  0.27816  1.0000
  H   H1483     1.0  0.51899  0.32150  0.34225  1.0000
  H   H1484     1.0  0.66970  0.24549  0.48171  1.0000
  C   C875      1.0  0.82720  0.29987  0.01643  1.0000
  H   H1485     1.0  0.69978  0.44075  0.32460  1.0000
  C   C876      1.0  0.78406  0.47118  0.04942  1.0000
  H   H1486     1.0  0.72353  0.44547  0.44202  1.0000
  C   C877      1.0  0.64632  0.26982  0.00518  1.0000
  H   H1487     1.0  0.66080  0.28114  0.10718  1.0000
  H   H1488     1.0  0.51727  0.36140  0.04337  1.0000
  H   H1489     1.0  0.78733  0.46003  0.03688  1.0000
  H   H1490     1.0  0.59873  0.39214  0.03557  1.0000
  H   H1491     1.0  0.52287  0.30553  0.43442  1.0000
  Fe  Fe135     1.0  0.64234  0.48610  0.10313  1.0000
  H   H1492     1.0  0.75695  0.41284  0.06023  1.0000
  C   C878      1.0  0.84443  0.29790  0.48224  1.0000
  H   H1493     1.0  0.81910  0.39320  0.37769  1.0000
  H   H1494     1.0  0.81240  0.44108  0.01837  1.0000
  H   H1495     1.0  0.71301  0.24822  0.48040  1.0000
  H   H1496     1.0  0.67386  0.26984  0.08502  1.0000
  H   H1497     1.0  0.72906  0.42502  0.44830  1.0000
  N   N62       1.0  0.79581  0.30665  0.18369  1.0000
  C   C879      1.0  0.78619  0.30525  0.21957  1.0000
  C   C880      1.0  0.78275  0.30757  0.15571  1.0000
  C   C881      1.0  0.81237  0.32411  0.18218  1.0000
  C   C882      1.0  0.80113  0.29000  0.18060  1.0000
  C   C883      1.0  0.79812  0.30821  0.25252  1.0000
  C   C884      1.0  0.76471  0.29100  0.15558  1.0000
  C   C885      1.0  0.82059  0.33207  0.14508  1.0000
  C   C886      1.0  0.80926  0.28708  0.14446  1.0000
  H   H1498     1.0  0.77922  0.31534  0.22089  1.0000
  H   H1499     1.0  0.77521  0.29159  0.22399  1.0000
  H   H1500     1.0  0.78881  0.30920  0.12838  1.0000
  H   H1501     1.0  0.77931  0.32010  0.15889  1.0000
  H   H1502     1.0  0.80916  0.33537  0.19497  1.0000
  H   H1503     1.0  0.82350  0.32230  0.19769  1.0000
  H   H1504     1.0  0.81143  0.29032  0.20049  1.0000
  H   H1505     1.0  0.78956  0.27713  0.18821  1.0000
  H   H1506     1.0  0.80534  0.29840  0.25438  1.0000
  H   H1507     1.0  0.80796  0.32251  0.25339  1.0000
  H   H1508     1.0  0.78923  0.30601  0.27692  1.0000
  H   H1509     1.0  0.75673  0.29273  0.13277  1.0000
  H   H1510     1.0  0.76693  0.27790  0.15220  1.0000
  H   H1511     1.0  0.75612  0.29023  0.17981  1.0000
  H   H1512     1.0  0.82438  0.32232  0.12882  1.0000
  H   H1513     1.0  0.53264  0.30890  0.39045  1.0000
  C   C887      1.0  0.81956  0.31358  0.01438  1.0000
  H   H1514     1.0  0.82431  0.29362  0.14363  1.0000
  H   H1515     1.0  0.80389  0.29192  0.12101  1.0000
  C   C888      1.0  0.70252  0.48152  0.44689  1.0000
  H   H1516     1.0  0.67761  0.43202  0.34506  1.0000
  C   C889      1.0  0.71565  0.26626  0.01191  1.0000
  C   C890      1.0  0.50537  0.28606  0.00606  1.0000
  H   H1517     1.0  0.49649  0.30724  0.35270  1.0000
  C   C891      1.0  0.73154  0.44949  0.04623  1.0000
  C   C892      1.0  0.49751  0.25729  0.47532  1.0000
  H   H1518     1.0  0.64086  0.25029  0.08883  1.0000
  H   H1519     1.0  0.82174  0.41148  0.34607  1.0000
  C   C893      1.0  0.64788  0.43616  0.31232  1.0000
  H   H1520     1.0  0.66609  0.46550  0.34543  1.0000
  C   C894      1.0  0.69650  0.43371  0.49173  1.0000
  H   H1521     1.0  0.56862  0.38807  0.00938  1.0000
  H   H1522     1.0  0.76055  0.46077  0.08623  1.0000
  C   C895      1.0  0.76356  0.46615  0.05818  1.0000
  C   C896      1.0  0.50957  0.27382  0.48812  1.0000
  C   C897      1.0  0.64542  0.26176  0.06852  1.0000
  H   H1523     1.0  0.52929  0.34971  0.06696  1.0000
  H   H1524     1.0  0.69288  0.42504  0.46795  1.0000
  C   C898      1.0  0.53109  0.36113  0.04749  1.0000
  H   H1525     1.0  0.54409  0.33304  0.44404  1.0000
  H   H1526     1.0  0.84894  0.24468  0.45570  1.0000
  H   H1527     1.0  0.65406  0.47321  0.31469  1.0000
  H   H1528     1.0  0.58020  0.25010  0.48254  1.0000
  S   S262      1.0  0.86344  0.29099  0.48014  1.0000
  H   H1529     1.0  0.54804  0.41876  0.04397  1.0000
  C   C899      1.0  0.68187  0.25753  0.48307  1.0000
  H   H1530     1.0  0.52399  0.27638  0.48770  1.0000
  C   C900      1.0  0.49593  0.31855  0.42357  1.0000
  C   C901      1.0  0.62535  0.47911  0.20778  1.0000
  H   H1531     1.0  0.76864  0.43448  0.07874  1.0000
  H   H1532     1.0  0.49881  0.31480  0.45090  1.0000
  C   C902      1.0  0.62950  0.27912  0.47690  1.0000
  C   C903      1.0  0.59117  0.37982  0.02038  1.0000
  S   S263      1.0  0.60882  0.45350  0.49065  1.0000
  C   C904      1.0  0.66334  0.27600  0.08101  1.0000
  Fe  Fe136     1.0  0.66358  0.48412  0.41327  1.0000
  H   H1533     1.0  0.70237  0.44808  0.48095  1.0000
  C   C905      1.0  0.53544  0.34143  0.44066  1.0000
  H   H1534     1.0  0.82525  0.25488  0.40039  1.0000
  N   N63       1.0  0.64609  0.25485  0.03150  1.0000
  H   H1535     1.0  0.76587  0.43702  0.01314  1.0000
  H   H1536     1.0  0.71057  0.46118  0.05501  1.0000
  C   C906      1.0  0.56151  0.34299  0.07039  1.0000
  H   H1537     1.0  0.55317  0.32947  0.08299  1.0000
  S   S264      1.0  0.80827  0.46272  0.49264  1.0000
  H   H1538     1.0  0.72729  0.48439  0.41767  1.0000
  H   H1539     1.0  0.65849  0.29400  0.48658  1.0000
  N   N64       1.0  0.51179  0.32058  0.39835  1.0000
  H   H1540     1.0  0.57180  0.33919  0.01912  1.0000
  H   H1541     1.0  0.50934  0.29300  0.03077  1.0000
  C   C907      1.0  0.73153  0.48639  0.47414  1.0000
  C   C908      1.0  0.62885  0.43757  0.31249  1.0000
  S   S265      1.0  0.79664  0.40242  0.03445  1.0000
  H   H1542     1.0  0.76150  0.47952  0.05873  1.0000
  C   C909      1.0  0.67264  0.46560  0.22988  1.0000
  H   H1543     1.0  0.60372  0.24728  0.45289  1.0000
  C   C910      1.0  0.82798  0.25246  0.42867  1.0000
  H   H1544     1.0  0.61745  0.47183  0.18606  1.0000
  C   C911      1.0  0.72542  0.46614  0.04865  1.0000
  H   H1545     1.0  0.74235  0.42527  0.01665  1.0000
  H   H1546     1.0  0.51137  0.34922  0.34501  1.0000
  C   C912      1.0  0.50012  0.33568  0.34743  1.0000
  H   H1547     1.0  0.72765  0.47419  0.02330  1.0000
  H   H1548     1.0  0.66622  0.46799  0.20518  1.0000
  H   H1549     1.0  0.53782  0.34177  0.38354  1.0000
  C   C913      1.0  0.55493  0.41806  0.01911  1.0000
  H   H1550     1.0  0.56772  0.37830  0.05196  1.0000
  H   H1551     1.0  0.73669  0.25325  0.48806  1.0000
  H   H1552     1.0  0.53903  0.37460  0.05843  1.0000
  H   H1553     1.0  0.54783  0.32934  0.02411  1.0000
  H   H1554     1.0  0.65311  0.29207  0.44117  1.0000
  H   H1555     1.0  0.57574  0.34537  0.07755  1.0000
  C   C914      1.0  0.57356  0.42866  0.01405  1.0000
  H   H1556     1.0  0.63480  0.27454  0.01081  1.0000
  C   C915      1.0  0.72103  0.48411  0.44373  1.0000
  H   H1557     1.0  0.66915  0.43442  0.49099  1.0000
  H   H1558     1.0  0.75509  0.26826  0.01891  1.0000
  H   H1559     1.0  0.50262  0.24716  0.46514  1.0000
  H   H1560     1.0  0.49415  0.33201  0.42595  1.0000
  C   C916      1.0  0.76814  0.28002  0.01901  1.0000
  H   H1561     1.0  0.68020  0.47867  0.48356  1.0000
  C   C917      1.0  0.88131  0.33190  0.01318  1.0000
  C   C918      1.0  0.71387  0.28839  0.48620  1.0000
  H   H1562     1.0  0.88803  0.33499  0.03915  1.0000
  S   S266      1.0  0.52717  0.39553  0.49224  1.0000
  H   H1563     1.0  0.79330  0.24536  0.41196  1.0000
  H   H1564     1.0  0.77964  0.27503  0.01997  1.0000
  H   H1565     1.0  0.80148  0.26495  0.48368  1.0000
  C   C919      1.0  0.69453  0.48109  0.48069  1.0000
  S   S267      1.0  0.61821  0.49018  0.07882  1.0000
  H   H1566     1.0  0.78936  0.48361  0.03153  1.0000
  H   H1567     1.0  0.72623  0.30019  0.48777  1.0000
  H   H1568     1.0  0.65879  0.28219  0.00770  1.0000
  H   H1569     1.0  0.91664  0.30560  0.00972  1.0000
  C   C920      1.0  0.58816  0.26346  0.49408  1.0000
  S   S268      1.0  0.63148  0.47892  0.00215  1.0000
  H   H1570     1.0  0.90752  0.36327  0.02953  1.0000
  H   H1571     1.0  0.59321  0.27427  0.47274  1.0000
  S   S269      1.0  0.67499  0.46629  0.00147  1.0000
  C   C921      1.0  0.79203  0.41631  0.00071  1.0000
  H   H1572     1.0  0.85732  0.33683  0.03285  1.0000
  H   H1573     1.0  0.52939  0.34429  0.00315  1.0000
  H   H1574     1.0  0.62855  0.29056  0.49306  1.0000
  H   H1575     1.0  0.87461  0.35705  0.01467  1.0000
  C   C922      1.0  0.80198  0.43533  0.99930  1.0000
  H   H1576     1.0  0.82345  0.25117  0.49563  1.0000
  H   H1577     1.0  0.87291  0.31698  0.01561  1.0000
  H   H1578     1.0  0.66290  0.24482  0.99793  1.0000
  C   C923      1.0  0.91293  0.36861  0.00247  1.0000
  H   H1579     1.0  0.76936  0.44373  0.49321  1.0000
  C   C924      1.0  0.90438  0.30877  0.00327  1.0000
  H   H1580     1.0  0.92771  0.37102  0.00134  1.0000
  C   C925      1.0  0.86783  0.34211  0.01104  1.0000
  H   H1581     1.0  0.91108  0.38201  0.99923  1.0000
  H   H1582     1.0  0.75421  0.47720  0.99765  1.0000
  N   N65       1.0  0.62011  0.26099  0.49676  1.0000
  S   S270      1.0  0.88996  0.28458  0.56612  1.0000
  C   C926      1.0  0.63821  0.27047  0.55393  1.0000
  H   H1583     1.0  0.94014  0.30420  0.53114  1.0000
  Fe  Fe137     1.0  0.50369  0.35002  0.60047  1.0000
  H   H1584     1.0  0.49078  0.26110  0.91783  1.0000
  S   S271      1.0  0.51441  0.35430  0.65688  1.0000
  Fe  Fe138     1.0  0.50699  0.32873  0.53501  1.0000
  C   C927      1.0  0.83525  0.30392  0.95311  1.0000
  C   C928      1.0  0.54606  0.43189  0.61811  1.0000
  C   C929      1.0  0.54514  0.40659  0.99230  1.0000
  H   H1585     1.0  0.51162  0.32361  0.76523  1.0000
  S   S272      1.0  0.52612  0.35412  0.55897  1.0000
  H   H1586     1.0  0.67786  0.39558  0.51343  1.0000
  S   S273      1.0  0.77963  0.47588  0.56934  1.0000
  C   C930      1.0  0.64579  0.26504  0.96555  1.0000
  H   H1587     1.0  0.54343  0.40762  0.67214  1.0000
  H   H1588     1.0  0.68816  0.39730  0.55670  1.0000
  C   C931      1.0  0.55068  0.34206  0.94991  1.0000
  H   H1589     1.0  0.96557  0.26900  0.57648  1.0000
  N   N66       1.0  0.53158  0.41304  0.62348  1.0000
  H   H1590     1.0  0.59740  0.24952  0.53487  1.0000
  S   S274      1.0  0.84459  0.29814  0.91394  1.0000
  S   S275      1.0  0.92339  0.29050  0.93586  1.0000
  S   S276      1.0  0.88225  0.28021  0.87797  1.0000
  Fe  Fe139     1.0  0.49590  0.32750  0.90911  1.0000
  S   S277      1.0  0.49949  0.34453  0.95743  1.0000
  H   H1591     1.0  0.62454  0.24299  0.53708  1.0000
  H   H1592     1.0  0.84059  0.28426  0.98776  1.0000
  H   H1593     1.0  0.78242  0.26917  0.89270  1.0000
  H   H1594     1.0  0.80128  0.26727  0.91549  1.0000
  Fe  Fe140     1.0  0.51419  0.36877  0.92045  1.0000
  S   S278      1.0  0.54296  0.38973  0.92677  1.0000
  S   S279      1.0  0.51253  0.35104  0.87288  1.0000
  S   S280      1.0  0.86944  0.26777  0.96083  1.0000
  H   H1595     1.0  0.60690  0.24463  0.78175  1.0000
  H   H1596     1.0  0.86632  0.33594  0.66269  1.0000
  C   C932      1.0  0.96644  0.28235  0.56615  1.0000
  H   H1597     1.0  0.70573  0.29920  0.94401  1.0000
  H   H1598     1.0  0.85075  0.27887  0.72819  1.0000
  H   H1599     1.0  0.74164  0.43916  0.96304  1.0000
  S   S281      1.0  0.77995  0.45375  0.91614  1.0000
  H   H1600     1.0  0.83340  0.30516  0.58705  1.0000
  H   H1601     1.0  0.49695  0.28602  0.83383  1.0000
  H   H1602     1.0  0.77090  0.39445  0.97655  1.0000
  C   C933      1.0  0.70480  0.27917  0.51761  1.0000
  S   S282      1.0  0.49703  0.29914  0.90445  1.0000
  H   H1603     1.0  0.64395  0.28488  0.54375  1.0000
  C   C934      1.0  0.57252  0.41606  0.95505  1.0000
  C   C935      1.0  0.55394  0.40537  0.96018  1.0000
  S   S283      1.0  0.86134  0.27259  0.65745  1.0000
  H   H1604     1.0  0.57950  0.41526  0.93035  1.0000
  H   H1605     1.0  0.53787  0.34432  0.94432  1.0000
  C   C936      1.0  0.49899  0.28712  0.94339  1.0000
  H   H1606     1.0  0.95338  0.32494  0.94276  1.0000
  H   H1607     1.0  0.55937  0.39668  0.53149  1.0000
  C   C937      1.0  0.70774  0.47818  0.96459  1.0000
  C   C938      1.0  0.94779  0.29627  0.93392  1.0000
  C   C939      1.0  0.95935  0.31462  0.93855  1.0000
  Fe  Fe141     1.0  0.89392  0.27022  0.92482  1.0000
  H   H1608     1.0  0.62695  0.26879  0.57361  1.0000
  H   H1609     1.0  0.85443  0.26664  0.78804  1.0000
  H   H1610     1.0  0.80893  0.29679  0.53685  1.0000
  H   H1611     1.0  0.55662  0.38669  0.59353  1.0000
  C   C940      1.0  0.78517  0.43970  0.94863  1.0000
  C   C941      1.0  0.77531  0.42068  0.94982  1.0000
  H   H1612     1.0  0.82514  0.47403  0.81340  1.0000
  H   H1613     1.0  0.76491  0.41489  0.93075  1.0000
  H   H1614     1.0  0.51920  0.43241  0.56696  1.0000
  H   H1615     1.0  0.91360  0.35839  0.95066  1.0000
  Fe  Fe142     1.0  0.85754  0.27627  0.91322  1.0000
  C   C942      1.0  0.49487  0.26811  0.94242  1.0000
  H   H1616     1.0  0.71785  0.24318  0.53941  1.0000
  C   C943      1.0  0.87493  0.25256  0.70334  1.0000
  Fe  Fe143     1.0  0.86933  0.27368  0.52406  1.0000
  Fe  Fe144     1.0  0.86856  0.25066  0.86502  1.0000
  C   C944      1.0  0.87091  0.34855  0.64553  1.0000
  C   C945      1.0  0.75158  0.27305  0.94453  1.0000
  C   C946      1.0  0.96912  0.31672  0.53904  1.0000
  Fe  Fe145     1.0  0.79780  0.48306  0.51994  1.0000
  H   H1617     1.0  0.81059  0.48689  0.81104  1.0000
  S   S284      1.0  0.49109  0.36702  0.56895  1.0000
  C   C947      1.0  0.97859  0.31986  0.93780  1.0000
  C   C948      1.0  0.72351  0.48585  0.50796  1.0000
  H   H1618     1.0  0.74806  0.26109  0.96356  1.0000
  H   H1619     1.0  0.59655  0.43569  0.97735  1.0000
  C   C949      1.0  0.50353  0.35594  0.69785  1.0000
  C   C950      1.0  0.51330  0.35779  0.72922  1.0000
  C   C951      1.0  0.50516  0.35859  0.76263  1.0000
  C   C952      1.0  0.50307  0.28710  0.50108  1.0000
  C   C953      1.0  0.48957  0.28225  0.80872  1.0000
  H   H1620     1.0  0.72136  0.43625  0.60331  1.0000
  H   H1621     1.0  0.52724  0.35846  0.72771  1.0000
  H   H1622     1.0  0.51281  0.35990  0.78655  1.0000
  H   H1623     1.0  0.54667  0.42987  0.55820  1.0000
  H   H1624     1.0  0.72389  0.41835  0.57746  1.0000
  H   H1625     1.0  0.98037  0.31837  0.81762  1.0000
  H   H1626     1.0  0.94752  0.26907  0.92498  1.0000
  H   H1627     1.0  0.74538  0.46095  0.94208  1.0000
  H   H1628     1.0  0.81436  0.47502  0.77268  1.0000
  H   H1629     1.0  0.59629  0.38296  0.99231  1.0000
  H   H1630     1.0  0.48811  0.28456  0.73831  1.0000
  C   C954      1.0  0.86025  0.26276  0.76459  1.0000
  C   C955      1.0  0.95055  0.28466  0.55410  1.0000
  H   H1631     1.0  0.82809  0.32484  0.92589  1.0000
  C   C956      1.0  0.95206  0.30209  0.54081  1.0000
  S   S285      1.0  0.84263  0.24750  0.89586  1.0000
  C   C957      1.0  0.83253  0.29359  0.51202  1.0000
  H   H1632     1.0  0.73310  0.45462  0.50443  1.0000
  Fe  Fe146     1.0  0.51258  0.36942  0.52626  1.0000
  C   C958      1.0  0.82781  0.31779  0.95115  1.0000
  H   H1633     1.0  0.54759  0.32845  0.96337  1.0000
  S   S286      1.0  0.48872  0.37415  0.90706  1.0000
  H   H1634     1.0  0.60739  0.27374  0.53459  1.0000
  C   C959      1.0  0.82000  0.32262  0.98163  1.0000
  H   H1635     1.0  0.74459  0.46160  0.79793  1.0000
  H   H1636     1.0  0.53533  0.32706  0.80368  1.0000
  H   H1637     1.0  0.78513  0.48126  0.77875  1.0000
  H   H1638     1.0  0.71894  0.40606  0.52395  1.0000
  H   H1639     1.0  0.55773  0.45206  0.57462  1.0000
  C   C960      1.0  0.48559  0.35531  0.70010  1.0000
  H   H1640     1.0  0.72699  0.45190  0.97390  1.0000
  C   C961      1.0  0.70951  0.43471  0.55139  1.0000
  H   H1641     1.0  0.86404  0.31030  0.63942  1.0000
  H   H1642     1.0  0.77717  0.29877  0.89699  1.0000
  H   H1643     1.0  0.64428  0.25536  0.51167  1.0000
  H   H1644     1.0  0.86733  0.31338  0.54324  1.0000
  H   H1645     1.0  0.52457  0.38509  0.60720  1.0000
  H   H1646     1.0  0.50758  0.31075  0.97618  1.0000
  S   S287      1.0  0.92964  0.26509  0.55400  1.0000
  H   H1647     1.0  0.65854  0.26335  0.95634  1.0000
  H   H1648     1.0  0.88533  0.35671  0.65064  1.0000
  H   H1649     1.0  0.76818  0.46481  0.98612  1.0000
  H   H1650     1.0  0.69866  0.48269  0.53719  1.0000
  C   C962      1.0  0.70760  0.40897  0.51132  1.0000
  C   C963      1.0  0.74793  0.26474  0.90747  1.0000
  H   H1651     1.0  0.75462  0.27458  0.88534  1.0000
  C   C964      1.0  0.70040  0.27091  0.95956  1.0000
  C   C965      1.0  0.70500  0.48325  0.51110  1.0000
  C   C966      1.0  0.88536  0.32556  0.95089  1.0000
  H   H1652     1.0  0.64465  0.27662  0.94932  1.0000
  C   C967      1.0  0.55490  0.43723  0.58022  1.0000
  H   H1653     1.0  0.89449  0.33135  0.65234  1.0000
  C   C968      1.0  0.89740  0.32562  0.91788  1.0000
  C   C969      1.0  0.83497  0.29501  0.98593  1.0000
  C   C970      1.0  0.55345  0.39552  0.61338  1.0000
  C   C971      1.0  0.89162  0.33104  0.59362  1.0000
  H   H1654     1.0  0.87735  0.31093  0.95819  1.0000
  H   H1655     1.0  0.87514  0.33130  0.94165  1.0000
  H   H1656     1.0  0.77836  0.26302  0.96135  1.0000
  S   S288      1.0  0.87940  0.25124  0.50816  1.0000
  H   H1657     1.0  0.57722  0.35683  0.96840  1.0000
  H   H1658     1.0  0.89291  0.30997  0.63243  1.0000
  C   C972      1.0  0.48442  0.28374  0.50163  1.0000
  H   H1659     1.0  0.81439  0.33337  0.97979  1.0000
  H   H1660     1.0  0.90526  0.33961  0.90708  1.0000
  H   H1661     1.0  0.90661  0.31803  0.92312  1.0000
  H   H1662     1.0  0.88843  0.31843  0.89638  1.0000
  H   H1663     1.0  0.56481  0.37094  0.95674  1.0000
  S   S289      1.0  0.67825  0.25250  0.55658  1.0000
  C   C973      1.0  0.72411  0.43262  0.57591  1.0000
  C   C974      1.0  0.60357  0.26182  0.51683  1.0000
  H   H1664     1.0  0.48494  0.31021  0.83695  1.0000
  H   H1665     1.0  0.80184  0.28940  0.90197  1.0000
  H   H1666     1.0  0.97480  0.28417  0.80583  1.0000
  H   H1667     1.0  0.49653  0.27436  0.79367  1.0000
  H   H1668     1.0  0.73316  0.26053  0.90264  1.0000
  N   N67       1.0  0.77812  0.45338  0.79984  1.0000
  C   C975      1.0  0.76372  0.44103  0.82573  1.0000
  C   C976      1.0  0.77459  0.47104  0.79574  1.0000
  C   C977      1.0  0.79645  0.45701  0.81579  1.0000
  C   C978      1.0  0.77668  0.44360  0.76526  1.0000
  C   C979      1.0  0.76655  0.42343  0.83919  1.0000
  C   C980      1.0  0.75627  0.46949  0.77996  1.0000
  C   C981      1.0  0.81236  0.47421  0.80191  1.0000
  C   C982      1.0  0.78834  0.45453  0.73293  1.0000
  H   H1669     1.0  0.76243  0.44866  0.84975  1.0000
  H   H1670     1.0  0.75010  0.43640  0.81385  1.0000
  C   C983      1.0  0.89816  0.32516  0.62862  1.0000
  H   H1671     1.0  0.77550  0.47767  0.82190  1.0000
  H   H1672     1.0  0.79561  0.45875  0.84505  1.0000
  H   H1673     1.0  0.80082  0.44504  0.81253  1.0000
  H   H1674     1.0  0.78054  0.43131  0.76887  1.0000
  H   H1675     1.0  0.76233  0.43769  0.75694  1.0000
  N   N68       1.0  0.89504  0.33569  0.98252  1.0000
  H   H1676     1.0  0.77884  0.42655  0.85531  1.0000
  C   C984      1.0  0.77029  0.29383  0.98755  1.0000
  H   H1677     1.0  0.52056  0.39297  0.66693  1.0000
  S   S290      1.0  0.49482  0.34418  0.49893  1.0000
  H   H1678     1.0  0.49667  0.41604  0.57000  1.0000
  H   H1679     1.0  0.55724  0.34175  0.92356  1.0000
  H   H1680     1.0  0.79604  0.28455  0.96564  1.0000
  C   C985      1.0  0.67863  0.43277  0.51104  1.0000
  H   H1681     1.0  0.80185  0.45309  0.73184  1.0000
  H   H1682     1.0  0.79018  0.46924  0.73165  1.0000
  H   H1683     1.0  0.78134  0.44908  0.70806  1.0000
  N   N69       1.0  0.77040  0.28652  0.95067  1.0000
  H   H1684     1.0  0.51602  0.32091  0.83372  1.0000
  C   C986      1.0  0.77588  0.30276  0.92472  1.0000
  H   H1685     1.0  0.97953  0.28200  0.85236  1.0000
  H   H1686     1.0  0.87340  0.33831  0.49980  1.0000
  Fe  Fe147     1.0  0.86942  0.26428  0.60369  1.0000
  C   C987      1.0  0.76311  0.31380  0.92384  1.0000
  H   H1687     1.0  0.91322  0.32957  0.62709  1.0000
  H   H1688     1.0  0.87683  0.35522  0.53263  1.0000
  H   H1689     1.0  0.76713  0.41441  0.81723  1.0000
  C   C988      1.0  0.70841  0.29001  0.96319  1.0000
  H   H1690     1.0  0.89281  0.34348  0.52649  1.0000
  H   H1691     1.0  0.78970  0.31253  0.93061  1.0000
  C   C989      1.0  0.75427  0.46298  0.99649  1.0000
  Fe  Fe148     1.0  0.78879  0.48503  0.91330  1.0000
  C   C990      1.0  0.74114  0.45295  0.96766  1.0000
  H   H1692     1.0  0.74102  0.27897  0.95081  1.0000
  C   C991      1.0  0.51018  0.31046  0.77938  1.0000
  C   C992      1.0  0.79264  0.27574  0.91251  1.0000
  C   C993      1.0  0.56319  0.40844  0.51331  1.0000
  H   H1693     1.0  0.76315  0.32096  0.94898  1.0000
  H   H1694     1.0  0.76803  0.32468  0.90248  1.0000
  H   H1695     1.0  0.74899  0.30518  0.91772  1.0000
  H   H1696     1.0  0.75919  0.29932  0.99115  1.0000
  H   H1697     1.0  0.71030  0.28401  0.54314  1.0000
  H   H1698     1.0  0.69617  0.42703  0.56482  1.0000
  H   H1699     1.0  0.69162  0.26542  0.93768  1.0000
  H   H1700     1.0  0.64899  0.26762  0.56870  1.0000
  C   C994      1.0  0.58226  0.42767  0.98169  1.0000
  S   S291      1.0  0.84800  0.25586  0.56258  1.0000
  Fe  Fe149     1.0  0.48633  0.35484  0.86186  1.0000
  H   H1701     1.0  0.50944  0.42327  0.62858  1.0000
  C   C995      1.0  0.72020  0.29731  0.99095  1.0000
  N   N70       1.0  0.49038  0.29913  0.78736  1.0000
  C   C996      1.0  0.52239  0.31584  0.81183  1.0000
  H   H1702     1.0  0.89809  0.30012  0.98086  1.0000
  H   H1703     1.0  0.97002  0.32996  0.52807  1.0000
  H   H1704     1.0  0.51647  0.30321  0.76102  1.0000
  C   C997      1.0  0.69672  0.48245  0.99017  1.0000
  S   S292      1.0  0.73089  0.32135  0.99314  1.0000
  C   C998      1.0  0.49569  0.25802  0.97334  1.0000
  H   H1705     1.0  0.73791  0.44228  0.56782  1.0000
  H   H1706     1.0  0.89294  0.36099  0.96100  1.0000
  H   H1707     1.0  0.90030  0.34564  0.58770  1.0000
  H   H1708     1.0  0.53085  0.39858  0.99668  1.0000
  N   N71       1.0  0.87168  0.32841  0.59192  1.0000
  H   H1709     1.0  0.85237  0.32561  0.55010  1.0000
  H   H1710     1.0  0.78299  0.30570  0.99160  1.0000
  H   H1711     1.0  0.71083  0.44940  0.55180  1.0000
  C   C999      1.0  0.86535  0.26446  0.69978  1.0000
  C   C1000     1.0  0.86661  0.32642  0.55335  1.0000
  H   H1712     1.0  0.52584  0.41522  0.71619  1.0000
  C   C1001     1.0  0.50430  0.29610  0.97525  1.0000
  H   H1713     1.0  0.75467  0.46359  0.75316  1.0000
  H   H1714     1.0  0.67160  0.41973  0.52609  1.0000
  C   C1002     1.0  0.68883  0.26369  0.51622  1.0000
  H   H1715     1.0  0.56529  0.40852  0.61374  1.0000
  C   C1003     1.0  0.98344  0.29708  0.56505  1.0000
  C   C1004     1.0  0.77865  0.40904  0.97580  1.0000
  H   H1716     1.0  0.48809  0.32518  0.79943  1.0000
  H   H1717     1.0  0.52599  0.30417  0.82199  1.0000
  C   C1005     1.0  0.91017  0.32933  0.99312  1.0000
  C   C1006     1.0  0.95600  0.28324  0.92849  1.0000
  C   C1007     1.0  0.86825  0.34492  0.60554  1.0000
  C   C1008     1.0  0.87681  0.24550  0.73727  1.0000
  C   C1009     1.0  0.86007  0.31086  0.61148  1.0000
  H   H1718     1.0  0.75485  0.41545  0.85718  1.0000
  H   H1719     1.0  0.87750  0.35766  0.59151  1.0000
  H   H1720     1.0  0.89552  0.32315  0.57264  1.0000
  S   S293      1.0  0.51864  0.30816  0.51449  1.0000
  C   C1010     1.0  0.78421  0.27717  0.94930  1.0000
  C   C1011     1.0  0.56356  0.35789  0.97121  1.0000
  C   C1012     1.0  0.70419  0.25899  0.98372  1.0000
  H   H1721     1.0  0.83267  0.29383  0.62891  1.0000
  H   H1722     1.0  0.70262  0.46518  0.95159  1.0000
  H   H1723     1.0  0.86210  0.29887  0.59909  1.0000
  H   H1724     1.0  0.51434  0.40865  0.55527  1.0000
  H   H1725     1.0  0.86234  0.35636  0.65449  1.0000
  N   N72       1.0  0.71029  0.42905  0.51343  1.0000
  H   H1726     1.0  0.96120  0.28881  0.84022  1.0000
  H   H1727     1.0  0.88088  0.24874  0.68001  1.0000
  H   H1728     1.0  0.83474  0.28566  0.53415  1.0000
  Fe  Fe150     1.0  0.89907  0.26123  0.55311  1.0000
  C   C1013     1.0  0.97531  0.29019  0.83226  1.0000
  C   C1014     1.0  0.52389  0.41921  0.68844  1.0000
  H   H1729     1.0  0.53186  0.43407  0.68453  1.0000
  H   H1730     1.0  0.53731  0.36815  0.99211  1.0000
  C   C1015     1.0  0.85815  0.26963  0.73059  1.0000
  H   H1731     1.0  0.75582  0.48351  0.77675  1.0000
  H   H1732     1.0  0.85448  0.34469  0.59884  1.0000
  H   H1733     1.0  0.49215  0.24332  0.97254  1.0000
  H   H1734     1.0  0.75184  0.25245  0.90586  1.0000
  H   H1735     1.0  0.50915  0.41658  0.68656  1.0000
  C   C1016     1.0  0.87828  0.34192  0.52713  1.0000
  C   C1017     1.0  0.79858  0.44698  0.97346  1.0000
  C   C1018     1.0  0.68978  0.39524  0.52793  1.0000
  S   S294      1.0  0.48566  0.32316  0.57881  1.0000
  H   H1736     1.0  0.54062  0.44265  0.62597  1.0000
  C   C1019     1.0  0.53586  0.39854  0.60323  1.0000
  H   H1737     1.0  0.98115  0.27802  0.92487  1.0000
  H   H1738     1.0  0.86066  0.33985  0.98563  1.0000
  H   H1739     1.0  0.53672  0.40119  0.57411  1.0000
  C   C1020     1.0  0.51111  0.41784  0.57402  1.0000
  C   C1021     1.0  0.51322  0.41309  0.61323  1.0000
  H   H1740     1.0  0.55168  0.38800  0.63945  1.0000
  H   H1741     1.0  0.56839  0.43574  0.57867  1.0000
  H   H1742     1.0  0.50251  0.39945  0.61998  1.0000
  C   C1022     1.0  0.81794  0.29992  0.51349  1.0000
  C   C1023     1.0  0.53013  0.40740  0.66253  1.0000
  H   H1743     1.0  0.63393  0.25271  0.95958  1.0000
  H   H1744     1.0  0.80634  0.46157  0.97276  1.0000
  H   H1745     1.0  0.55749  0.43328  0.63604  1.0000
  H   H1746     1.0  0.92097  0.33259  0.97168  1.0000
  H   H1747     1.0  0.59077  0.41983  0.53088  1.0000
  H   H1748     1.0  0.83622  0.31773  0.62785  1.0000
  S   S295      1.0  0.73581  0.48728  0.54697  1.0000
  C   C1024     1.0  0.63192  0.25668  0.52391  1.0000
  C   C1025     1.0  0.83947  0.30696  0.61354  1.0000
  C   C1026     1.0  0.90317  0.35586  0.97256  1.0000
  C   C1027     1.0  0.97520  0.28841  0.92847  1.0000
  C   C1028     1.0  0.48712  0.35765  0.76501  1.0000
  H   H1749     1.0  0.73360  0.48744  0.93555  1.0000
  H   H1750     1.0  0.73935  0.43521  0.51027  1.0000
  H   H1751     1.0  0.49691  0.31562  0.71338  1.0000
  C   C1029     1.0  0.86942  0.25046  0.76808  1.0000
  C   C1030     1.0  0.58105  0.42153  0.51267  1.0000
  H   H1752     1.0  0.68996  0.38113  0.52560  1.0000
  H   H1753     1.0  0.57844  0.26709  0.51149  1.0000
  H   H1754     1.0  0.82000  0.24722  0.66936  1.0000
  H   H1755     1.0  0.68110  0.44430  0.52942  1.0000
  C   C1031     1.0  0.72530  0.49069  0.95565  1.0000
  C   C1032     1.0  0.72904  0.43990  0.49796  1.0000
  Fe  Fe151     1.0  0.64908  0.51470  0.42618  1.0000
  S   S296      1.0  0.66097  0.54590  0.43106  1.0000
  S   S297      1.0  0.66071  0.50612  0.37728  1.0000
  S   S298      1.0  0.57584  0.72486  0.47700  1.0000
  C   C1033     1.0  0.82520  0.66930  0.00959  1.0000
  Fe  Fe152     1.0  0.88723  0.66597  0.36101  1.0000
  S   S299      1.0  0.89771  0.69125  0.39370  1.0000
  S   S300      1.0  0.87862  0.67159  0.30546  1.0000
  Fe  Fe153     1.0  0.88954  0.64136  0.42437  1.0000
  S   S301      1.0  0.90029  0.66529  0.46031  1.0000
  S   S302      1.0  0.88691  0.61277  0.44524  1.0000
  Fe  Fe154     1.0  0.87814  0.67398  0.43716  1.0000
  S   S303      1.0  0.85851  0.68463  0.46863  1.0000
  Fe  Fe155     1.0  0.91891  0.68032  0.41354  1.0000
  S   S304      1.0  0.95071  0.69429  0.41017  1.0000
  S   S305      1.0  0.86688  0.64935  0.40362  1.0000
  S   S306      1.0  0.90897  0.65568  0.37861  1.0000
  Fe  Fe156     1.0  0.63745  0.50465  0.03319  1.0000
  H   H1756     1.0  0.82289  0.70537  0.29669  1.0000
  H   H1757     1.0  0.76299  0.53908  0.45609  1.0000
  Fe  Fe157     1.0  0.88820  0.65169  0.09931  1.0000
  S   S307      1.0  0.88978  0.68055  0.08837  1.0000
  S   S308      1.0  0.89154  0.64091  0.15475  1.0000
  Fe  Fe158     1.0  0.88737  0.64370  0.01939  1.0000
  H   H1758     1.0  0.63240  0.56007  0.05412  1.0000
  Fe  Fe159     1.0  0.91139  0.68167  0.04657  1.0000
  S   S309      1.0  0.93879  0.70649  0.04510  1.0000
  Fe  Fe160     1.0  0.86851  0.66856  0.04704  1.0000
  S   S310      1.0  0.84163  0.67388  0.04358  1.0000
  S   S311      1.0  0.91004  0.65292  0.05816  1.0000
  S   S312      1.0  0.86549  0.63944  0.06146  1.0000
  C   C1034     1.0  0.51118  0.70603  0.13242  1.0000
  H   H1759     1.0  0.51561  0.65394  0.19276  1.0000
  H   H1760     1.0  0.52297  0.71917  0.13197  1.0000
  H   H1761     1.0  0.54313  0.73788  0.01450  1.0000
  H   H1762     1.0  0.49940  0.71443  0.48730  1.0000
  H   H1763     1.0  0.65350  0.50501  0.28642  1.0000
  C   C1035     1.0  0.52372  0.69826  0.44845  1.0000
  H   H1764     1.0  0.64684  0.56091  0.16471  1.0000
  C   C1036     1.0  0.52698  0.67594  0.13606  1.0000
  H   H1765     1.0  0.96970  0.74047  0.04587  1.0000
  H   H1766     1.0  0.84795  0.56380  0.02004  1.0000
  H   H1767     1.0  0.65448  0.55741  0.08452  1.0000
  S   S313      1.0  0.89020  0.67277  0.00413  1.0000
  H   H1768     1.0  0.51164  0.69926  0.10710  1.0000
  H   H1769     1.0  0.86637  0.59689  0.02559  1.0000
  H   H1770     1.0  0.63746  0.52942  0.17230  1.0000
  C   C1037     1.0  0.96292  0.71117  0.04474  1.0000
  C   C1038     1.0  0.97508  0.72954  0.04501  1.0000
  H   H1771     1.0  0.98237  0.72265  0.12309  1.0000
  C   C1039     1.0  0.97033  0.69731  0.04376  1.0000
  H   H1772     1.0  0.82860  0.63177  0.01647  1.0000
  C   C1040     1.0  0.96895  0.71870  0.13742  1.0000
  H   H1773     1.0  0.68978  0.64394  0.44331  1.0000
  H   H1774     1.0  0.83490  0.66357  0.39134  1.0000
  N   N73       1.0  0.51134  0.67545  0.16055  1.0000
  H   H1775     1.0  0.66702  0.51003  0.22480  1.0000
  H   H1776     1.0  0.92882  0.61987  0.43857  1.0000
  H   H1777     1.0  0.91597  0.69039  0.21382  1.0000
  H   H1778     1.0  0.67845  0.54702  0.10495  1.0000
  C   C1041     1.0  0.51603  0.68575  0.47681  1.0000
  H   H1779     1.0  0.93002  0.70011  0.25014  1.0000
  H   H1780     1.0  0.67314  0.54270  0.03737  1.0000
  H   H1781     1.0  0.52570  0.67615  0.20924  1.0000
  C   C1042     1.0  0.49058  0.64366  0.14012  1.0000
  H   H1782     1.0  0.60463  0.53594  0.11063  1.0000
  C   C1043     1.0  0.97348  0.70912  0.42057  1.0000
  H   H1783     1.0  0.54624  0.70435  0.14050  1.0000
  S   S314      1.0  0.81016  0.55320  0.49682  1.0000
  C   C1044     1.0  0.79577  0.66227  0.48935  1.0000
  H   H1784     1.0  0.84564  0.71414  0.27901  1.0000
  H   H1785     1.0  0.64529  0.64351  0.43900  1.0000
  C   C1045     1.0  0.66715  0.54640  0.12379  1.0000
  H   H1786     1.0  0.96511  0.66760  0.44032  1.0000
  C   C1046     1.0  0.88248  0.66291  0.26390  1.0000
  C   C1047     1.0  0.87754  0.66982  0.23247  1.0000
  C   C1048     1.0  0.88024  0.66330  0.19888  1.0000
  C   C1049     1.0  0.88774  0.64959  0.19636  1.0000
  C   C1050     1.0  0.89266  0.64268  0.22779  1.0000
  C   C1051     1.0  0.89014  0.64933  0.26135  1.0000
  H   H1787     1.0  0.87159  0.68030  0.23409  1.0000
  H   H1788     1.0  0.87636  0.66874  0.17499  1.0000
  H   H1789     1.0  0.89842  0.63204  0.22617  1.0000
  H   H1790     1.0  0.89393  0.64382  0.28525  1.0000
  C   C1052     1.0  0.86555  0.59627  0.45977  1.0000
  C   C1053     1.0  0.85001  0.60087  0.46297  1.0000
  H   H1791     1.0  0.50754  0.73542  0.44025  1.0000
  H   H1792     1.0  0.93618  0.64336  0.15041  1.0000
  C   C1054     1.0  0.81203  0.60193  0.01803  1.0000
  H   H1793     1.0  0.67194  0.55914  0.13903  1.0000
  H   H1794     1.0  0.61866  0.55499  0.19237  1.0000
  C   C1055     1.0  0.92851  0.69102  0.22718  1.0000
  C   C1056     1.0  0.51337  0.66712  0.19608  1.0000
  H   H1795     1.0  0.82132  0.59123  0.47659  1.0000
  H   H1796     1.0  0.82357  0.62114  0.05980  1.0000
  H   H1797     1.0  0.65827  0.59845  0.48442  1.0000
  H   H1798     1.0  0.62005  0.56836  0.08667  1.0000
  C   C1057     1.0  0.64569  0.49765  0.26471  1.0000
  C   C1058     1.0  0.54199  0.71020  0.44920  1.0000
  H   H1799     1.0  0.92566  0.64109  0.43879  1.0000
  C   C1059     1.0  0.96537  0.63481  0.46084  1.0000
  H   H1800     1.0  0.69905  0.52593  0.41544  1.0000
  H   H1801     1.0  0.82901  0.70700  0.37691  1.0000
  H   H1802     1.0  0.83779  0.64072  0.34951  1.0000
  C   C1060     1.0  0.67081  0.55919  0.46795  1.0000
  C   C1061     1.0  0.68205  0.57767  0.46176  1.0000
  H   H1803     1.0  0.80645  0.68725  0.34103  1.0000
  H   H1804     1.0  0.85736  0.71618  0.41026  1.0000
  C   C1062     1.0  0.80437  0.65138  0.47273  1.0000
  C   C1063     1.0  0.82570  0.68640  0.49289  1.0000
  H   H1805     1.0  0.68495  0.58320  0.43470  1.0000
  H   H1806     1.0  0.85588  0.69547  0.31892  1.0000
  C   C1064     1.0  0.67701  0.63220  0.45007  1.0000
  C   C1065     1.0  0.92521  0.70933  0.14520  1.0000
  H   H1807     1.0  0.60709  0.55554  0.15164  1.0000
  H   H1808     1.0  0.62213  0.57617  0.16779  1.0000
  C   C1066     1.0  0.94451  0.63984  0.39811  1.0000
  C   C1067     1.0  0.74800  0.69973  0.00007  1.0000
  H   H1809     1.0  0.50025  0.65673  0.24784  1.0000
  H   H1810     1.0  0.74032  0.52469  0.44706  1.0000
  H   H1811     1.0  0.49004  0.63649  0.16612  1.0000
  S   S315      1.0  0.65365  0.49367  0.46254  1.0000
  H   H1812     1.0  0.64282  0.57241  0.12732  1.0000
  H   H1813     1.0  0.87604  0.57442  0.46597  1.0000
  C   C1068     1.0  0.60915  0.51615  0.16167  1.0000
  C   C1069     1.0  0.55265  0.71017  0.47866  1.0000
  H   H1814     1.0  0.97121  0.72699  0.16154  1.0000
  H   H1815     1.0  0.95225  0.60922  0.43180  1.0000
  H   H1816     1.0  0.83696  0.68157  0.29590  1.0000
  H   H1817     1.0  0.94554  0.66728  0.46488  1.0000
  H   H1818     1.0  0.49306  0.66969  0.11662  1.0000
  H   H1819     1.0  0.66809  0.63070  0.42714  1.0000
  H   H1820     1.0  0.78046  0.66435  0.99980  1.0000
  C   C1070     1.0  0.93637  0.63497  0.43642  1.0000
  H   H1821     1.0  0.68075  0.61988  0.45319  1.0000
  H   H1822     1.0  0.94971  0.65488  0.39245  1.0000
  H   H1823     1.0  0.97301  0.61108  0.45190  1.0000
  H   H1824     1.0  0.62286  0.62802  0.43187  1.0000
  H   H1825     1.0  0.93359  0.63364  0.37911  1.0000
  C   C1071     1.0  0.52428  0.69592  0.00241  1.0000
  H   H1826     1.0  0.52276  0.70247  0.18261  1.0000
  H   H1827     1.0  0.74445  0.55836  0.44779  1.0000
  H   H1828     1.0  0.62373  0.60735  0.48073  1.0000
  S   S316      1.0  0.66178  0.50236  0.05902  1.0000
  C   C1072     1.0  0.51113  0.69441  0.16640  1.0000
  C   C1073     1.0  0.81120  0.67579  0.34760  1.0000
  C   C1074     1.0  0.65029  0.54489  0.10221  1.0000
  C   C1075     1.0  0.84088  0.69162  0.31749  1.0000
  C   C1076     1.0  0.62007  0.56141  0.16524  1.0000
  H   H1829     1.0  0.52791  0.73959  0.46515  1.0000
  H   H1830     1.0  0.80549  0.65731  0.39596  1.0000
  C   C1077     1.0  0.83114  0.65037  0.34069  1.0000
  H   H1831     1.0  0.80618  0.62588  0.03695  1.0000
  C   C1078     1.0  0.49384  0.66423  0.14387  1.0000
  C   C1079     1.0  0.95687  0.66195  0.46523  1.0000
  H   H1832     1.0  0.83469  0.65337  0.31194  1.0000
  C   C1080     1.0  0.80733  0.66812  0.01854  1.0000
  H   H1833     1.0  0.60307  0.52543  0.17382  1.0000
  H   H1834     1.0  0.75248  0.71022  0.05469  1.0000
  H   H1835     1.0  0.95532  0.63429  0.39206  1.0000
  H   H1836     1.0  0.85086  0.61472  0.45640  1.0000
  H   H1837     1.0  0.92683  0.67723  0.23847  1.0000
  H   H1838     1.0  0.79662  0.67549  0.39864  1.0000
  H   H1839     1.0  0.50088  0.64155  0.12188  1.0000
  H   H1840     1.0  0.72251  0.53997  0.41384  1.0000
  H   H1841     1.0  0.96137  0.68312  0.04414  1.0000
  C   C1081     1.0  0.74875  0.53395  0.46694  1.0000
  H   H1842     1.0  0.63281  0.51523  0.13510  1.0000
  C   C1082     1.0  0.82344  0.65787  0.46639  1.0000
  H   H1843     1.0  0.97378  0.68621  0.49185  1.0000
  H   H1844     1.0  0.81630  0.64301  0.34473  1.0000
  C   C1083     1.0  0.62015  0.55624  0.07201  1.0000
  H   H1845     1.0  0.58111  0.73609  0.01996  1.0000
  H   H1846     1.0  0.80732  0.66690  0.32416  1.0000
  H   H1847     1.0  0.93626  0.72124  0.15509  1.0000
  C   C1084     1.0  0.84732  0.56475  0.47990  1.0000
  H   H1848     1.0  0.95515  0.66146  0.13033  1.0000
  H   H1849     1.0  0.52444  0.67848  0.10780  1.0000
  C   C1085     1.0  0.86414  0.57817  0.46860  1.0000
  H   H1850     1.0  0.82349  0.59696  0.02194  1.0000
  H   H1851     1.0  0.49875  0.70961  0.13260  1.0000
  H   H1852     1.0  0.78627  0.65576  0.37163  1.0000
  H   H1853     1.0  0.51573  0.69845  0.42556  1.0000
  H   H1854     1.0  0.82975  0.68983  0.40745  1.0000
  H   H1855     1.0  0.84118  0.71997  0.32291  1.0000
  H   H1856     1.0  0.93206  0.65951  0.12103  1.0000
  C   C1086     1.0  0.63648  0.55975  0.14445  1.0000
  S   S317      1.0  0.51045  0.68121  0.03694  1.0000
  N   N74       1.0  0.83142  0.68300  0.35232  1.0000
  H   H1857     1.0  0.97443  0.64227  0.43790  1.0000
  C   C1087     1.0  0.83725  0.70873  0.30379  1.0000
  H   H1858     1.0  0.66486  0.53431  0.14184  1.0000
  H   H1859     1.0  0.85316  0.67277  0.36057  1.0000
  H   H1860     1.0  0.67961  0.49532  0.28805  1.0000
  C   C1088     1.0  0.83808  0.66781  0.36279  1.0000
  H   H1861     1.0  0.73025  0.70717  0.03796  1.0000
  H   H1862     1.0  0.70518  0.54956  0.42478  1.0000
  H   H1863     1.0  0.54972  0.68806  0.17199  1.0000
  C   C1089     1.0  0.67260  0.55352  0.01953  1.0000
  C   C1090     1.0  0.96032  0.61402  0.45573  1.0000
  C   C1091     1.0  0.70983  0.53224  0.46800  1.0000
  C   C1092     1.0  0.83326  0.58751  0.47450  1.0000
  H   H1864     1.0  0.54794  0.71949  0.42671  1.0000
  C   C1093     1.0  0.49748  0.66353  0.22355  1.0000
  H   H1865     1.0  0.92300  0.71314  0.11749  1.0000
  H   H1866     1.0  0.52848  0.66229  0.13617  1.0000
  H   H1867     1.0  0.86277  0.71639  0.36376  1.0000
  C   C1094     1.0  0.83431  0.67548  0.47638  1.0000
  H   H1868     1.0  0.48434  0.65424  0.21383  1.0000
  H   H1869     1.0  0.54881  0.69271  0.02014  1.0000
  H   H1870     1.0  0.82972  0.64915  0.45397  1.0000
  H   H1871     1.0  0.48787  0.62846  0.44477  1.0000
  C   C1095     1.0  0.63702  0.61701  0.46976  1.0000
  S   S318      1.0  0.63720  0.53112  0.00693  1.0000
  H   H1872     1.0  0.80176  0.72244  0.01344  1.0000
  H   H1873     1.0  0.75315  0.55973  0.49083  1.0000
  H   H1874     1.0  0.91244  0.70757  0.16052  1.0000
  N   N75       1.0  0.63311  0.54267  0.12358  1.0000
  H   H1875     1.0  0.86324  0.69792  0.39316  1.0000
  H   H1876     1.0  0.80373  0.66949  0.04600  1.0000
  N   N76       1.0  0.72399  0.54584  0.48972  1.0000
  H   H1877     1.0  0.61717  0.52786  0.08045  1.0000
  H   H1878     1.0  0.64796  0.53314  0.08428  1.0000
  H   H1879     1.0  0.49889  0.69362  0.18272  1.0000
  H   H1880     1.0  0.69958  0.57187  0.03079  1.0000
  C   C1096     1.0  0.62901  0.52600  0.14830  1.0000
  C   C1097     1.0  0.70943  0.53755  0.42835  1.0000
  C   C1098     1.0  0.85596  0.70732  0.38697  1.0000
  S   S319      1.0  0.49331  0.66997  0.47650  1.0000
  C   C1099     1.0  0.68952  0.58907  0.49024  1.0000
  H   H1881     1.0  0.91560  0.68020  0.15460  1.0000
  H   H1882     1.0  0.96551  0.72316  0.46267  1.0000
  C   C1100     1.0  0.61822  0.53974  0.09732  1.0000
  H   H1883     1.0  0.74418  0.58811  0.49663  1.0000
  C   C1101     1.0  0.78683  0.71523  0.01702  1.0000
  H   H1884     1.0  0.60875  0.50565  0.18249  1.0000
  C   C1102     1.0  0.83177  0.56937  0.48291  1.0000
  H   H1885     1.0  0.72077  0.56948  0.46382  1.0000
  C   C1103     1.0  0.74282  0.55044  0.47345  1.0000
  H   H1886     1.0  0.93040  0.68783  0.11682  1.0000
  H   H1887     1.0  0.77432  0.73534  0.02191  1.0000
  H   H1888     1.0  0.60058  0.50861  0.13995  1.0000
  H   H1889     1.0  0.69820  0.60323  0.48507  1.0000
  C   C1104     1.0  0.54572  0.69007  0.14461  1.0000
  C   C1105     1.0  0.79937  0.66567  0.38048  1.0000
  H   H1890     1.0  0.64087  0.60951  0.44797  1.0000
  C   C1106     1.0  0.83562  0.69675  0.38138  1.0000
  H   H1891     1.0  0.55613  0.68837  0.12600  1.0000
  C   C1107     1.0  0.71995  0.56326  0.49101  1.0000
  H   H1892     1.0  0.49611  0.67647  0.23222  1.0000
  S   S320      1.0  0.65389  0.49470  0.15805  1.0000
  H   H1893     1.0  0.69511  0.50263  0.02676  1.0000
  C   C1108     1.0  0.74138  0.70160  0.03824  1.0000
  H   H1894     1.0  0.71136  0.51865  0.46912  1.0000
  N   N77       1.0  0.94410  0.68975  0.16660  1.0000
  C   C1109     1.0  0.94090  0.66971  0.17433  1.0000
  C   C1110     1.0  0.94551  0.69872  0.20211  1.0000
  C   C1111     1.0  0.96195  0.69790  0.14585  1.0000
  C   C1112     1.0  0.92863  0.69097  0.14511  1.0000
  C   C1113     1.0  0.94119  0.65810  0.14180  1.0000
  H   H1895     1.0  0.79622  0.63772  0.46487  1.0000
  C   C1114     1.0  0.54306  0.69931  0.00071  1.0000
  H   H1896     1.0  0.95110  0.66819  0.19293  1.0000
  H   H1897     1.0  0.92743  0.66268  0.18800  1.0000
  H   H1898     1.0  0.94863  0.71367  0.19932  1.0000
  H   H1899     1.0  0.95717  0.69750  0.21675  1.0000
  C   C1115     1.0  0.63310  0.63330  0.45256  1.0000
  H   H1900     1.0  0.96114  0.69154  0.11946  1.0000
  H   H1901     1.0  0.60836  0.55233  0.05435  1.0000
  C   C1116     1.0  0.65690  0.55116  0.00070  1.0000
  C   C1117     1.0  0.81793  0.62136  0.03309  1.0000
  H   H1902     1.0  0.74584  0.73364  0.00679  1.0000
  C   C1118     1.0  0.97684  0.72190  0.44759  1.0000
  H   H1903     1.0  0.80082  0.59322  0.03651  1.0000
  N   N78       1.0  0.94963  0.64127  0.46585  1.0000
  H   H1904     1.0  0.97289  0.69493  0.16007  1.0000
  H   H1905     1.0  0.84631  0.55077  0.48558  1.0000
  H   H1906     1.0  0.75483  0.68961  0.00175  1.0000
  H   H1907     1.0  0.66687  0.64982  0.48079  1.0000
  H   H1908     1.0  0.78410  0.71368  0.04627  1.0000
  H   H1909     1.0  0.78384  0.70153  0.00588  1.0000
  H   H1910     1.0  0.95296  0.60577  0.47947  1.0000
  H   H1911     1.0  0.69593  0.52970  0.47928  1.0000
  H   H1912     1.0  0.95997  0.72244  0.11904  1.0000
  H   H1913     1.0  0.73562  0.68775  0.05146  1.0000
  S   S321      1.0  0.62017  0.49650  0.41512  1.0000
  H   H1914     1.0  0.62722  0.64023  0.47211  1.0000
  C   C1119     1.0  0.68763  0.57004  0.01558  1.0000
  H   H1915     1.0  0.74862  0.52609  0.49196  1.0000
  C   C1120     1.0  0.66852  0.63633  0.48475  1.0000
  C   C1121     1.0  0.65324  0.50055  0.22971  1.0000
  H   H1916     1.0  0.80617  0.56625  0.01321  1.0000
  H   H1917     1.0  0.72586  0.52486  0.01063  1.0000
  S   S322      1.0  0.78307  0.49946  0.49280  1.0000
  H   H1918     1.0  0.94370  0.65604  0.01210  1.0000
  H   H1919     1.0  0.68744  0.49367  0.33199  1.0000
  C   C1122     1.0  0.70336  0.49929  0.00674  1.0000
  H   H1920     1.0  0.91331  0.63626  0.49389  1.0000
  H   H1921     1.0  0.97418  0.63811  0.48427  1.0000
  H   H1922     1.0  0.94965  0.63723  0.99829  1.0000
  C   C1123     1.0  0.86281  0.59134  0.99955  1.0000
  S   S323      1.0  0.77151  0.65316  0.49648  1.0000
  C   C1124     1.0  0.96911  0.67105  0.49605  1.0000
  C   C1125     1.0  0.77705  0.72726  0.99989  1.0000
  C   C1126     1.0  0.72085  0.51182  0.99775  1.0000
  H   H1923     1.0  0.98147  0.66745  0.49687  1.0000
  Fe  Fe161     1.0  0.71294  0.66632  0.54237  1.0000
  S   S324      1.0  0.70343  0.64734  0.59068  1.0000
  H   H1924     1.0  0.96584  0.66356  0.95976  1.0000
  Fe  Fe162     1.0  0.74755  0.65555  0.53068  1.0000
  S   S325      1.0  0.73945  0.63620  0.57876  1.0000
  C   C1127     1.0  0.67439  0.56369  0.53158  1.0000
  Fe  Fe163     1.0  0.71108  0.62687  0.55882  1.0000
  Fe  Fe164     1.0  0.73260  0.65832  0.60608  1.0000
  S   S326      1.0  0.74310  0.66886  0.66046  1.0000
  S   S327      1.0  0.74220  0.67853  0.55910  1.0000
  Fe  Fe165     1.0  0.80200  0.52398  0.52037  1.0000
  S   S328      1.0  0.78398  0.51936  0.56977  1.0000
  C   C1128     1.0  0.84610  0.56908  0.63965  1.0000
  Fe  Fe166     1.0  0.71826  0.66697  0.92226  1.0000
  S   S329      1.0  0.69916  0.63895  0.90813  1.0000
  S   S330      1.0  0.71169  0.69347  0.92627  1.0000
  Fe  Fe167     1.0  0.75199  0.65474  0.91975  1.0000
  S   S331      1.0  0.73484  0.62642  0.90329  1.0000
  S   S332      1.0  0.78290  0.66127  0.92171  1.0000
  Fe  Fe168     1.0  0.72094  0.64012  0.86691  1.0000
  S   S333      1.0  0.71154  0.63011  0.81169  1.0000
  Fe  Fe169     1.0  0.71475  0.62763  0.94567  1.0000
  H   H1925     1.0  0.86345  0.53005  0.56919  1.0000
  S   S334      1.0  0.73950  0.66841  0.87960  1.0000
  S   S335      1.0  0.73241  0.65566  0.96349  1.0000
  C   C1129     1.0  0.85920  0.59824  0.58634  1.0000
  Fe  Fe170     1.0  0.81403  0.52481  0.92480  1.0000
  S   S336      1.0  0.83720  0.54080  0.95988  1.0000
  S   S337      1.0  0.79558  0.53682  0.89782  1.0000
  H   H1926     1.0  0.93336  0.61821  0.49990  1.0000
  C   C1130     1.0  0.80662  0.67992  0.49917  1.0000
  H   H1927     1.0  0.63592  0.59343  0.55483  1.0000
  H   H1928     1.0  0.78991  0.55149  0.98479  1.0000
  H   H1929     1.0  0.80306  0.55966  0.57633  1.0000
  C   C1131     1.0  0.83501  0.55410  0.66734  1.0000
  S   S338      1.0  0.60600  0.72946  0.56919  1.0000
  H   H1930     1.0  0.66691  0.60822  0.52520  1.0000
  S   S339      1.0  0.70683  0.60455  0.98816  1.0000
  H   H1931     1.0  0.79901  0.70861  0.60505  1.0000
  C   C1132     1.0  0.82778  0.66947  0.60729  1.0000
  H   H1932     1.0  0.77540  0.66483  0.69273  1.0000
  C   C1133     1.0  0.72325  0.53731  0.52646  1.0000
  S   S340      1.0  0.76834  0.49455  0.88651  1.0000
  H   H1933     1.0  0.73089  0.70983  0.81681  1.0000
  H   H1934     1.0  0.78010  0.63494  0.64613  1.0000
  H   H1935     1.0  0.69491  0.65837  0.84275  1.0000
  C   C1134     1.0  0.85470  0.54804  0.60257  1.0000
  H   H1936     1.0  0.67119  0.55826  0.55866  1.0000
  H   H1937     1.0  0.77553  0.69832  0.90943  1.0000
  C   C1135     1.0  0.86959  0.60254  0.96904  1.0000
  C   C1136     1.0  0.79025  0.65629  0.58562  1.0000
  C   C1137     1.0  0.84794  0.56496  0.96270  1.0000
  C   C1138     1.0  0.85394  0.57640  0.93223  1.0000
  C   C1139     1.0  0.86493  0.59503  0.93541  1.0000
  H   H1938     1.0  0.85093  0.57067  0.90619  1.0000
  H   H1939     1.0  0.87014  0.60356  0.91164  1.0000
  C   C1140     1.0  0.69128  0.69860  0.92446  1.0000
  C   C1141     1.0  0.69261  0.71702  0.91954  1.0000
  C   C1142     1.0  0.67692  0.72182  0.91821  1.0000
  C   C1143     1.0  0.65954  0.70826  0.92223  1.0000
  C   C1144     1.0  0.65825  0.68984  0.92695  1.0000
  C   C1145     1.0  0.67392  0.68502  0.92795  1.0000
  H   H1940     1.0  0.79303  0.65527  0.69853  1.0000
  H   H1941     1.0  0.70568  0.56046  0.49993  1.0000
  H   H1942     1.0  0.64495  0.67920  0.93028  1.0000
  H   H1943     1.0  0.67253  0.67083  0.93212  1.0000
  C   C1146     1.0  0.79862  0.66384  0.95654  1.0000
  C   C1147     1.0  0.81647  0.66498  0.94762  1.0000
  Fe  Fe171     1.0  0.79896  0.50205  0.59132  1.0000
  C   C1148     1.0  0.86093  0.54312  0.56609  1.0000
  H   H1944     1.0  0.82021  0.66401  0.92007  1.0000
  H   H1945     1.0  0.62415  0.69390  0.70590  1.0000
  H   H1946     1.0  0.72033  0.50928  0.87017  1.0000
  H   H1947     1.0  0.77525  0.62650  0.58770  1.0000
  H   H1948     1.0  0.84044  0.54288  0.67023  1.0000
  C   C1149     1.0  0.67186  0.58167  0.97245  1.0000
  C   C1150     1.0  0.60123  0.70564  0.66343  1.0000
  H   H1949     1.0  0.84329  0.66862  0.96640  1.0000
  H   H1950     1.0  0.97663  0.69120  0.87329  1.0000
  H   H1951     1.0  0.82040  0.54832  0.66124  1.0000
  S   S341      1.0  0.78588  0.52031  0.79892  1.0000
  H   H1952     1.0  0.70343  0.67261  0.73290  1.0000
  C   C1151     1.0  0.78305  0.51558  0.72673  1.0000
  C   C1152     1.0  0.71750  0.70016  0.82722  1.0000
  C   C1153     1.0  0.68322  0.69565  0.53288  1.0000
  C   C1154     1.0  0.66816  0.72310  0.54858  1.0000
  H   H1953     1.0  0.65966  0.70057  0.67413  1.0000
  H   H1954     1.0  0.92794  0.63765  0.98765  1.0000
  H   H1955     1.0  0.66417  0.52626  0.91760  1.0000
  H   H1956     1.0  0.78065  0.57745  0.99232  1.0000
  C   C1155     1.0  0.73418  0.65780  0.70222  1.0000
  C   C1156     1.0  0.71941  0.64119  0.70488  1.0000
  C   C1157     1.0  0.71281  0.63284  0.73858  1.0000
  C   C1158     1.0  0.72090  0.64092  0.76996  1.0000
  C   C1159     1.0  0.73569  0.65753  0.76730  1.0000
  C   C1160     1.0  0.74223  0.66593  0.73360  1.0000
  H   H1957     1.0  0.71308  0.63476  0.68099  1.0000
  H   H1958     1.0  0.70134  0.62001  0.74035  1.0000
  H   H1959     1.0  0.74206  0.66389  0.79120  1.0000
  H   H1960     1.0  0.75366  0.67879  0.73184  1.0000
  C   C1161     1.0  0.85870  0.57875  0.57816  1.0000
  C   C1162     1.0  0.67029  0.52045  0.93871  1.0000
  H   H1961     1.0  0.62302  0.70414  0.76753  1.0000
  H   H1962     1.0  0.66134  0.51827  0.96294  1.0000
  H   H1963     1.0  0.64823  0.63710  0.58450  1.0000
  H   H1964     1.0  0.63110  0.72771  0.75345  1.0000
  H   H1965     1.0  0.84480  0.53498  0.61454  1.0000
  C   C1163     1.0  0.82783  0.55483  0.58765  1.0000
  N   N79       1.0  0.84664  0.56295  0.60197  1.0000
  H   H1966     1.0  0.81949  0.54240  0.60375  1.0000
  C   C1164     1.0  0.78848  0.51193  0.69256  1.0000
  H   H1967     1.0  0.78906  0.70788  0.94612  1.0000
  H   H1968     1.0  0.70898  0.69702  0.77310  1.0000
  C   C1165     1.0  0.97223  0.68673  0.90136  1.0000
  H   H1969     1.0  0.97611  0.69932  0.91711  1.0000
  C   C1166     1.0  0.62338  0.71363  0.74482  1.0000
  H   H1970     1.0  0.78705  0.73748  0.98136  1.0000
  S   S342      1.0  0.75330  0.52400  0.96046  1.0000
  H   H1971     1.0  0.91976  0.64581  0.92963  1.0000
  C   C1167     1.0  0.73271  0.57867  0.51345  1.0000
  N   N80       1.0  0.49968  0.73816  0.51749  1.0000
  C   C1168     1.0  0.80390  0.69693  0.60357  1.0000
  C   C1169     1.0  0.81577  0.50998  0.71707  1.0000
  H   H1972     1.0  0.49795  0.71685  0.88377  1.0000
  C   C1170     1.0  0.51314  0.73800  0.54514  1.0000
  H   H1973     1.0  0.64204  0.64219  0.52215  1.0000
  C   C1171     1.0  0.52670  0.68560  0.50622  1.0000
  C   C1172     1.0  0.81688  0.56761  0.58534  1.0000
  Fe  Fe172     1.0  0.62876  0.73738  0.91168  1.0000
  H   H1974     1.0  0.79074  0.63463  0.55045  1.0000
  H   H1975     1.0  0.75077  0.70724  0.92909  1.0000
  H   H1976     1.0  0.63125  0.69820  0.64394  1.0000
  C   C1173     1.0  0.68851  0.66637  0.73802  1.0000
  H   H1977     1.0  0.96173  0.66773  0.52223  1.0000
  H   H1978     1.0  0.73643  0.57433  0.96071  1.0000
  H   H1979     1.0  0.68527  0.71413  0.81720  1.0000
  N   N81       1.0  0.75969  0.71741  0.98109  1.0000
  C   C1174     1.0  0.77957  0.65299  0.68730  1.0000
  H   H1980     1.0  0.76525  0.64705  0.63822  1.0000
  N   N82       1.0  0.94312  0.67012  0.93993  1.0000
  C   C1175     1.0  0.61758  0.72328  0.66997  1.0000
  H   H1981     1.0  0.53301  0.72539  0.55706  1.0000
  C   C1176     1.0  0.92285  0.66021  0.93802  1.0000
  S   S343      1.0  0.81823  0.50819  0.54340  1.0000
  C   C1177     1.0  0.64116  0.71222  0.64818  1.0000
  C   C1178     1.0  0.82228  0.60315  0.95468  1.0000
  S   S344      1.0  0.69270  0.67886  0.51986  1.0000
  C   C1179     1.0  0.94272  0.70267  0.95299  1.0000
  C   C1180     1.0  0.55446  0.71096  0.97371  1.0000
  H   H1982     1.0  0.48973  0.73811  0.84254  1.0000
  H   H1983     1.0  0.78911  0.57765  0.94796  1.0000
  C   C1181     1.0  0.91244  0.66830  0.91250  1.0000
  H   H1984     1.0  0.66843  0.64482  0.55723  1.0000
  C   C1182     1.0  0.48644  0.72140  0.88998  1.0000
  C   C1183     1.0  0.72209  0.56548  0.95663  1.0000
  H   H1985     1.0  0.84409  0.62469  0.92580  1.0000
  H   H1986     1.0  0.78000  0.51139  0.67011  1.0000
  H   H1987     1.0  0.52263  0.72241  0.93042  1.0000
  C   C1184     1.0  0.51703  0.70443  0.97693  1.0000
  H   H1988     1.0  0.86673  0.55179  0.61973  1.0000
  H   H1989     1.0  0.80029  0.68867  0.51123  1.0000
  C   C1185     1.0  0.95151  0.67612  0.90313  1.0000
  H   H1990     1.0  0.72037  0.69190  0.84902  1.0000
  H   H1991     1.0  0.70593  0.51231  0.92705  1.0000
  H   H1992     1.0  0.56882  0.71324  0.97241  1.0000
  C   C1186     1.0  0.95114  0.65664  0.95477  1.0000
  H   H1993     1.0  0.82297  0.57877  0.56499  1.0000
  H   H1994     1.0  0.94539  0.68499  0.88912  1.0000
  H   H1995     1.0  0.89764  0.66053  0.91693  1.0000
  H   H1996     1.0  0.77154  0.72640  0.92802  1.0000
  C   C1187     1.0  0.66735  0.69588  0.51670  1.0000
  S   S345      1.0  0.79166  0.50405  0.95838  1.0000
  C   C1188     1.0  0.72117  0.52316  0.87824  1.0000
  H   H1997     1.0  0.77868  0.59832  0.92691  1.0000
  C   C1189     1.0  0.78893  0.63638  0.57939  1.0000
  H   H1998     1.0  0.52089  0.67595  0.52825  1.0000
  H   H1999     1.0  0.67840  0.69326  0.77211  1.0000
  H   H2000     1.0  0.61942  0.73212  0.64555  1.0000
  C   C1190     1.0  0.70495  0.52111  0.90409  1.0000
  H   H2001     1.0  0.58914  0.70949  0.65910  1.0000
  H   H2002     1.0  0.71004  0.70850  0.83829  1.0000
  C   C1191     1.0  0.82961  0.66754  0.97390  1.0000
  C   C1192     1.0  0.65660  0.56531  0.97719  1.0000
  H   H2003     1.0  0.67148  0.59245  0.95427  1.0000
  H   H2004     1.0  0.95250  0.71514  0.96472  1.0000
  Fe  Fe173     1.0  0.59527  0.73903  0.52036  1.0000
  H   H2005     1.0  0.69073  0.73340  0.58324  1.0000
  H   H2006     1.0  0.91619  0.65905  0.96487  1.0000
  H   H2007     1.0  0.82934  0.68223  0.59201  1.0000
  H   H2008     1.0  0.81162  0.65055  0.64752  1.0000
  H   H2009     1.0  0.71503  0.57463  0.94767  1.0000
  C   C1193     1.0  0.68741  0.58414  0.99187  1.0000
  H   H2010     1.0  0.85513  0.57625  0.54977  1.0000
  H   H2011     1.0  0.69033  0.67663  0.86176  1.0000
  H   H2012     1.0  0.66111  0.67627  0.79658  1.0000
  H   H2013     1.0  0.66177  0.70107  0.82842  1.0000
  H   H2014     1.0  0.83578  0.56027  0.69387  1.0000
  H   H2015     1.0  0.64347  0.57737  0.53280  1.0000
  H   H2016     1.0  0.81812  0.59842  0.92744  1.0000
  H   H2017     1.0  0.91571  0.66654  0.88426  1.0000
  C   C1194     1.0  0.49006  0.71944  0.50271  1.0000
  C   C1195     1.0  0.68587  0.66651  0.84061  1.0000
  H   H2018     1.0  0.55296  0.69753  0.52996  1.0000
  Fe  Fe174     1.0  0.77329  0.51510  0.92909  1.0000
  N   N83       1.0  0.80615  0.59981  0.97982  1.0000
  C   C1196     1.0  0.93989  0.63340  0.50084  1.0000
  C   C1197     1.0  0.52843  0.71609  0.95004  1.0000
  H   H2019     1.0  0.70723  0.55000  0.55834  1.0000
  H   H2020     1.0  0.73834  0.57352  0.53619  1.0000
  H   H2021     1.0  0.66094  0.68566  0.49748  1.0000
  H   H2022     1.0  0.80058  0.61543  0.91295  1.0000
  H   H2023     1.0  0.86705  0.60336  0.61047  1.0000
  S   S346      1.0  0.56093  0.73474  0.91430  1.0000
  H   H2024     1.0  0.92952  0.65531  0.51591  1.0000
  H   H2025     1.0  0.67856  0.69702  0.85297  1.0000
  C   C1198     1.0  0.79385  0.51633  0.75633  1.0000
  H   H2026     1.0  0.91465  0.68283  0.91713  1.0000
  C   C1199     1.0  0.79078  0.68065  0.62605  1.0000
  H   H2027     1.0  0.96188  0.69089  0.97213  1.0000
  H   H2028     1.0  0.59778  0.69578  0.68648  1.0000
  H   H2029     1.0  0.77673  0.67911  0.61856  1.0000
  H   H2030     1.0  0.79210  0.68538  0.65383  1.0000
  H   H2031     1.0  0.76950  0.64106  0.70219  1.0000
  H   H2032     1.0  0.82837  0.54991  0.56037  1.0000
  C   C1200     1.0  0.78915  0.61171  0.93290  1.0000
  H   H2033     1.0  0.80446  0.69396  0.57503  1.0000
  N   N84       1.0  0.70337  0.53872  0.91688  1.0000
  H   H2034     1.0  0.70699  0.52844  0.57565  1.0000
  C   C1201     1.0  0.68948  0.53362  0.94732  1.0000
  C   C1202     1.0  0.72170  0.55074  0.92969  1.0000
  C   C1203     1.0  0.69773  0.54784  0.88590  1.0000
  H   H2035     1.0  0.94867  0.66396  0.88608  1.0000
  C   C1204     1.0  0.79569  0.61216  0.97131  1.0000
  C   C1205     1.0  0.69383  0.56547  0.89309  1.0000
  H   H2036     1.0  0.71634  0.55912  0.98305  1.0000
  H   H2037     1.0  0.73443  0.52934  0.89101  1.0000
  H   H2038     1.0  0.68775  0.54582  0.95870  1.0000
  H   H2039     1.0  0.69423  0.52716  0.96980  1.0000
  H   H2040     1.0  0.72840  0.54221  0.94338  1.0000
  H   H2041     1.0  0.73098  0.55785  0.90679  1.0000
  H   H2042     1.0  0.70850  0.55183  0.86442  1.0000
  H   H2043     1.0  0.68576  0.53811  0.87274  1.0000
  C   C1206     1.0  0.68544  0.58223  0.52534  1.0000
  H   H2044     1.0  0.76856  0.68755  0.95209  1.0000
  C   C1207     1.0  0.65973  0.71002  0.65164  1.0000
  H   H2045     1.0  0.66274  0.70384  0.62704  1.0000
  H   H2046     1.0  0.94962  0.63592  0.52278  1.0000
  C   C1208     1.0  0.79339  0.58023  0.97591  1.0000
  H   H2047     1.0  0.70648  0.57781  0.89066  1.0000
  H   H2048     1.0  0.68691  0.56522  0.91905  1.0000
  H   H2049     1.0  0.62671  0.58441  0.51258  1.0000
  H   H2050     1.0  0.68421  0.56700  0.87326  1.0000
  H   H2051     1.0  0.73488  0.72214  0.96889  1.0000
  C   C1209     1.0  0.63915  0.58930  0.52825  1.0000
  H   H2052     1.0  0.64153  0.72008  0.62288  1.0000
  S   S347      1.0  0.69345  0.59642  0.56207  1.0000
  H   H2053     1.0  0.80097  0.66522  0.56690  1.0000
  N   N85       1.0  0.79349  0.66253  0.62335  1.0000
  H   H2054     1.0  0.77754  0.65764  0.57601  1.0000
  H   H2055     1.0  0.81631  0.67379  0.65753  1.0000
  C   C1210     1.0  0.54719  0.71946  0.94823  1.0000
  H   H2056     1.0  0.84076  0.67183  0.62077  1.0000
  H   H2057     1.0  0.82626  0.65840  0.58826  1.0000
  C   C1211     1.0  0.80488  0.50908  0.68755  1.0000
  C   C1212     1.0  0.77909  0.64876  0.64728  1.0000
  H   H2058     1.0  0.69254  0.51276  0.89022  1.0000
  H   H2059     1.0  0.71616  0.67945  0.79057  1.0000
  H   H2060     1.0  0.70589  0.72772  0.91681  1.0000
  N   N86       1.0  0.63503  0.72076  0.67913  1.0000
  H   H2061     1.0  0.50262  0.70193  0.97785  1.0000
  C   C1213     1.0  0.69135  0.70913  0.55746  1.0000
  S   S348      1.0  0.66000  0.74129  0.55822  1.0000
  C   C1214     1.0  0.81203  0.66391  0.63565  1.0000
  H   H2062     1.0  0.79941  0.63278  0.59352  1.0000
  H   H2063     1.0  0.67911  0.63874  0.50499  1.0000
  H   H2064     1.0  0.84607  0.62548  0.97341  1.0000
  H   H2065     1.0  0.67012  0.50667  0.93168  1.0000
  S   S349      1.0  0.60812  0.73254  0.86860  1.0000
  H   H2066     1.0  0.91876  0.63372  0.53881  1.0000
  H   H2067     1.0  0.86017  0.57513  0.64941  1.0000
  H   H2068     1.0  0.73563  0.69282  0.98469  1.0000
  S   S350      1.0  0.63906  0.71336  0.92221  1.0000
  H   H2069     1.0  0.60909  0.71226  0.74051  1.0000
  H   H2070     1.0  0.84042  0.58015  0.64124  1.0000
  H   H2071     1.0  0.66111  0.73781  0.69903  1.0000
  H   H2072     1.0  0.78353  0.60878  0.98967  1.0000
  C   C1215     1.0  0.76367  0.71352  0.94327  1.0000
  N   N87       1.0  0.68814  0.67551  0.80400  1.0000
  C   C1216     1.0  0.65976  0.70934  0.52471  1.0000
  H   H2073     1.0  0.85066  0.54107  0.54560  1.0000
  H   H2074     1.0  0.70361  0.70934  0.56999  1.0000
  C   C1217     1.0  0.54487  0.69786  0.50734  1.0000
  H   H2075     1.0  0.83016  0.63346  0.95073  1.0000
  H   H2076     1.0  0.60336  0.69890  0.63895  1.0000
  H   H2077     1.0  0.95027  0.64583  0.93523  1.0000
  C   C1218     1.0  0.79408  0.66523  0.99234  1.0000
  H   H2078     1.0  0.84564  0.59920  0.58989  1.0000
  C   C1219     1.0  0.68359  0.66032  0.77755  1.0000
  C   C1220     1.0  0.83633  0.62284  0.95156  1.0000
  H   H2079     1.0  0.68373  0.65401  0.72151  1.0000
  H   H2080     1.0  0.64449  0.56362  0.96257  1.0000
  H   H2081     1.0  0.61333  0.73062  0.69125  1.0000
  C   C1221     1.0  0.68399  0.72284  0.56487  1.0000
  H   H2082     1.0  0.81511  0.57318  0.61140  1.0000
  H   H2083     1.0  0.66643  0.64854  0.87953  1.0000
  H   H2084     1.0  0.82856  0.50795  0.71344  1.0000
  C   C1222     1.0  0.63233  0.70837  0.71182  1.0000
  H   H2085     1.0  0.65673  0.66110  0.85169  1.0000
  H   H2086     1.0  0.68188  0.67585  0.72843  1.0000
  H   H2087     1.0  0.52402  0.72006  0.51488  1.0000
  H   H2088     1.0  0.66155  0.64150  0.83510  1.0000
  H   H2089     1.0  0.66882  0.65193  0.77889  1.0000
  C   C1223     1.0  0.66642  0.65373  0.85176  1.0000
  C   C1224     1.0  0.67556  0.70033  0.82576  1.0000
  H   H2090     1.0  0.77031  0.51772  0.73030  1.0000
  C   C1225     1.0  0.94242  0.64648  0.99018  1.0000
  H   H2091     1.0  0.81767  0.70179  0.61455  1.0000
  C   C1226     1.0  0.70770  0.68784  0.79692  1.0000
  C   C1227     1.0  0.70675  0.53620  0.55064  1.0000
  C   C1228     1.0  0.67544  0.68583  0.79844  1.0000
  H   H2092     1.0  0.80367  0.62677  0.97594  1.0000
  H   H2093     1.0  0.69051  0.65054  0.78404  1.0000
  H   H2094     1.0  0.81174  0.56493  0.96651  1.0000
  Fe  Fe175     1.0  0.79227  0.51528  0.85659  1.0000
  H   H2095     1.0  0.86629  0.60776  0.56375  1.0000
  H   H2096     1.0  0.94404  0.70566  0.92403  1.0000
  H   H2097     1.0  0.87317  0.57992  0.57943  1.0000
  S   S351      1.0  0.81267  0.50469  0.88112  1.0000
  H   H2098     1.0  0.92886  0.70122  0.96285  1.0000
  H   H2099     1.0  0.64559  0.70808  0.72061  1.0000
  C   C1229     1.0  0.81034  0.51363  0.75124  1.0000
  Fe  Fe176     1.0  0.76622  0.49393  0.54364  1.0000
  C   C1230     1.0  0.66721  0.55216  0.50303  1.0000
  H   H2100     1.0  0.87386  0.55370  0.55596  1.0000
  H   H2101     1.0  0.62986  0.61945  0.53808  1.0000
  H   H2102     1.0  0.69365  0.52884  0.53817  1.0000
  C   C1231     1.0  0.65557  0.63306  0.56256  1.0000
  C   C1232     1.0  0.73187  0.50754  0.97227  1.0000
  C   C1233     1.0  0.74853  0.72962  0.97962  1.0000
  C   C1234     1.0  0.94735  0.68585  0.96485  1.0000
  H   H2103     1.0  0.72101  0.53113  0.85358  1.0000
  H   H2104     1.0  0.81898  0.51455  0.77354  1.0000
  C   C1235     1.0  0.48890  0.74013  0.87165  1.0000
  S   S352      1.0  0.71907  0.64496  0.50954  1.0000
  S   S353      1.0  0.88476  0.62562  0.97147  1.0000
  H   H2105     1.0  0.50628  0.73005  0.56971  1.0000
  H   H2106     1.0  0.65861  0.62105  0.57259  1.0000
  S   S354      1.0  0.81269  0.50491  0.64501  1.0000
  H   H2107     1.0  0.67825  0.73604  0.91463  1.0000
  C   C1236     1.0  0.64897  0.73927  0.68681  1.0000
  C   C1237     1.0  0.64369  0.62900  0.52954  1.0000
  C   C1238     1.0  0.85231  0.57258  0.99634  1.0000
  H   H2108     1.0  0.97994  0.67805  0.90995  1.0000
  H   H2109     1.0  0.78264  0.62212  0.92967  1.0000
  H   H2110     1.0  0.93991  0.68108  0.99083  1.0000
  H   H2111     1.0  0.54033  0.74270  0.52158  1.0000
  H   H2112     1.0  0.83010  0.59451  0.96303  1.0000
  C   C1239     1.0  0.77482  0.70109  0.93820  1.0000
  H   H2113     1.0  0.73573  0.54452  0.54119  1.0000
  H   H2114     1.0  0.67102  0.72333  0.65415  1.0000
  C   C1240     1.0  0.80099  0.56512  0.98591  1.0000
  H   H2115     1.0  0.72304  0.52301  0.52476  1.0000
  H   H2116     1.0  0.83386  0.70009  0.50059  1.0000
  H   H2117     1.0  0.48941  0.70172  0.54974  1.0000
  C   C1241     1.0  0.92461  0.64028  0.51256  1.0000
  C   C1242     1.0  0.52848  0.73130  0.53358  1.0000
  H   H2118     1.0  0.65851  0.53800  0.50818  1.0000
  H   H2119     1.0  0.64767  0.70931  0.51173  1.0000
  C   C1243     1.0  0.65479  0.60476  0.50842  1.0000
  H   H2120     1.0  0.72495  0.58667  0.52529  1.0000
  H   H2121     1.0  0.52311  0.74125  0.88169  1.0000
  H   H2122     1.0  0.48423  0.72134  0.91925  1.0000
  N   N88       1.0  0.65099  0.62178  0.49812  1.0000
  Fe  Fe177     1.0  0.63797  0.93793  0.05285  1.0000
  S   S355      1.0  0.61153  0.92588  0.08530  1.0000
  S   S356      1.0  0.65522  0.96831  0.06604  1.0000
  H   H2123     1.0  0.56920  0.86669  0.47389  1.0000
  S   S357      1.0  0.60626  0.88523  0.05393  1.0000
  H   H2124     1.0  0.68808  0.92051  0.21631  1.0000
  Fe  Fe178     1.0  0.59944  0.90962  0.03714  1.0000
  C   C1244     1.0  0.55935  0.89368  0.44335  1.0000
  Fe  Fe179     1.0  0.62069  0.90252  0.09916  1.0000
  S   S358      1.0  0.61883  0.88902  0.15441  1.0000
  S   S359      1.0  0.64742  0.91458  0.06839  1.0000
  H   H2125     1.0  0.68532  0.96762  0.18762  1.0000
  Fe  Fe180     1.0  0.64020  0.95107  0.41843  1.0000
  S   S360      1.0  0.62036  0.94216  0.37431  1.0000
  S   S361      1.0  0.64870  0.98215  0.43047  1.0000
  Fe  Fe181     1.0  0.63869  0.91071  0.42985  1.0000
  S   S362      1.0  0.62005  0.90025  0.38453  1.0000
  S   S363      1.0  0.64645  0.89189  0.46933  1.0000
  Fe  Fe182     1.0  0.63714  0.92625  0.35437  1.0000
  S   S364      1.0  0.64519  0.93289  0.29534  1.0000
  Fe  Fe183     1.0  0.60471  0.91695  0.40775  1.0000
  S   S365      1.0  0.57393  0.90305  0.40564  1.0000
  S   S366      1.0  0.65755  0.93568  0.39770  1.0000
  S   S367      1.0  0.62271  0.92683  0.45403  1.0000
  C   C1245     1.0  0.54234  0.87985  0.43869  1.0000
  C   C1246     1.0  0.63214  0.85570  0.44675  1.0000
  C   C1247     1.0  0.69808  0.80569  0.46734  1.0000
  H   H2126     1.0  0.58792  0.79128  0.09205  1.0000
  C   C1248     1.0  0.59415  0.93407  0.28759  1.0000
  H   H2127     1.0  0.62152  0.82760  0.43022  1.0000
  H   H2128     1.0  0.60481  0.91333  0.30122  1.0000
  C   C1249     1.0  0.62447  0.90095  0.19446  1.0000
  C   C1250     1.0  0.62790  0.89190  0.22466  1.0000
  C   C1251     1.0  0.63338  0.90126  0.25645  1.0000
  C   C1252     1.0  0.63553  0.91980  0.25822  1.0000
  C   C1253     1.0  0.63165  0.92869  0.22831  1.0000
  C   C1254     1.0  0.62594  0.91928  0.19669  1.0000
  H   H2129     1.0  0.62673  0.87769  0.22319  1.0000
  H   H2130     1.0  0.63660  0.89433  0.27910  1.0000
  H   H2131     1.0  0.63329  0.94303  0.22946  1.0000
  H   H2132     1.0  0.62292  0.92623  0.17386  1.0000
  H   H2133     1.0  0.52516  0.75743  0.43837  1.0000
  H   H2134     1.0  0.55937  0.91301  0.26869  1.0000
  H   H2135     1.0  0.70004  0.97828  0.13606  1.0000
  H   H2136     1.0  0.53848  0.87504  0.41227  1.0000
  H   H2137     1.0  0.62994  0.86137  0.42151  1.0000
  H   H2138     1.0  0.58187  0.93770  0.29092  1.0000
  H   H2139     1.0  0.58320  0.90999  0.23287  1.0000
  H   H2140     1.0  0.58279  0.86314  0.41679  1.0000
  H   H2141     1.0  0.69179  0.94040  0.10551  1.0000
  C   C1255     1.0  0.57337  0.85464  0.47148  1.0000
  H   H2142     1.0  0.65810  0.76945  0.41615  1.0000
  H   H2143     1.0  0.62933  0.85233  0.03297  1.0000
  C   C1256     1.0  0.58271  0.89771  0.24903  1.0000
  C   C1257     1.0  0.66011  0.96091  0.16069  1.0000
  H   H2144     1.0  0.60373  0.88562  0.31613  1.0000
  C   C1258     1.0  0.53033  0.87209  0.46800  1.0000
  H   H2145     1.0  0.56130  0.84358  0.46145  1.0000
  H   H2146     1.0  0.69591  0.97542  0.09017  1.0000
  C   C1259     1.0  0.57483  0.88166  0.30847  1.0000
  H   H2147     1.0  0.60516  0.94442  0.30184  1.0000
  H   H2148     1.0  0.70916  0.95710  0.17529  1.0000
  C   C1260     1.0  0.55188  0.90528  0.32412  1.0000
  H   H2149     1.0  0.57649  0.88169  0.20139  1.0000
  N   N89       1.0  0.68178  0.94273  0.15869  1.0000
  H   H2150     1.0  0.65541  0.92347  0.14534  1.0000
  C   C1261     1.0  0.67432  0.95493  0.17956  1.0000
  H   H2151     1.0  0.66048  0.76196  0.46011  1.0000
  C   C1262     1.0  0.68600  0.94930  0.12035  1.0000
  C   C1263     1.0  0.62905  0.82808  0.00550  1.0000
  C   C1264     1.0  0.63008  0.82877  0.48443  1.0000
  H   H2152     1.0  0.59946  0.78600  0.05449  1.0000
  C   C1265     1.0  0.63116  0.84680  0.00764  1.0000
  H   H2153     1.0  0.59331  0.80618  0.05340  1.0000
  C   C1266     1.0  0.58818  0.85920  0.44144  1.0000
  H   H2154     1.0  0.69893  0.80927  0.43831  1.0000
  H   H2155     1.0  0.66784  0.94804  0.20529  1.0000
  C   C1267     1.0  0.66649  0.77334  0.44005  1.0000
  H   H2156     1.0  0.65325  0.96693  0.18025  1.0000
  H   H2157     1.0  0.56127  0.78870  0.05192  1.0000
  H   H2158     1.0  0.68436  0.90616  0.15919  1.0000
  Fe  Fe184     1.0  0.63215  0.89888  0.02198  1.0000
  C   C1268     1.0  0.64009  0.86752  0.47406  1.0000
  H   H2159     1.0  0.65154  0.78914  0.46244  1.0000
  H   H2160     1.0  0.55661  0.88078  0.22638  1.0000
  H   H2161     1.0  0.53875  0.90726  0.32080  1.0000
  H   H2162     1.0  0.59674  0.89768  0.24759  1.0000
  H   H2163     1.0  0.50233  0.88710  0.48603  1.0000
  C   C1269     1.0  0.66583  0.79167  0.45338  1.0000
  H   H2164     1.0  0.67344  0.94788  0.10593  1.0000
  C   C1270     1.0  0.50155  0.90108  0.48520  1.0000
  H   H2165     1.0  0.66820  0.98947  0.99788  1.0000
  H   H2166     1.0  0.54920  0.89347  0.34315  1.0000
  C   C1271     1.0  0.69976  0.96909  0.11396  1.0000
  H   H2167     1.0  0.59870  0.93556  0.25920  1.0000
  H   H2168     1.0  0.57018  0.86777  0.24119  1.0000
  C   C1272     1.0  0.59137  0.91483  0.30359  1.0000
  H   H2169     1.0  0.66250  0.91912  0.18764  1.0000
  H   H2170     1.0  0.58818  0.86279  0.32427  1.0000
  H   H2171     1.0  0.59389  0.87128  0.27946  1.0000
  H   H2172     1.0  0.62577  0.81945  0.02945  1.0000
  H   H2173     1.0  0.58874  0.91501  0.33277  1.0000
  N   N90       1.0  0.57695  0.89894  0.28712  1.0000
  C   C1273     1.0  0.58886  0.79155  0.06249  1.0000
  C   C1274     1.0  0.66757  0.92365  0.15986  1.0000
  H   H2174     1.0  0.68047  0.77435  0.43227  1.0000
  H   H2175     1.0  0.57241  0.88344  0.33723  1.0000
  C   C1275     1.0  0.59119  0.87519  0.30658  1.0000
  H   H2176     1.0  0.51729  0.86145  0.46404  1.0000
  C   C1276     1.0  0.57063  0.88095  0.22886  1.0000
  H   H2177     1.0  0.56262  0.87003  0.30059  1.0000
  C   C1277     1.0  0.57955  0.74821  0.03253  1.0000
  C   C1278     1.0  0.55895  0.90162  0.28749  1.0000
  H   H2178     1.0  0.54812  0.88924  0.27779  1.0000
  H   H2179     1.0  0.66670  0.97165  0.13986  1.0000
  H   H2180     1.0  0.56120  0.91790  0.33598  1.0000
  H   H2181     1.0  0.56713  0.86806  0.02392  1.0000
  C   C1279     1.0  0.57009  0.78043  0.04796  1.0000
  C   C1280     1.0  0.67444  0.83082  0.46439  1.0000
  H   H2182     1.0  0.59208  0.84726  0.43534  1.0000
  H   H2183     1.0  0.57717  0.91052  0.48155  1.0000
  H   H2184     1.0  0.53055  0.91259  0.47371  1.0000
  H   H2185     1.0  0.66833  0.80092  0.42930  1.0000
  N   N91       1.0  0.57027  0.77533  0.00952  1.0000
  H   H2186     1.0  0.69150  0.94318  0.23219  1.0000
  H   H2187     1.0  0.70256  0.79370  0.46931  1.0000
  C   C1281     1.0  0.69688  0.93522  0.21393  1.0000
  H   H2188     1.0  0.56397  0.76825  0.06603  1.0000
  C   C1282     1.0  0.62736  0.83652  0.45182  1.0000
  H   H2189     1.0  0.60052  0.87102  0.44751  1.0000
  H   H2190     1.0  0.70569  0.93516  0.15887  1.0000
  H   H2191     1.0  0.67736  0.91090  0.11558  1.0000
  C   C1283     1.0  0.69902  0.94285  0.17515  1.0000
  C   C1284     1.0  0.55102  0.76689  0.99745  1.0000
  C   C1285     1.0  0.66826  0.99214  0.05467  1.0000
  H   H2192     1.0  0.71043  0.93628  0.22343  1.0000
  C   C1286     1.0  0.51782  0.74547  0.45646  1.0000
  C   C1287     1.0  0.55669  0.86907  0.00680  1.0000
  C   C1288     1.0  0.67336  0.90839  0.14422  1.0000
  H   H2193     1.0  0.64952  0.94936  0.14836  1.0000
  H   H2194     1.0  0.71371  0.96906  0.10928  1.0000
  C   C1289     1.0  0.56419  0.89978  0.47764  1.0000
  H   H2195     1.0  0.59126  0.75338  0.05020  1.0000
  H   H2196     1.0  0.66179  0.82555  0.44927  1.0000
  H   H2197     1.0  0.66150  0.89527  0.14631  1.0000
  C   C1290     1.0  0.58069  0.76271  0.00290  1.0000
  H   H2198     1.0  0.54419  0.77716  0.99834  1.0000
  S   S368      1.0  0.62429  0.80445  0.48845  1.0000
  S   S369      1.0  0.57230  0.90699  0.01321  1.0000
  S   S370      1.0  0.62503  0.92325  0.00351  1.0000
  H   H2199     1.0  0.49938  0.90403  0.45697  1.0000
  H   H2200     1.0  0.59543  0.77089  0.99898  1.0000
  H   H2201     1.0  0.67461  0.84376  0.47640  1.0000
  C   C1291     1.0  0.52059  0.91485  0.49271  1.0000
  H   H2202     1.0  0.68628  0.83419  0.44554  1.0000
  H   H2203     1.0  0.53694  0.75187  0.04687  1.0000
  H   H2204     1.0  0.52159  0.92922  0.48774  1.0000
  H   H2205     1.0  0.54460  0.83981  0.00009  1.0000
  H   H2206     1.0  0.52474  0.74532  0.00722  1.0000
  H   H2207     1.0  0.59296  0.83256  0.48599  1.0000
  H   H2208     1.0  0.68837  0.99019  0.42206  1.0000
  N   N92       1.0  0.67885  0.80058  0.48215  1.0000
  C   C1292     1.0  0.55600  0.88632  0.99806  1.0000
  H   H2209     1.0  0.49871  0.75695  0.47486  1.0000
  C   C1293     1.0  0.53854  0.74957  0.01822  1.0000
  C   C1294     1.0  0.50875  0.75197  0.48760  1.0000
  H   H2210     1.0  0.71150  0.83527  0.47686  1.0000
  H   H2211     1.0  0.72642  0.82280  0.47348  1.0000
  H   H2212     1.0  0.56928  0.82081  0.49101  1.0000
  H   H2213     1.0  0.59525  0.88855  0.49253  1.0000
  C   C1295     1.0  0.71288  0.82200  0.48411  1.0000
  C   C1296     1.0  0.67458  0.81694  0.49422  1.0000
  H   H2214     1.0  0.56669  0.74302  0.04848  1.0000
  H   H2215     1.0  0.48509  0.92438  0.47690  1.0000
  C   C1297     1.0  0.67513  0.78671  0.51274  1.0000
  H   H2216     1.0  0.51895  0.87228  0.94518  1.0000
  Fe  Fe185     1.0  0.62519  0.77518  0.92927  1.0000
  S   S371      1.0  0.60546  0.77256  0.88590  1.0000
  H   H2217     1.0  0.68411  0.80568  0.55752  1.0000
  Fe  Fe186     1.0  0.62332  0.76201  0.85203  1.0000
  C   C1298     1.0  0.53508  0.87836  0.50223  1.0000
  C   C1299     1.0  0.59674  0.88324  0.51937  1.0000
  S   S372      1.0  0.64453  0.76677  0.89405  1.0000
  Fe  Fe187     1.0  0.62025  0.77947  0.52640  1.0000
  S   S373      1.0  0.59182  0.76314  0.54668  1.0000
  S   S374      1.0  0.62346  0.75547  0.49845  1.0000
  C   C1300     1.0  0.54018  0.76918  0.87639  1.0000
  H   H2218     1.0  0.58910  0.80379  0.93431  1.0000
  S   S375      1.0  0.63307  0.77322  0.57603  1.0000
  S   S376      1.0  0.51990  0.87014  0.53957  1.0000
  H   H2219     1.0  0.67828  0.77448  0.50491  1.0000
  H   H2220     1.0  0.60398  0.92109  0.93568  1.0000
  H   H2221     1.0  0.70000  0.79470  0.54329  1.0000
  H   H2222     1.0  0.58144  0.77930  0.93809  1.0000
  H   H2223     1.0  0.66493  0.76635  0.66435  1.0000
  C   C1301     1.0  0.49150  0.76407  0.54725  1.0000
  H   H2224     1.0  0.50180  0.76699  0.56799  1.0000
  H   H2225     1.0  0.55583  0.89720  0.53323  1.0000
  H   H2226     1.0  0.64347  0.74630  0.70694  1.0000
  C   C1302     1.0  0.59411  0.75181  0.72265  1.0000
  C   C1303     1.0  0.63881  0.85091  0.94470  1.0000
  H   H2227     1.0  0.64004  0.83490  0.53716  1.0000
  C   C1304     1.0  0.63066  0.77424  0.72260  1.0000
  C   C1305     1.0  0.58433  0.82211  0.53881  1.0000
  H   H2228     1.0  0.62908  0.88510  0.88726  1.0000
  H   H2229     1.0  0.57657  0.75534  0.97772  1.0000
  C   C1306     1.0  0.59744  0.86052  0.92489  1.0000
  C   C1307     1.0  0.50289  0.77345  0.86691  1.0000
  S   S377      1.0  0.61108  0.74599  0.95071  1.0000
  H   H2230     1.0  0.49015  0.77480  0.87755  1.0000
  C   C1308     1.0  0.50414  0.75679  0.92312  1.0000
  H   H2231     1.0  0.59341  0.84020  0.96772  1.0000
  C   C1309     1.0  0.57930  0.79300  0.98791  1.0000
  N   N93       1.0  0.50490  0.75639  0.88288  1.0000
  Fe  Fe188     1.0  0.60478  0.75510  0.59399  1.0000
  H   H2232     1.0  0.67979  0.78221  0.56806  1.0000
  H   H2233     1.0  0.51288  0.77331  0.96967  1.0000
  C   C1310     1.0  0.62167  0.77027  0.69016  1.0000
  C   C1311     1.0  0.60334  0.75898  0.69002  1.0000
  H   H2234     1.0  0.52155  0.75096  0.84050  1.0000
  C   C1312     1.0  0.51335  0.77551  0.94031  1.0000
  H   H2235     1.0  0.59879  0.86929  0.85760  1.0000
  H   H2236     1.0  0.50583  0.78489  0.93511  1.0000
  C   C1313     1.0  0.63609  0.83205  0.94235  1.0000
  H   H2237     1.0  0.60759  0.86292  0.50275  1.0000
  H   H2238     1.0  0.51382  0.78616  0.87473  1.0000
  H   H2239     1.0  0.56748  0.84571  0.56163  1.0000
  H   H2240     1.0  0.56793  0.85421  0.85812  1.0000
  H   H2241     1.0  0.61036  0.89208  0.52813  1.0000
  H   H2242     1.0  0.57274  0.81882  0.55829  1.0000
  H   H2243     1.0  0.52017  0.75206  0.55477  1.0000
  H   H2244     1.0  0.58004  0.90767  0.93398  1.0000
  H   H2245     1.0  0.64482  0.78303  0.72246  1.0000
  H   H2246     1.0  0.56523  0.79087  0.93765  1.0000
  H   H2247     1.0  0.61227  0.86558  0.92878  1.0000
  Fe  Fe189     1.0  0.59186  0.74331  0.90648  1.0000
  C   C1314     1.0  0.62146  0.89249  0.87306  1.0000
  H   H2248     1.0  0.54781  0.84965  0.88545  1.0000
  S   S378      1.0  0.48520  0.81133  0.87371  1.0000
  H   H2249     1.0  0.52775  0.78234  0.93172  1.0000
  C   C1315     1.0  0.63146  0.82051  0.97290  1.0000
  C   C1316     1.0  0.59787  0.89152  0.93559  1.0000
  C   C1317     1.0  0.60317  0.75559  0.75507  1.0000
  C   C1318     1.0  0.54384  0.85305  0.99335  1.0000
  C   C1319     1.0  0.55208  0.89218  0.50688  1.0000
  C   C1320     1.0  0.57860  0.79142  0.94714  1.0000
  H   H2250     1.0  0.55051  0.76879  0.85607  1.0000
  H   H2251     1.0  0.64467  0.75557  0.64112  1.0000
  H   H2252     1.0  0.53887  0.83548  0.50305  1.0000
  H   H2253     1.0  0.74879  0.75658  0.96295  1.0000
  H   H2254     1.0  0.53981  0.78315  0.87358  1.0000
  C   C1321     1.0  0.57163  0.86981  0.90743  1.0000
  H   H2255     1.0  0.77107  0.75558  0.96420  1.0000
  Fe  Fe190     1.0  0.48890  0.82790  0.92320  1.0000
  H   H2256     1.0  0.57347  0.84526  0.95974  1.0000
  H   H2257     1.0  0.50191  0.78814  0.81772  1.0000
  H   H2258     1.0  0.59488  0.91154  0.89518  1.0000
  C   C1322     1.0  0.59383  0.90880  0.92426  1.0000
  C   C1323     1.0  0.60080  0.88154  0.87394  1.0000
  H   H2259     1.0  0.58601  0.80894  0.53262  1.0000
  H   H2260     1.0  0.68420  0.82479  0.51414  1.0000
  N   N94       1.0  0.59191  0.87586  0.91048  1.0000
  C   C1324     1.0  0.50249  0.77459  0.82595  1.0000
  H   H2261     1.0  0.71306  0.82068  0.51338  1.0000
  C   C1325     1.0  0.62152  0.76682  0.75519  1.0000
  H   H2262     1.0  0.48734  0.93832  0.54971  1.0000
  H   H2263     1.0  0.64299  0.85975  0.92105  1.0000
  H   H2264     1.0  0.51000  0.74704  0.93504  1.0000
  N   N95       1.0  0.48601  0.90140  0.50907  1.0000
  H   H2265     1.0  0.62889  0.77599  0.66532  1.0000
  H   H2266     1.0  0.75599  0.74528  0.92845  1.0000
  H   H2267     1.0  0.54496  0.76704  0.90304  1.0000
  C   C1326     1.0  0.63635  0.85847  0.97731  1.0000
  S   S379      1.0  0.51582  0.83360  0.95132  1.0000
  C   C1327     1.0  0.56265  0.85243  0.88609  1.0000
  C   C1328     1.0  0.59587  0.86317  0.51929  1.0000
  H   H2268     1.0  0.61250  0.89556  0.94171  1.0000
  S   S380      1.0  0.62898  0.79679  0.97242  1.0000
  H   H2269     1.0  0.56414  0.84012  0.89878  1.0000
  C   C1329     1.0  0.58844  0.85146  0.96082  1.0000
  C   C1330     1.0  0.75685  0.74775  0.95743  1.0000
  H   H2270     1.0  0.59502  0.84942  0.90544  1.0000
  H   H2271     1.0  0.62666  0.89469  0.84495  1.0000
  H   H2272     1.0  0.56096  0.86095  0.53473  1.0000
  H   H2273     1.0  0.59706  0.83072  0.55113  1.0000
  H   H2274     1.0  0.59873  0.85981  0.54688  1.0000
  C   C1331     1.0  0.52932  0.87126  0.96253  1.0000
  H   H2275     1.0  0.58657  0.88509  0.53827  1.0000
  C   C1332     1.0  0.56348  0.84781  0.53416  1.0000
  H   H2276     1.0  0.59092  0.88722  0.96215  1.0000
  C   C1333     1.0  0.64290  0.85977  0.50663  1.0000
  S   S381      1.0  0.64020  0.88251  0.97866  1.0000
  H   H2277     1.0  0.56782  0.88089  0.89476  1.0000
  H   H2278     1.0  0.56480  0.86748  0.93411  1.0000
  H   H2279     1.0  0.59597  0.74981  0.77993  1.0000
  H   H2280     1.0  0.66104  0.81235  0.50838  1.0000
  H   H2281     1.0  0.49015  0.76409  0.81568  1.0000
  C   C1334     1.0  0.68554  0.79313  0.54697  1.0000
  S   S382      1.0  0.63382  0.77162  0.79496  1.0000
  H   H2282     1.0  0.66041  0.78142  0.52036  1.0000
  H   H2283     1.0  0.64900  0.86873  0.52802  1.0000
  H   H2284     1.0  0.53521  0.83311  0.55001  1.0000
  C   C1335     1.0  0.52197  0.75383  0.86940  1.0000
  C   C1336     1.0  0.53022  0.85405  0.97077  1.0000
  H   H2285     1.0  0.62465  0.90627  0.88430  1.0000
  H   H2286     1.0  0.59430  0.88976  0.85866  1.0000
  H   H2287     1.0  0.54537  0.81885  0.52847  1.0000
  H   H2288     1.0  0.63818  0.82657  0.91711  1.0000
  C   C1337     1.0  0.48534  0.74396  0.53545  1.0000
  H   H2289     1.0  0.54135  0.90052  0.96942  1.0000
  H   H2290     1.0  0.55084  0.76278  0.96923  1.0000
  C   C1338     1.0  0.54211  0.88728  0.97619  1.0000
  H   H2291     1.0  0.50190  0.90624  0.55719  1.0000
  H   H2292     1.0  0.59234  0.86119  0.98282  1.0000
  H   H2293     1.0  0.49660  0.77414  0.52461  1.0000
  H   H2294     1.0  0.52507  0.91287  0.51969  1.0000
  H   H2295     1.0  0.49097  0.88317  0.54809  1.0000
  H   H2296     1.0  0.48976  0.75206  0.93339  1.0000
  S   S383      1.0  0.59180  0.75226  0.64977  1.0000
  H   H2297     1.0  0.57331  0.80346  0.99511  1.0000
  N   N96       1.0  0.57843  0.84915  0.50721  1.0000
  Fe  Fe191     1.0  0.63395  0.74772  0.54917  1.0000
  H   H2298     1.0  0.50035  0.94831  0.51046  1.0000
  C   C1339     1.0  0.63777  0.84055  0.51195  1.0000
  C   C1340     1.0  0.49542  0.93554  0.52745  1.0000
  C   C1341     1.0  0.48911  0.89663  0.54688  1.0000
  Fe  Fe192     1.0  0.49239  0.84669  0.53947  1.0000
  C   C1342     1.0  0.58103  0.83102  0.50388  1.0000
  C   C1343     1.0  0.54482  0.83284  0.52807  1.0000
  H   H2299     1.0  0.50760  0.93380  0.53829  1.0000
  H   H2300     1.0  0.59394  0.79922  0.99387  1.0000
  S   S384      1.0  0.49027  0.81846  0.55806  1.0000
  H   H2301     1.0  0.66388  0.74840  0.63503  1.0000
  C   C1344     1.0  0.65582  0.75295  0.65471  1.0000
  H   H2302     1.0  0.51489  0.77367  0.81297  1.0000
  H   H2303     1.0  0.57994  0.74301  0.72283  1.0000
  H   H2304     1.0  0.51924  0.76440  0.49808  1.0000
