data_image0
_chemical_formula_structural       FeSC2HFeSFeHS2FeHSCH2CHSCHFeH2C6H4FeCHCSFeCSHCSFeH2SH3S2NC2H4CH2CH2SHC2HCHC2H2S2H4C2H5CH2FeCHFeSHFeS2FeSFeS3FeSH2SCH2FeSHSC2HCFeS2FeSFeSFeS3FeS2FeSFeSFeS3C6H4C7H5C4H16C3HCH3C7H4C6H4C6H5CH2CHCH5CSCHNC5H3CH2C2H5CHCHCH2NC6HCH16CH3NC8H18CH10C2HCH3NSCHSH2CHCH2NCHCSH2SCH3CH6C2HNHCH2CH2CH3C3HCH2C4H5CH6NC2HC2HCH2C2H6SH5FeH3NCH3C4HCHCH2CH4CHNCH2C2H5C2H5CHCH2CHFeS2FeSFeSFeS2C2SHFeSHFeHFeS3H3C2H6CSCSH2C6H4CH5C2HC2H2CHSNCH6C2H3C2HCH2C3HSCH3CH3C2H2SH4CFeC2H2SC2H2C2NH2C2NHCH5FeH2NSCHNHCH2CHSFeHC2H4CH3CH2CHCH3SHCH4CH2CH5SH3CH2C3H6CH3C3HC3H2FeS2FeSFeNS2FeS2HNHCHCH2FeSFeS2FeSFeHS2HSHS2HSCH3CHCHCSH4C6H4CFeHC2H4C3NC6H2CHC3NH5C6H6C2H2C3H3SH5CH4SCHSH2C2HCHCNCH2C4H3CHCH2Fe2HCH3C3H2SCH2C2HCHSFeH2C2H4CHFeH3C2SHNH2CH4CHFeH2CHCH6CHCHNHCH2C2H2CH4S2HSHCH6CHC3HCH2CH3CH7CH3CHSH6C2H2CHC3H4CHCFeHC2HCH2CHCHFeSFeS4HFeS2FeS2FeHFeS3FeS2FeS2FeSFeSNSHCH3C6H4CHCHCH4CHSC3H5CHC7H4C2H2CH3C7HCH4FeHCHSCH3NC8H15FeH4NC8H20NC5SCH4CH6CHSH2CH4CHCH2C2H5CH2CHSC2H3SHNSH3CHCHCHNC8H24SC2FeHC2HSHC2SH2FeCHSH2CHCHC2H2SCHSHCFeHCH2CFeSFeSHFeSFeS3FeSFeS2FeSFeS3H3FeSH3CS2HCSHFeS2FeS2FeSFeS3FeS2FeS2Fe2S3C6H4C6H4C6H4CH2C8H4C6H4SHC5H3C2SHC2H4C6H4CHNC8H20NC8H20CHFeH3C2H7NC7H19CH3SCH5CHC2HCHCH2CFeC2SH3CH4CH2CH3SH2C2H3SHCH7CH2SHCH4SC2H3CH4C2H5N2CHC3HCH2CH4CH2CNC3HC2H7CH2NHNCHNH2CH3CHCH5C3H5CH2NH2CHCH2C5H2CHCH8FeH2CHFeSHFeS2FeSFeS3FeS2FeS2H2FeS3H2CH3CFeSHCSCFeS2FeS2FeSFeS3C3H2C6H6NH3C2H2C4HCH2CHC6H4CH2CHCH4C6H4C6H7CH2CH3CH5CH3CHC2NC2H4CHNHCH2CH2C3H2SHC3H2CHCH3CH2CH3C2HC2H2C2H4CNHC2H2CN2H9CH3CH3CHCHC2H3C2H3CHCH3C2H7CH7C3FeH3CH2CH3CHCH2NH2C2H2CH3SHCHCH3CH6CH2SHFeH4SHCHCFeHSFeC2H3CS2HCHFeS2FeSHFeCFeSFeSHCHC5H3SC6H4CNSHCH2CHC2HC3HC3H3C4HC2H4CHCHNC8H20C2H2CNCHC3H7CHSH2CH2CHSC2H2CH2CH3FeH3CH5FeHC3NC8H16CH2CNSCHSH3CHSH2CHCH5CH5SCH11SH6CHSHCH2CH3CH3NCH3C2FeH2FeCH2SFeSHS2C2SH2S2HFeS2H2CH4SH7S2C2SCH7C6H4NH4CFeCHC5H3FeCSHC2HC7H4FeHC2FeHCHC5H3FeCH4CNH2CH2NC4H10CH3NHCH2C2HCH3CHCHCH2CH3SHC2HC2H2SH4SH4CNHSHS2HS2C6H4C3H2C2H2CH9CH4CH5NH4FeCH3CH3C3NH2CH2C3FeCFeSC2SH6CHCHC4HFeH5CHCH4C2H3CSCH3CHFeS2FeS2FeSFeS3FeS2FeS2FeSFeS3HSCH2SFeS3FeSFeH2FeS2FeSHFeSFeS3C6H5CH4CHCSNCH2C6H4C6H4CHCH2C6H4C6H4C6H4C3H5CHCHC2HC3H6NC8H14C2H4NC8H20NC2HCHCH8CH6FeH2NC6H17C4HC2HCH7CHSH2CSH4C2HCSC2FeH2CH6C2NHNCHC2HC2HCH2NSCHCH5CH2C2FeHC3H3CH3CH12CH3SH3CH5CH3CHCH2C3H2CH2C2N2CNCH10CH2CH2C3H11C2SH5CHCH2FeSHFe2S2H2FeS2FeSFeHS2CH4C4H4C6SH3CHC3H2SH6C2H5NC5H2CH2C2H7CH3C2H3C2HCSC2HCH2NHSH4NCHSCHCH3CH2C2HCHCH2CH2CH2SH2
_chemical_formula_sum              "Fe144 S288 C1008 H1728 N72"
_cell_length_a       85.0148
_cell_length_b       84.4517
_cell_length_c       32.1415
_cell_angle_alpha    85.3541
_cell_angle_beta     84.2564
_cell_angle_gamma    109.179

_space_group_name_H-M_alt    "P 1"
_space_group_IT_number       1

loop_
  _space_group_symop_operation_xyz
  'x, y, z'

loop_
  _atom_site_type_symbol
  _atom_site_label
  _atom_site_symmetry_multiplicity
  _atom_site_fract_x
  _atom_site_fract_y
  _atom_site_fract_z
  _atom_site_occupancy
  Fe  Fe1       1.0  0.02086  0.44328  0.48742  1.0000
  S   S1        1.0  0.04776  0.44443  0.47518  1.0000
  C   C1        1.0  0.17393  0.48520  0.58170  1.0000
  C   C2        1.0  0.07530  0.47206  0.94334  1.0000
  H   H1        1.0  0.19301  0.47337  0.59130  1.0000
  Fe  Fe2       1.0  0.05004  0.46408  0.42088  1.0000
  S   S2        1.0  0.06269  0.46399  0.35537  1.0000
  Fe  Fe3       1.0  0.05388  0.46601  0.51496  1.0000
  H   H2        1.0  0.09885  0.50272  0.15399  1.0000
  S   S3        1.0  0.02275  0.46119  0.43049  1.0000
  S   S4        1.0  0.02657  0.46301  0.53143  1.0000
  Fe  Fe4       1.0  0.03013  0.47018  0.13380  1.0000
  H   H3        1.0  0.03450  0.41837  0.26779  1.0000
  S   S5        1.0  0.02532  0.47610  0.20072  1.0000
  C   C3        1.0  0.13563  0.47246  0.60400  1.0000
  H   H4        1.0  0.17857  0.48341  0.70429  1.0000
  H   H5        1.0  0.18921  0.47629  0.66212  1.0000
  C   C4        1.0  0.02720  0.42405  0.28879  1.0000
  H   H6        1.0  0.13226  0.46191  0.62984  1.0000
  S   S6        1.0  0.03567  0.44877  0.10553  1.0000
  C   C5        1.0  0.08535  0.48170  0.58872  1.0000
  H   H7        1.0  0.06193  0.46706  0.95367  1.0000
  Fe  Fe5       1.0  0.02647  0.48618  0.04757  1.0000
  H   H8        1.0  0.14232  0.49236  0.64342  1.0000
  H   H9        1.0  0.01496  0.39920  0.32376  1.0000
  C   C6        1.0  0.05267  0.46778  0.31194  1.0000
  C   C7        1.0  0.03953  0.47425  0.31679  1.0000
  C   C8        1.0  0.03124  0.47655  0.28239  1.0000
  C   C9        1.0  0.03605  0.47252  0.24270  1.0000
  C   C10       1.0  0.04944  0.46639  0.23740  1.0000
  C   C11       1.0  0.05779  0.46411  0.27197  1.0000
  H   H10       1.0  0.03579  0.47759  0.34699  1.0000
  H   H11       1.0  0.02103  0.48150  0.28658  1.0000
  H   H12       1.0  0.05334  0.46338  0.20681  1.0000
  H   H13       1.0  0.06804  0.45920  0.26792  1.0000
  Fe  Fe6       1.0  0.03069  0.48105  0.47326  1.0000
  C   C12       1.0  0.17707  0.47385  0.68188  1.0000
  H   H14       1.0  0.00377  0.40513  0.28578  1.0000
  C   C13       1.0  0.08941  0.47874  0.62936  1.0000
  S   S7        1.0  0.04801  0.48972  0.08468  1.0000
  Fe  Fe7       1.0  0.05184  0.46845  0.05230  1.0000
  C   C14       1.0  0.14843  0.48882  0.61507  1.0000
  S   S8        1.0  0.06849  0.46600  0.57111  1.0000
  H   H15       1.0  0.14961  0.49879  0.58893  1.0000
  C   C15       1.0  0.08651  0.47604  0.97303  1.0000
  S   S9        1.0  0.07929  0.47351  0.02765  1.0000
  Fe  Fe8       1.0  0.01457  0.44803  0.06731  1.0000
  H   H16       1.0  0.07263  0.47053  0.87761  1.0000
  H   H17       1.0  0.08201  0.46720  0.64931  1.0000
  S   S10       1.0  0.05840  0.48575  0.45937  1.0000
  H   H18       1.0  0.12380  0.47483  0.59916  1.0000
  H   H19       1.0  0.06204  0.50277  0.22953  1.0000
  H   H20       1.0  0.18736  0.50450  0.64675  1.0000
  S   S11       1.0  0.00821  0.46825  0.09875  1.0000
  S   S12       1.0  0.10567  0.48195  0.83165  1.0000
  N   N1        1.0  0.16543  0.48797  0.62257  1.0000
  C   C16       1.0  0.02529  0.42039  0.39100  1.0000
  C   C17       1.0  0.10389  0.48223  0.95903  1.0000
  H   H21       1.0  0.03306  0.41439  0.37268  1.0000
  H   H22       1.0  0.02738  0.41853  0.42435  1.0000
  H   H23       1.0  0.16705  0.47253  0.57294  1.0000
  H   H24       1.0  0.12339  0.48928  0.90530  1.0000
  C   C18       1.0  0.09506  0.49666  0.56326  1.0000
  H   H25       1.0  0.13999  0.46853  0.57418  1.0000
  H   H26       1.0  0.09215  0.49903  0.53187  1.0000
  C   C19       1.0  0.10292  0.49054  0.64455  1.0000
  H   H27       1.0  0.03569  0.43075  0.31040  1.0000
  H   H28       1.0  0.04303  0.49895  0.52861  1.0000
  S   S13       1.0  0.01969  0.50168  0.47232  1.0000
  H   H29       1.0  0.15168  0.47222  0.68031  1.0000
  C   C20       1.0  0.08141  0.47407  0.90019  1.0000
  C   C21       1.0  0.00648  0.41201  0.38819  1.0000
  H   H30       1.0  0.17399  0.46146  0.70132  1.0000
  C   C22       1.0  0.11000  0.48466  0.91568  1.0000
  H   H31       1.0  0.02973  0.43419  0.38128  1.0000
  C   C23       1.0  0.16254  0.47334  0.65627  1.0000
  C   C24       1.0  0.09875  0.48046  0.88611  1.0000
  H   H32       1.0  0.11265  0.48518  0.98182  1.0000
  H   H33       1.0  0.01435  0.44190  0.33522  1.0000
  S   S14       1.0  0.14281  0.49702  0.73574  1.0000
  S   S15       1.0  0.03111  0.46601  0.01209  1.0000
  H   H34       1.0  0.15902  0.46115  0.64258  1.0000
  H   H35       1.0  0.10576  0.48806  0.67599  1.0000
  H   H36       1.0  0.08145  0.49490  0.19474  1.0000
  H   H37       1.0  0.07831  0.49933  0.14060  1.0000
  C   C25       1.0  0.19234  0.48592  0.58030  1.0000
  C   C26       1.0  0.01123  0.40999  0.31153  1.0000
  H   H38       1.0  0.00405  0.42197  0.60167  1.0000
  H   H39       1.0  0.02399  0.43344  0.26834  1.0000
  H   H40       1.0  0.00331  0.39826  0.39847  1.0000
  H   H41       1.0  0.17317  0.49398  0.55478  1.0000
  H   H42       1.0  0.19867  0.48972  0.54729  1.0000
  C   C27       1.0  0.08644  0.50369  0.16525  1.0000
  H   H43       1.0  0.06871  0.50405  0.95433  1.0000
  H   H44       1.0  0.19999  0.49554  0.59825  1.0000
  Fe  Fe9       1.0  0.12883  0.50168  0.79440  1.0000
  C   C28       1.0  0.17510  0.50442  0.63767  1.0000
  H   H45       1.0  0.07058  0.50428  0.89807  1.0000
  Fe  Fe10      1.0  0.18985  0.68827  0.82265  1.0000
  S   S16       1.0  0.18970  0.66247  0.84802  1.0000
  H   H46       1.0  0.09676  0.62501  0.79513  1.0000
  Fe  Fe11      1.0  0.15731  0.67241  0.78343  1.0000
  S   S17       1.0  0.15533  0.64617  0.80677  1.0000
  S   S18       1.0  0.13670  0.67572  0.74695  1.0000
  Fe  Fe12      1.0  0.16201  0.65619  0.86734  1.0000
  S   S19       1.0  0.14925  0.63834  0.92667  1.0000
  Fe  Fe13      1.0  0.18291  0.65459  0.78555  1.0000
  S   S20       1.0  0.19206  0.63668  0.74945  1.0000
  S   S21       1.0  0.16215  0.68218  0.84601  1.0000
  S   S22       1.0  0.18493  0.68068  0.75796  1.0000
  Fe  Fe14      1.0  0.16583  0.51681  0.75300  1.0000
  S   S23       1.0  0.16080  0.53825  0.71678  1.0000
  H   H47       1.0  0.21899  0.60994  0.75771  1.0000
  H   H48       1.0  0.08340  0.58097  0.65355  1.0000
  S   S24       1.0  0.12183  0.52204  0.76005  1.0000
  C   C29       1.0  0.22535  0.57078  0.79559  1.0000
  H   H49       1.0  0.09242  0.56654  0.21515  1.0000
  H   H50       1.0  0.00865  0.53214  0.10709  1.0000
  Fe  Fe15      1.0  0.14581  0.53941  0.77705  1.0000
  S   S25       1.0  0.14405  0.56153  0.80940  1.0000
  H   H51       1.0  0.18300  0.65586  0.94291  1.0000
  S   S26       1.0  0.15218  0.51933  0.81484  1.0000
  C   C30       1.0  0.00850  0.56886  0.57639  1.0000
  C   C31       1.0  0.09401  0.54390  0.33992  1.0000
  H   H52       1.0  0.20695  0.71197  0.93526  1.0000
  C   C32       1.0  0.19473  0.55789  0.79892  1.0000
  Fe  Fe16      1.0  0.08146  0.61412  0.58937  1.0000
  S   S27       1.0  0.09000  0.60175  0.53639  1.0000
  S   S28       1.0  0.09949  0.61828  0.63892  1.0000
  Fe  Fe17      1.0  0.04565  0.60395  0.56391  1.0000
  S   S29       1.0  0.05170  0.59050  0.51043  1.0000
  Fe  Fe18      1.0  0.06565  0.58071  0.55591  1.0000
  S   S30       1.0  0.06671  0.55479  0.56960  1.0000
  Fe  Fe19      1.0  0.07538  0.61283  0.49532  1.0000
  S   S31       1.0  0.08576  0.62453  0.42744  1.0000
  S   S32       1.0  0.05765  0.59217  0.61050  1.0000
  S   S33       1.0  0.06873  0.62735  0.54662  1.0000
  Fe  Fe20      1.0  0.08201  0.61944  0.11643  1.0000
  S   S34       1.0  0.09289  0.60068  0.14437  1.0000
  S   S35       1.0  0.09806  0.64431  0.07805  1.0000
  Fe  Fe21      1.0  0.04581  0.59570  0.14113  1.0000
  S   S36       1.0  0.05414  0.57509  0.16834  1.0000
  Fe  Fe22      1.0  0.07225  0.59505  0.19903  1.0000
  S   S37       1.0  0.07173  0.58455  0.26727  1.0000
  Fe  Fe23      1.0  0.07384  0.58258  0.11201  1.0000
  S   S38       1.0  0.08208  0.56458  0.07529  1.0000
  S   S39       1.0  0.06295  0.61561  0.17425  1.0000
  S   S40       1.0  0.06391  0.60139  0.08149  1.0000
  C   C33       1.0  0.08100  0.61351  0.38300  1.0000
  C   C34       1.0  0.07051  0.59661  0.38726  1.0000
  C   C35       1.0  0.06760  0.58804  0.35144  1.0000
  C   C36       1.0  0.07485  0.59632  0.31087  1.0000
  C   C37       1.0  0.08480  0.61339  0.30637  1.0000
  C   C38       1.0  0.08797  0.62189  0.34232  1.0000
  H   H53       1.0  0.06471  0.59018  0.41821  1.0000
  H   H54       1.0  0.05957  0.57494  0.35516  1.0000
  H   H55       1.0  0.09048  0.61993  0.27536  1.0000
  H   H56       1.0  0.09600  0.63499  0.33865  1.0000
  C   C39       1.0  0.03857  0.52627  0.02732  1.0000
  C   C40       1.0  0.05436  0.52446  0.02464  1.0000
  C   C41       1.0  0.06791  0.53673  0.03756  1.0000
  C   C42       1.0  0.06567  0.55087  0.05335  1.0000
  C   C43       1.0  0.05014  0.55328  0.05373  1.0000
  C   C44       1.0  0.03664  0.54108  0.03997  1.0000
  C   C45       1.0  0.04474  0.62431  0.34080  1.0000
  H   H57       1.0  0.07994  0.53488  0.03698  1.0000
  H   H58       1.0  0.04841  0.56432  0.06543  1.0000
  H   H59       1.0  0.02464  0.54289  0.04068  1.0000
  H   H60       1.0  0.09823  0.52552  0.19484  1.0000
  H   H61       1.0  0.22881  0.70751  0.97272  1.0000
  C   C46       1.0  0.05207  0.52305  0.55106  1.0000
  C   C47       1.0  0.05108  0.53924  0.55005  1.0000
  C   C48       1.0  0.03892  0.54323  0.52929  1.0000
  C   C49       1.0  0.02857  0.53136  0.50684  1.0000
  H   H62       1.0  0.21374  0.68021  0.97450  1.0000
  H   H63       1.0  0.06136  0.51986  0.56739  1.0000
  H   H64       1.0  0.03783  0.55557  0.52933  1.0000
  H   H65       1.0  0.01962  0.53467  0.48937  1.0000
  H   H66       1.0  0.02714  0.58270  0.06760  1.0000
  H   H67       1.0  0.19367  0.58797  0.80295  1.0000
  H   H68       1.0  0.07734  0.53351  0.95211  1.0000
  H   H69       1.0  0.08150  0.57968  0.46932  1.0000
  H   H70       1.0  0.10203  0.52781  0.96613  1.0000
  H   H71       1.0  0.10001  0.52951  0.49413  1.0000
  H   H72       1.0  0.09865  0.55935  0.87951  1.0000
  H   H73       1.0  0.19408  0.67805  0.03551  1.0000
  H   H74       1.0  0.19934  0.55294  0.71360  1.0000
  H   H75       1.0  0.09138  0.52849  0.79770  1.0000
  H   H76       1.0  0.09277  0.57993  0.70132  1.0000
  H   H77       1.0  0.05169  0.54078  0.14085  1.0000
  C   C50       1.0  0.21172  0.52207  0.79940  1.0000
  C   C51       1.0  0.08891  0.52222  0.17224  1.0000
  C   C52       1.0  0.08239  0.57333  0.68411  1.0000
  H   H78       1.0  0.06728  0.54952  0.47088  1.0000
  C   C53       1.0  0.21007  0.57745  0.73714  1.0000
  H   H79       1.0  0.09157  0.54685  0.82186  1.0000
  H   H80       1.0  0.12652  0.52417  0.89210  1.0000
  H   H81       1.0  0.12771  0.52156  0.94712  1.0000
  C   C54       1.0  0.01359  0.57878  0.07369  1.0000
  C   C55       1.0  0.11194  0.64266  0.03508  1.0000
  C   C56       1.0  0.11528  0.62765  0.03164  1.0000
  C   C57       1.0  0.12676  0.62663  0.99824  1.0000
  C   C58       1.0  0.13475  0.64045  0.96736  1.0000
  C   C59       1.0  0.13110  0.65537  0.96992  1.0000
  C   C60       1.0  0.11987  0.65653  0.00402  1.0000
  H   H82       1.0  0.10919  0.61684  0.05512  1.0000
  H   H83       1.0  0.12942  0.61500  0.99639  1.0000
  H   H84       1.0  0.13700  0.66600  0.94596  1.0000
  H   H85       1.0  0.11726  0.66815  0.00638  1.0000
  C   C61       1.0  0.12474  0.65939  0.71973  1.0000
  C   C62       1.0  0.11571  0.66313  0.68819  1.0000
  C   C63       1.0  0.10717  0.65056  0.66401  1.0000
  C   C64       1.0  0.10758  0.63414  0.67149  1.0000
  C   C65       1.0  0.11596  0.63030  0.70426  1.0000
  C   C66       1.0  0.12444  0.64280  0.72825  1.0000
  H   H86       1.0  0.11572  0.67590  0.68156  1.0000
  H   H87       1.0  0.10076  0.65369  0.63882  1.0000
  H   H88       1.0  0.11625  0.61761  0.71049  1.0000
  H   H89       1.0  0.13096  0.63956  0.75284  1.0000
  C   C67       1.0  0.17929  0.61558  0.76615  1.0000
  C   C68       1.0  0.16951  0.61130  0.80565  1.0000
  C   C69       1.0  0.15876  0.59468  0.81833  1.0000
  C   C70       1.0  0.15784  0.58213  0.79184  1.0000
  C   C71       1.0  0.16775  0.58626  0.75240  1.0000
  C   C72       1.0  0.17854  0.60299  0.73964  1.0000
  H   H90       1.0  0.17032  0.62079  0.82678  1.0000
  H   H91       1.0  0.15121  0.59154  0.84897  1.0000
  H   H92       1.0  0.16697  0.57664  0.73168  1.0000
  H   H93       1.0  0.18609  0.60626  0.70902  1.0000
  H   H94       1.0  0.11440  0.61631  0.89563  1.0000
  C   C73       1.0  0.05244  0.53161  0.38898  1.0000
  H   H95       1.0  0.16739  0.65650  0.01176  1.0000
  H   H96       1.0  0.09526  0.53015  0.14180  1.0000
  C   C74       1.0  0.24223  0.52757  0.79052  1.0000
  H   H97       1.0  0.07834  0.52110  0.48796  1.0000
  C   C75       1.0  0.08942  0.53285  0.48297  1.0000
  H   H98       1.0  0.09835  0.51118  0.93491  1.0000
  H   H99       1.0  0.07107  0.51973  0.39799  1.0000
  H   H100      1.0  0.23691  0.73301  0.88227  1.0000
  H   H101      1.0  0.08423  0.55126  0.15501  1.0000
  H   H102      1.0  0.05191  0.53332  0.24893  1.0000
  C   C76       1.0  0.02094  0.62889  0.22777  1.0000
  S   S41       1.0  0.01770  0.59033  0.15115  1.0000
  C   C77       1.0  0.22921  0.73433  0.78070  1.0000
  H   H103      1.0  0.15662  0.69439  0.93681  1.0000
  N   N2        1.0  0.09681  0.53396  0.90314  1.0000
  C   C78       1.0  0.10533  0.55286  0.89905  1.0000
  C   C79       1.0  0.09889  0.52820  0.86033  1.0000
  C   C80       1.0  0.10449  0.52505  0.93329  1.0000
  C   C81       1.0  0.07855  0.52976  0.92000  1.0000
  C   C82       1.0  0.08845  0.53299  0.82804  1.0000
  H   H104      1.0  0.04674  0.60061  0.26601  1.0000
  H   H105      1.0  0.00993  0.56998  0.01305  1.0000
  H   H106      1.0  0.18690  0.53144  0.62045  1.0000
  C   C83       1.0  0.06661  0.52926  0.41263  1.0000
  H   H107      1.0  0.05184  0.51790  0.28925  1.0000
  H   H108      1.0  0.06942  0.52180  0.67839  1.0000
  C   C84       1.0  0.20294  0.67866  0.95649  1.0000
  C   C85       1.0  0.09430  0.54028  0.43611  1.0000
  H   H109      1.0  0.18590  0.56111  0.86365  1.0000
  H   H110      1.0  0.19852  0.58007  0.73029  1.0000
  H   H111      1.0  0.20022  0.52027  0.81983  1.0000
  H   H112      1.0  0.10229  0.55097  0.21288  1.0000
  H   H113      1.0  0.19191  0.65313  0.99097  1.0000
  C   C86       1.0  0.24232  0.58200  0.76989  1.0000
  H   H114      1.0  0.10611  0.55131  0.43368  1.0000
  C   C87       1.0  0.23844  0.73746  0.84913  1.0000
  H   H115      1.0  0.04547  0.53861  0.40639  1.0000
  C   C88       1.0  0.19454  0.65943  0.95815  1.0000
  H   H116      1.0  0.08811  0.51694  0.68878  1.0000
  H   H117      1.0  0.01314  0.57155  0.29599  1.0000
  N   N3        1.0  0.09762  0.55309  0.65742  1.0000
  C   C89       1.0  0.09271  0.53718  0.63617  1.0000
  C   C90       1.0  0.10695  0.56758  0.62363  1.0000
  C   C91       1.0  0.08166  0.55525  0.67720  1.0000
  C   C92       1.0  0.10836  0.55091  0.69055  1.0000
  C   C93       1.0  0.08143  0.52084  0.66409  1.0000
  C   C94       1.0  0.12354  0.56694  0.60076  1.0000
  H   H118      1.0  0.22645  0.57203  0.82950  1.0000
  C   C95       1.0  0.11639  0.56630  0.71360  1.0000
  H   H119      1.0  0.08611  0.53870  0.60875  1.0000
  H   H120      1.0  0.10398  0.53451  0.62299  1.0000
  H   H121      1.0  0.11012  0.57999  0.63589  1.0000
  H   H122      1.0  0.09874  0.56843  0.59920  1.0000
  H   H123      1.0  0.08300  0.53386  0.33172  1.0000
  H   H124      1.0  0.20695  0.58564  0.84043  1.0000
  H   H125      1.0  0.10083  0.54067  0.71582  1.0000
  H   H126      1.0  0.11845  0.54619  0.67795  1.0000
  H   H127      1.0  0.03939  0.51147  0.24750  1.0000
  H   H128      1.0  0.03397  0.63801  0.21998  1.0000
  H   H129      1.0  0.19557  0.71437  0.98232  1.0000
  H   H130      1.0  0.12968  0.57878  0.57894  1.0000
  H   H131      1.0  0.13251  0.56614  0.62293  1.0000
  H   H132      1.0  0.12138  0.55641  0.58111  1.0000
  H   H133      1.0  0.24392  0.75398  0.73099  1.0000
  H   H134      1.0  0.18407  0.68974  0.91146  1.0000
  C   C96       1.0  0.04173  0.51122  0.52881  1.0000
  H   H135      1.0  0.10764  0.56682  0.74110  1.0000
  H   H136      1.0  0.12076  0.57849  0.69317  1.0000
  H   H137      1.0  0.12794  0.56520  0.72514  1.0000
  N   N4        1.0  0.16823  0.65810  0.63012  1.0000
  C   C97       1.0  0.16650  0.65175  0.67628  1.0000
  C   C98       1.0  0.17649  0.67705  0.62569  1.0000
  C   C99       1.0  0.17967  0.65049  0.60657  1.0000
  C   C100      1.0  0.15102  0.65260  0.61603  1.0000
  C   C101      1.0  0.15932  0.63238  0.68801  1.0000
  C   C102      1.0  0.16669  0.68662  0.65023  1.0000
  C   C103      1.0  0.18379  0.65553  0.55860  1.0000
  C   C104      1.0  0.14852  0.66282  0.57653  1.0000
  H   H138      1.0  0.17888  0.65630  0.68830  1.0000
  H   H139      1.0  0.15818  0.65690  0.69561  1.0000
  H   H140      1.0  0.17900  0.68281  0.59251  1.0000
  H   H141      1.0  0.18915  0.68043  0.63634  1.0000
  H   H142      1.0  0.19186  0.65358  0.61970  1.0000
  H   H143      1.0  0.17413  0.63648  0.61064  1.0000
  H   H144      1.0  0.14704  0.63908  0.61049  1.0000
  H   H145      1.0  0.14161  0.65331  0.64167  1.0000
  H   H146      1.0  0.16875  0.62640  0.67873  1.0000
  H   H147      1.0  0.15620  0.62950  0.72280  1.0000
  H   H148      1.0  0.14761  0.62639  0.67455  1.0000
  H   H149      1.0  0.17219  0.70033  0.63891  1.0000
  H   H150      1.0  0.17248  0.65055  0.54268  1.0000
  H   H151      1.0  0.19289  0.64962  0.54604  1.0000
  H   H152      1.0  0.18988  0.66932  0.54970  1.0000
  H   H153      1.0  0.14024  0.65394  0.55768  1.0000
  H   H154      1.0  0.16006  0.67016  0.55511  1.0000
  H   H155      1.0  0.14155  0.67133  0.58582  1.0000
  C   C105      1.0  0.11178  0.62095  0.86460  1.0000
  H   H156      1.0  0.08141  0.63205  0.77410  1.0000
  H   H157      1.0  0.12161  0.61952  0.84119  1.0000
  H   H158      1.0  0.09966  0.61246  0.85756  1.0000
  H   H159      1.0  0.09716  0.56999  0.46942  1.0000
  H   H160      1.0  0.16525  0.66313  0.06258  1.0000
  H   H161      1.0  0.21419  0.61473  0.80898  1.0000
  H   H162      1.0  0.12167  0.64647  0.83259  1.0000
  H   H163      1.0  0.15321  0.68248  0.64624  1.0000
  H   H164      1.0  0.16781  0.68532  0.68428  1.0000
  H   H165      1.0  0.07551  0.61894  0.82326  1.0000
  C   C106      1.0  0.08600  0.62925  0.80409  1.0000
  C   C107      1.0  0.03036  0.51554  0.50565  1.0000
  H   H166      1.0  0.07244  0.63552  0.90063  1.0000
  C   C108      1.0  0.17844  0.68687  0.94512  1.0000
  H   H167      1.0  0.08063  0.65021  0.82849  1.0000
  H   H168      1.0  0.16425  0.69884  0.98620  1.0000
  H   H169      1.0  0.07045  0.57280  0.70270  1.0000
  N   N5        1.0  0.09777  0.64424  0.86746  1.0000
  S   S42       1.0  0.13002  0.52056  0.63657  1.0000
  C   C109      1.0  0.11370  0.63991  0.86271  1.0000
  H   H170      1.0  0.08705  0.54201  0.50339  1.0000
  S   S43       1.0  0.01885  0.60320  0.57963  1.0000
  H   H171      1.0  0.11629  0.51979  0.55808  1.0000
  H   H172      1.0  0.10133  0.65483  0.80192  1.0000
  C   C110      1.0  0.07460  0.55649  0.44058  1.0000
  H   H173      1.0  0.22385  0.72459  0.99256  1.0000
  C   C111      1.0  0.08394  0.63188  0.89895  1.0000
  H   H174      1.0  0.12140  0.64481  0.88792  1.0000
  H   H175      1.0  0.07977  0.61902  0.88945  1.0000
  N   N6        1.0  0.07319  0.52592  0.18734  1.0000
  C   C112      1.0  0.22701  0.72830  0.82351  1.0000
  H   H176      1.0  0.08815  0.64124  0.96058  1.0000
  C   C113      1.0  0.06078  0.51975  0.15667  1.0000
  S   S44       1.0  0.19235  0.51631  0.73290  1.0000
  H   H177      1.0  0.18127  0.53978  0.85346  1.0000
  H   H178      1.0  0.13101  0.54220  0.92163  1.0000
  S   S45       1.0  0.21001  0.70979  0.84709  1.0000
  C   C114      1.0  0.09146  0.64550  0.82548  1.0000
  H   H179      1.0  0.09412  0.55909  0.95825  1.0000
  H   H180      1.0  0.22057  0.72755  0.76050  1.0000
  H   H181      1.0  0.10046  0.56522  0.37442  1.0000
  C   C115      1.0  0.10661  0.56090  0.94066  1.0000
  H   H182      1.0  0.24260  0.59428  0.75465  1.0000
  H   H183      1.0  0.11225  0.53357  0.84563  1.0000
  H   H184      1.0  0.06556  0.56073  0.42402  1.0000
  H   H185      1.0  0.20223  0.55151  0.86049  1.0000
  H   H186      1.0  0.09603  0.51428  0.86266  1.0000
  H   H187      1.0  0.12576  0.67402  0.84163  1.0000
  C   C116      1.0  0.24250  0.74937  0.76403  1.0000
  C   C117      1.0  0.24175  0.52605  0.74758  1.0000
  H   H188      1.0  0.06704  0.54879  0.19321  1.0000
  N   N7        1.0  0.08109  0.54511  0.41539  1.0000
  H   H189      1.0  0.10035  0.62817  0.94549  1.0000
  C   C118      1.0  0.08815  0.63012  0.94436  1.0000
  H   H190      1.0  0.05698  0.53785  0.35628  1.0000
  H   H191      1.0  0.11829  0.55670  0.88187  1.0000
  C   C119      1.0  0.07810  0.54479  0.18688  1.0000
  H   H192      1.0  0.07650  0.51848  0.25153  1.0000
  H   H193      1.0  0.02158  0.57005  0.57556  1.0000
  C   C120      1.0  0.16813  0.69866  0.95233  1.0000
  H   H194      1.0  0.06037  0.52305  0.44462  1.0000
  H   H195      1.0  0.11422  0.55623  0.96139  1.0000
  H   H196      1.0  0.10838  0.67998  0.82624  1.0000
  C   C121      1.0  0.06643  0.51660  0.23087  1.0000
  C   C122      1.0  0.10166  0.66134  0.88316  1.0000
  C   C123      1.0  0.11418  0.67645  0.85336  1.0000
  H   H197      1.0  0.10712  0.66140  0.91326  1.0000
  C   C124      1.0  0.00542  0.53871  0.17020  1.0000
  H   H198      1.0  0.08040  0.56033  0.35817  1.0000
  H   H199      1.0  0.11802  0.68766  0.87074  1.0000
  C   C125      1.0  0.03454  0.59563  0.28717  1.0000
  C   C126      1.0  0.08993  0.55269  0.21865  1.0000
  C   C127      1.0  0.08887  0.55444  0.37230  1.0000
  C   C128      1.0  0.21875  0.71075  0.99110  1.0000
  H   H200      1.0  0.10321  0.53829  0.35070  1.0000
  H   H201      1.0  0.05149  0.61523  0.34473  1.0000
  H   H202      1.0  0.07834  0.61898  0.96312  1.0000
  H   H203      1.0  0.08994  0.66437  0.89045  1.0000
  H   H204      1.0  0.03761  0.59251  0.31894  1.0000
  C   C129      1.0  0.08797  0.57267  0.45035  1.0000
  H   H205      1.0  0.18318  0.69261  0.03566  1.0000
  H   H206      1.0  0.05603  0.51332  0.01357  1.0000
  H   H207      1.0  0.02096  0.57981  0.24119  1.0000
  H   H208      1.0  0.10026  0.55240  0.31044  1.0000
  H   H209      1.0  0.00907  0.62648  0.33833  1.0000
  H   H210      1.0  0.16943  0.67380  0.94778  1.0000
  N   N8        1.0  0.19197  0.68827  0.97302  1.0000
  C   C130      1.0  0.18495  0.68216  0.01883  1.0000
  C   C131      1.0  0.16784  0.66759  0.02830  1.0000
  H   H211      1.0  0.19633  0.54687  0.78463  1.0000
  C   C132      1.0  0.19105  0.55251  0.84696  1.0000
  C   C133      1.0  0.02106  0.61121  0.24399  1.0000
  H   H212      1.0  0.09782  0.53060  0.41962  1.0000
  C   C134      1.0  0.00374  0.58317  0.57793  1.0000
  H   H213      1.0  0.11311  0.57476  0.93319  1.0000
  H   H214      1.0  0.07695  0.54730  0.70822  1.0000
  C   C135      1.0  0.21871  0.60586  0.79150  1.0000
  C   C136      1.0  0.20654  0.58778  0.80600  1.0000
  H   H215      1.0  0.22127  0.55814  0.71990  1.0000
  H   H216      1.0  0.01935  0.54391  0.16352  1.0000
  H   H217      1.0  0.07476  0.52676  0.83791  1.0000
  H   H218      1.0  0.04316  0.51895  0.38704  1.0000
  H   H219      1.0  0.03435  0.62153  0.36704  1.0000
  H   H220      1.0  0.03907  0.52608  0.18547  1.0000
  S   S46       1.0  0.02111  0.50899  0.02052  1.0000
  H   H221      1.0  0.08401  0.54781  0.25153  1.0000
  H   H222      1.0  0.03800  0.52058  0.13316  1.0000
  H   H223      1.0  0.20853  0.68377  0.92316  1.0000
  H   H224      1.0  0.22450  0.55756  0.79179  1.0000
  H   H225      1.0  0.09461  0.58129  0.42141  1.0000
  Fe  Fe24      1.0  0.13717  0.51864  0.70301  1.0000
  H   H226      1.0  0.07139  0.55074  0.65740  1.0000
  H   H227      1.0  0.03363  0.63549  0.29569  1.0000
  H   H228      1.0  0.02987  0.60869  0.21955  1.0000
  N   N9        1.0  0.20965  0.57373  0.78403  1.0000
  C   C137      1.0  0.22640  0.52258  0.73074  1.0000
  H   H229      1.0  0.24655  0.57494  0.74595  1.0000
  H   H230      1.0  0.15733  0.67185  0.02069  1.0000
  H   H231      1.0  0.05454  0.50581  0.16308  1.0000
  C   C138      1.0  0.00581  0.58116  0.11192  1.0000
  C   C139      1.0  0.20282  0.70668  0.96903  1.0000
  C   C140      1.0  0.22709  0.52557  0.81623  1.0000
  C   C141      1.0  0.01078  0.60229  0.32041  1.0000
  H   H232      1.0  0.05001  0.62900  0.27298  1.0000
  C   C142      1.0  0.03864  0.62491  0.29721  1.0000
  H   H233      1.0  0.21500  0.56850  0.67706  1.0000
  C   C143      1.0  0.02449  0.57851  0.27325  1.0000
  H   H234      1.0  0.23149  0.60753  0.79947  1.0000
  H   H235      1.0  0.06742  0.52230  0.12380  1.0000
  C   C144      1.0  0.04665  0.52736  0.15469  1.0000
  H   H236      1.0  0.05390  0.63689  0.34394  1.0000
  H   H237      1.0  0.22051  0.58905  0.72345  1.0000
  H   H238      1.0  0.20338  0.65431  0.94069  1.0000
  H   H239      1.0  0.22627  0.52139  0.69752  1.0000
  C   C145      1.0  0.21128  0.52061  0.75641  1.0000
  H   H240      1.0  0.18302  0.55920  0.78854  1.0000
  N   N10       1.0  0.02604  0.60877  0.28742  1.0000
  C   C146      1.0  0.12353  0.52865  0.92243  1.0000
  H   H241      1.0  0.17536  0.71174  0.93751  1.0000
  H   H242      1.0  0.07244  0.53736  0.90189  1.0000
  C   C147      1.0  0.21155  0.56336  0.71090  1.0000
  C   C148      1.0  0.05151  0.52011  0.25484  1.0000
  H   H243      1.0  0.22726  0.52658  0.84953  1.0000
  H   H244      1.0  0.03255  0.57048  0.27220  1.0000
  H   H245      1.0  0.21616  0.70437  0.02381  1.0000
  H   H246      1.0  0.07809  0.51041  0.64400  1.0000
  H   H247      1.0  0.01426  0.59841  0.35114  1.0000
  C   C149      1.0  0.10877  0.50835  0.57818  1.0000
  C   C150      1.0  0.17883  0.52049  0.60657  1.0000
  H   H248      1.0  0.01361  0.63398  0.24997  1.0000
  H   H249      1.0  0.18580  0.51988  0.57607  1.0000
  H   H250      1.0  0.00851  0.60188  0.24140  1.0000
  H   H251      1.0  0.01526  0.62808  0.19797  1.0000
  H   H252      1.0  0.16824  0.50623  0.66713  1.0000
  C   C151      1.0  0.00381  0.57156  0.04285  1.0000
  H   H253      1.0  0.16722  0.52325  0.60150  1.0000
  C   C152      1.0  0.06755  0.51089  0.92440  1.0000
  H   H254      1.0  0.00807  0.50670  0.16963  1.0000
  H   H255      1.0  0.05418  0.50979  0.92395  1.0000
  C   C153      1.0  0.11276  0.50537  0.61892  1.0000
  H   H256      1.0  0.00224  0.52839  0.19628  1.0000
  Fe  Fe25      1.0  0.45000  0.07447  0.92721  1.0000
  S   S47       1.0  0.43336  0.07874  0.98136  1.0000
  S   S48       1.0  0.45462  0.08912  0.86184  1.0000
  Fe  Fe26      1.0  0.45774  0.04763  0.98065  1.0000
  S   S49       1.0  0.44137  0.04910  0.03794  1.0000
  Fe  Fe27      1.0  0.42314  0.05036  0.99335  1.0000
  S   S50       1.0  0.39494  0.03840  0.00728  1.0000
  Fe  Fe28      1.0  0.45312  0.07733  0.02200  1.0000
  S   S51       1.0  0.46107  0.08857  0.08215  1.0000
  S   S52       1.0  0.43847  0.04625  0.93711  1.0000
  C   C154      1.0  0.44161  0.09238  0.36959  1.0000
  C   C155      1.0  0.45166  0.12607  0.48371  1.0000
  S   S53       1.0  0.47075  0.07559  0.96675  1.0000
  H   H257      1.0  0.46871  0.03547  0.45604  1.0000
  Fe  Fe29      1.0  0.43150  0.05409  0.54385  1.0000
  S   S54       1.0  0.42410  0.07103  0.58656  1.0000
  H   H258      1.0  0.41653  0.06093  0.87565  1.0000
  Fe  Fe30      1.0  0.44830  0.09100  0.55587  1.0000
  H   H259      1.0  0.43430  0.01998  0.18617  1.0000
  Fe  Fe31      1.0  0.44020  0.06387  0.63128  1.0000
  S   S55       1.0  0.43247  0.05301  0.70029  1.0000
  S   S56       1.0  0.45435  0.07465  0.50981  1.0000
  S   S57       1.0  0.44546  0.04525  0.59063  1.0000
  H   H260      1.0  0.49601  0.09715  0.04751  1.0000
  H   H261      1.0  0.38195  0.06858  0.84140  1.0000
  H   H262      1.0  0.41196  0.08198  0.34485  1.0000
  C   C156      1.0  0.47133  0.11064  0.13991  1.0000
  C   C157      1.0  0.44114  0.13481  0.47140  1.0000
  H   H263      1.0  0.39879  0.07670  0.39338  1.0000
  H   H264      1.0  0.43160  0.13612  0.49447  1.0000
  H   H265      1.0  0.40441  0.05621  0.92573  1.0000
  H   H266      1.0  0.49096  0.23085  0.23045  1.0000
  H   H267      1.0  0.43597  0.01992  0.11450  1.0000
  H   H268      1.0  0.48064  0.04285  0.76661  1.0000
  C   C158      1.0  0.49748  0.24182  0.24504  1.0000
  S   S58       1.0  0.44892  0.11763  0.53704  1.0000
  C   C159      1.0  0.37431  0.04289  0.90659  1.0000
  S   S59       1.0  0.41528  0.03768  0.50123  1.0000
  H   H269      1.0  0.50025  0.09545  0.56431  1.0000
  H   H270      1.0  0.45897  0.21975  0.34001  1.0000
  C   C160      1.0  0.44902  0.07901  0.81659  1.0000
  C   C161      1.0  0.44271  0.06141  0.81859  1.0000
  C   C162      1.0  0.43789  0.05371  0.78253  1.0000
  C   C163      1.0  0.43951  0.06348  0.74386  1.0000
  C   C164      1.0  0.44608  0.08109  0.74147  1.0000
  C   C165      1.0  0.45080  0.08881  0.77776  1.0000
  H   H271      1.0  0.44153  0.05368  0.84789  1.0000
  H   H272      1.0  0.43288  0.04008  0.78458  1.0000
  H   H273      1.0  0.44725  0.08875  0.71189  1.0000
  H   H274      1.0  0.45566  0.10245  0.77585  1.0000
  C   C166      1.0  0.46787  0.10910  0.09825  1.0000
  H   H275      1.0  0.44448  0.10629  0.36556  1.0000
  H   H276      1.0  0.44042  0.08866  0.33729  1.0000
  H   H277      1.0  0.46912  0.09937  0.16147  1.0000
  H   H278      1.0  0.43352  0.14710  0.41976  1.0000
  H   H279      1.0  0.47748  0.18741  0.45505  1.0000
  C   C167      1.0  0.48670  0.07056  0.76372  1.0000
  C   C168      1.0  0.38383  0.01649  0.01324  1.0000
  H   H280      1.0  0.39689  0.07180  0.77343  1.0000
  C   C169      1.0  0.40017  0.06379  0.79787  1.0000
  C   C170      1.0  0.40295  0.01665  0.10611  1.0000
  H   H281      1.0  0.36029  0.02037  0.02936  1.0000
  H   H282      1.0  0.39906  0.08038  0.46036  1.0000
  C   C171      1.0  0.44231  0.14115  0.42912  1.0000
  H   H283      1.0  0.39987  0.10363  0.35348  1.0000
  S   S60       1.0  0.47894  0.17902  0.24895  1.0000
  N   N11       1.0  0.42547  0.08371  0.39898  1.0000
  C   C172      1.0  0.47780  0.12661  0.15389  1.0000
  H   H284      1.0  0.45669  0.07607  0.38367  1.0000
  H   H285      1.0  0.49606  0.05364  0.10594  1.0000
  H   H286      1.0  0.42172  0.11315  0.35711  1.0000
  H   H287      1.0  0.35576  0.04950  0.94589  1.0000
  H   H288      1.0  0.40636  0.10714  0.40403  1.0000
  H   H289      1.0  0.40256  0.01380  0.88496  1.0000
  C   C173      1.0  0.42660  0.09181  0.43910  1.0000
  C   C174      1.0  0.41112  0.08468  0.47331  1.0000
  H   H290      1.0  0.46811  0.12279  0.03862  1.0000
  H   H291      1.0  0.41209  0.07397  0.49417  1.0000
  H   H292      1.0  0.47982  0.15109  0.06299  1.0000
  C   C175      1.0  0.45696  0.02826  0.47724  1.0000
  C   C176      1.0  0.48479  0.01696  0.50194  1.0000
  H   H293      1.0  0.45045  0.17752  0.44696  1.0000
  C   C177      1.0  0.42220  0.05498  0.37211  1.0000
  H   H294      1.0  0.48989  0.21408  0.40955  1.0000
  H   H295      1.0  0.41145  0.05460  0.35482  1.0000
  C   C178      1.0  0.45460  0.13961  0.39891  1.0000
  C   C179      1.0  0.48103  0.14131  0.12624  1.0000
  C   C180      1.0  0.47744  0.13980  0.08460  1.0000
  H   H296      1.0  0.43407  0.05978  0.35005  1.0000
  S   S61       1.0  0.46381  0.08510  0.60400  1.0000
  C   C181      1.0  0.47079  0.12377  0.07069  1.0000
  H   H297      1.0  0.42977  0.10567  0.43279  1.0000
  H   H298      1.0  0.42044  0.04172  0.38425  1.0000
  H   H299      1.0  0.43725  0.09051  0.45461  1.0000
  C   C182      1.0  0.41111  0.08558  0.37735  1.0000
  H   H300      1.0  0.43224  0.06336  0.42896  1.0000
  H   H301      1.0  0.47332  0.04520  0.69601  1.0000
  H   H302      1.0  0.43431  0.19034  0.36153  1.0000
  C   C183      1.0  0.42262  0.06522  0.40983  1.0000
  C   C184      1.0  0.48167  0.05270  0.78797  1.0000
  H   H303      1.0  0.37476  0.04871  0.82360  1.0000
  H   H304      1.0  0.45595  0.03488  0.50527  1.0000
  S   S62       1.0  0.45414  0.14610  0.34561  1.0000
  H   H305      1.0  0.41042  0.09480  0.49272  1.0000
  H   H306      1.0  0.37659  0.03592  0.93490  1.0000
  H   H307      1.0  0.41603  0.08762  0.86531  1.0000
  H   H308      1.0  0.41040  0.05891  0.43038  1.0000
  C   C185      1.0  0.45750  0.08946  0.38288  1.0000
  Fe  Fe32      1.0  0.46769  0.06703  0.55997  1.0000
  C   C186      1.0  0.39632  0.02232  0.89812  1.0000
  C   C187      1.0  0.40989  0.10347  0.37301  1.0000
  H   H309      1.0  0.40419  0.02923  0.92066  1.0000
  H   H310      1.0  0.37642  0.06413  0.94342  1.0000
  S   S63       1.0  0.47307  0.03055  0.98154  1.0000
  C   C188      1.0  0.44355  0.18732  0.33966  1.0000
  C   C189      1.0  0.46215  0.01282  0.56157  1.0000
  H   H311      1.0  0.46040  0.09386  0.41364  1.0000
  H   H312      1.0  0.49677  0.18850  0.42597  1.0000
  C   C190      1.0  0.38584  0.05763  0.83520  1.0000
  C   C191      1.0  0.40449  0.06098  0.89245  1.0000
  N   N12       1.0  0.50160  0.07518  0.72974  1.0000
  H   H313      1.0  0.48047  0.12753  0.18594  1.0000
  H   H314      1.0  0.45616  0.17603  0.38072  1.0000
  C   C192      1.0  0.46577  0.13162  0.41133  1.0000
  C   C193      1.0  0.46410  0.12458  0.45365  1.0000
  N   N13       1.0  0.46689  0.00690  0.52053  1.0000
  H   H315      1.0  0.40193  0.05307  0.78250  1.0000
  C   C194      1.0  0.48574  0.04298  0.05176  1.0000
  H   H316      1.0  0.47810  0.21730  0.31964  1.0000
  H   H317      1.0  0.41414  0.00490  0.18845  1.0000
  H   H318      1.0  0.49596  0.11865  0.00554  1.0000
  H   H319      1.0  0.40826  0.02211  0.07331  1.0000
  H   H320      1.0  0.47283  0.03976  0.06592  1.0000
  Fe  Fe33      1.0  0.47822  0.15927  0.30145  1.0000
  H   H321      1.0  0.49123  0.09272  0.66016  1.0000
  H   H322      1.0  0.47527  0.13033  0.38811  1.0000
  N   N14       1.0  0.38984  0.04939  0.87431  1.0000
  S   S64       1.0  0.49014  0.16171  0.14193  1.0000
  C   C195      1.0  0.44505  0.18775  0.44647  1.0000
  H   H323      1.0  0.40622  0.03840  0.84007  1.0000
  N   N15       1.0  0.46724  0.20317  0.38112  1.0000
  H   H324      1.0  0.46924  0.04957  0.80722  1.0000
  C   C196      1.0  0.45580  0.20446  0.41884  1.0000
  H   H325      1.0  0.45205  0.00522  0.05786  1.0000
  H   H326      1.0  0.47248  0.11810  0.46312  1.0000
  C   C197      1.0  0.39421  0.03429  0.86185  1.0000
  H   H327      1.0  0.39438  0.08261  0.88846  1.0000
  S   S65       1.0  0.50155  0.17554  0.32362  1.0000
  Fe  Fe34      1.0  0.49393  0.16644  0.20981  1.0000
  H   H328      1.0  0.38396  0.01409  0.91532  1.0000
  C   C198      1.0  0.48935  0.03948  0.01079  1.0000
  C   C199      1.0  0.36644  0.01115  0.02480  1.0000
  H   H329      1.0  0.43741  0.17437  0.33147  1.0000
  H   H330      1.0  0.46315  0.21309  0.43981  1.0000
  H   H331      1.0  0.47434  0.23778  0.39377  1.0000
  H   H332      1.0  0.41051  0.08454  0.92046  1.0000
  C   C200      1.0  0.49305  0.09842  0.68995  1.0000
  H   H333      1.0  0.40250  0.01147  0.44909  1.0000
  H   H334      1.0  0.47787  0.17535  0.41050  1.0000
  H   H335      1.0  0.47347  0.06663  0.68702  1.0000
  C   C201      1.0  0.40607  0.07983  0.89096  1.0000
  H   H336      1.0  0.44662  0.21027  0.40827  1.0000
  H   H337      1.0  0.46882  0.18677  0.33375  1.0000
  C   C202      1.0  0.48360  0.18753  0.42285  1.0000
  H   H338      1.0  0.48772  0.01320  0.47039  1.0000
  C   C203      1.0  0.47083  0.21854  0.34931  1.0000
  H   H339      1.0  0.46863  0.02664  0.56063  1.0000
  H   H340      1.0  0.47536  0.07152  0.75132  1.0000
  H   H341      1.0  0.49278  0.20393  0.36452  1.0000
  S   S66       1.0  0.49130  0.14570  0.26111  1.0000
  H   H342      1.0  0.48057  0.24600  0.33939  1.0000
  C   C204      1.0  0.45952  0.18787  0.35932  1.0000
  H   H343      1.0  0.44672  0.19596  0.30978  1.0000
  H   H344      1.0  0.43221  0.18306  0.43736  1.0000
  H   H345      1.0  0.48205  0.05750  0.64684  1.0000
  H   H346      1.0  0.48668  0.03067  0.49668  1.0000
  C   C205      1.0  0.41084  0.01565  0.50973  1.0000
  H   H347      1.0  0.44327  0.19033  0.47966  1.0000
  H   H348      1.0  0.49776  0.11232  0.68097  1.0000
  C   C206      1.0  0.48082  0.05822  0.68135  1.0000
  H   H349      1.0  0.41789  0.01551  0.57215  1.0000
  H   H350      1.0  0.41018  0.02479  0.12793  1.0000
  H   H351      1.0  0.48094  0.09537  0.71044  1.0000
  H   H352      1.0  0.46846  0.09692  0.35929  1.0000
  H   H353      1.0  0.41224  0.07151  0.80731  1.0000
  S   S67       1.0  0.49106  0.06104  0.54354  1.0000
  H   H354      1.0  0.36436  0.06403  0.89939  1.0000
  H   H355      1.0  0.38450  0.02640  0.84410  1.0000
  H   H356      1.0  0.48910  0.07972  0.78744  1.0000
  C   C207      1.0  0.48387  0.20295  0.39329  1.0000
  H   H357      1.0  0.42625  0.01109  0.04923  1.0000
  H   H358      1.0  0.49060  0.05207  0.81046  1.0000
  C   C208      1.0  0.48041  0.23572  0.36354  1.0000
  C   C209      1.0  0.49888  0.05085  0.07436  1.0000
  C   C210      1.0  0.36756  0.05616  0.92415  1.0000
  H   H359      1.0  0.40503  0.00851  0.99709  1.0000
  H   H360      1.0  0.49375  0.23720  0.36564  1.0000
  H   H361      1.0  0.44848  0.01105  0.56650  1.0000
  H   H362      1.0  0.44639  0.02844  0.45968  1.0000
  H   H363      1.0  0.46335  0.01135  0.62890  1.0000
  H   H364      1.0  0.36388  0.03363  0.89363  1.0000
  C   C211      1.0  0.49862  0.06387  0.69511  1.0000
  H   H365      1.0  0.39001  0.01721  0.11052  1.0000
  H   H366      1.0  0.50105  0.05200  0.70471  1.0000
  H   H367      1.0  0.50034  0.00895  0.97057  1.0000
  C   C212      1.0  0.49869  0.01585  0.52809  1.0000
  C   C213      1.0  0.43182  0.00673  0.13059  1.0000
  C   C214      1.0  0.41343  0.00798  0.54736  1.0000
  H   H368      1.0  0.49878  0.02288  0.55583  1.0000
  C   C215      1.0  0.42757  0.00714  0.17819  1.0000
  C   C216      1.0  0.40462  0.00562  0.47821  1.0000
  C   C217      1.0  0.45567  0.00974  0.48918  1.0000
  H   H369      1.0  0.47444  0.48356  0.51208  1.0000
  H   H370      1.0  0.45858  0.47164  0.58550  1.0000
  Fe  Fe35      1.0  0.44540  0.41498  0.95754  1.0000
  S   S68       1.0  0.45004  0.39097  0.94406  1.0000
  S   S69       1.0  0.42273  0.42208  0.94491  1.0000
  Fe  Fe36      1.0  0.46430  0.39437  0.00053  1.0000
  S   S70       1.0  0.46090  0.37362  0.05415  1.0000
  Fe  Fe37      1.0  0.47440  0.40819  0.90713  1.0000
  N   N16       1.0  0.32894  0.44294  0.00295  1.0000
  S   S71       1.0  0.45731  0.41687  0.01687  1.0000
  S   S72       1.0  0.46881  0.43180  0.91677  1.0000
  Fe  Fe38      1.0  0.37971  0.47162  0.07569  1.0000
  S   S73       1.0  0.35798  0.47840  0.10504  1.0000
  S   S74       1.0  0.38143  0.44565  0.08756  1.0000
  H   H371      1.0  0.49270  0.36389  0.59584  1.0000
  N   N17       1.0  0.44627  0.48126  0.02784  1.0000
  H   H372      1.0  0.37846  0.42511  0.67832  1.0000
  C   C218      1.0  0.39628  0.41913  0.59461  1.0000
  H   H373      1.0  0.41144  0.48743  0.56084  1.0000
  C   C219      1.0  0.49431  0.37875  0.06243  1.0000
  H   H374      1.0  0.43785  0.45522  0.05621  1.0000
  H   H375      1.0  0.37005  0.45365  0.63271  1.0000
  Fe  Fe39      1.0  0.47397  0.43343  0.56403  1.0000
  S   S75       1.0  0.48019  0.41265  0.59939  1.0000
  Fe  Fe40      1.0  0.44277  0.40953  0.53777  1.0000
  S   S76       1.0  0.44614  0.38654  0.57059  1.0000
  S   S77       1.0  0.42052  0.40953  0.50525  1.0000
  Fe  Fe41      1.0  0.45282  0.40225  0.62385  1.0000
  S   S78       1.0  0.44181  0.39311  0.69219  1.0000
  Fe  Fe42      1.0  0.47336  0.39886  0.54292  1.0000
  H   H376      1.0  0.46650  0.27293  0.07851  1.0000
  S   S79       1.0  0.44711  0.42413  0.59307  1.0000
  S   S80       1.0  0.46941  0.42063  0.50585  1.0000
  H   H377      1.0  0.34785  0.41695  0.97686  1.0000
  S   S81       1.0  0.47983  0.35139  0.34827  1.0000
  H   H378      1.0  0.35909  0.45189  0.54851  1.0000
  S   S82       1.0  0.37541  0.47235  0.46805  1.0000
  S   S83       1.0  0.42592  0.48519  0.45623  1.0000
  H   H379      1.0  0.39276  0.47909  0.27592  1.0000
  S   S84       1.0  0.35775  0.47490  0.36447  1.0000
  C   C220      1.0  0.40038  0.43845  0.58941  1.0000
  H   H380      1.0  0.40919  0.44313  0.55950  1.0000
  H   H381      1.0  0.34599  0.44383  0.07691  1.0000
  H   H382      1.0  0.36232  0.41897  0.64427  1.0000
  C   C221      1.0  0.47235  0.29486  0.11280  1.0000
  H   H383      1.0  0.41875  0.47104  0.57938  1.0000
  C   C222      1.0  0.39972  0.47012  0.27107  1.0000
  H   H384      1.0  0.47290  0.33569  0.70126  1.0000
  C   C223      1.0  0.47391  0.37569  0.44962  1.0000
  S   S85       1.0  0.49332  0.33361  0.24932  1.0000
  H   H385      1.0  0.32476  0.42325  0.96215  1.0000
  H   H386      1.0  0.40797  0.44340  0.61479  1.0000
  H   H387      1.0  0.37265  0.45395  0.31866  1.0000
  H   H388      1.0  0.49236  0.39790  0.14016  1.0000
  C   C224      1.0  0.42215  0.43039  0.48881  1.0000
  C   C225      1.0  0.43685  0.44366  0.49197  1.0000
  C   C226      1.0  0.43796  0.46037  0.48066  1.0000
  C   C227      1.0  0.42425  0.46398  0.46722  1.0000
  C   C228      1.0  0.40952  0.45075  0.46364  1.0000
  C   C229      1.0  0.40852  0.43393  0.47413  1.0000
  H   H389      1.0  0.44744  0.44108  0.50309  1.0000
  H   H390      1.0  0.44944  0.47052  0.48273  1.0000
  H   H391      1.0  0.39893  0.45345  0.45290  1.0000
  H   H392      1.0  0.39713  0.42366  0.47161  1.0000
  C   C230      1.0  0.40766  0.47523  0.58142  1.0000
  Fe  Fe43      1.0  0.36979  0.49074  0.50906  1.0000
  H   H393      1.0  0.47977  0.37628  0.60374  1.0000
  C   C231      1.0  0.36367  0.48593  0.31345  1.0000
  C   C232      1.0  0.34696  0.45425  0.99078  1.0000
  H   H394      1.0  0.47870  0.40776  0.08649  1.0000
  H   H395      1.0  0.40370  0.46660  0.37606  1.0000
  H   H396      1.0  0.46001  0.44084  0.67465  1.0000
  H   H397      1.0  0.49043  0.42941  0.08806  1.0000
  C   C233      1.0  0.48352  0.36136  0.39443  1.0000
  C   C234      1.0  0.34478  0.49558  0.59453  1.0000
  C   C235      1.0  0.35863  0.47745  0.27865  1.0000
  N   N18       1.0  0.47368  0.35476  0.65103  1.0000
  C   C236      1.0  0.47368  0.40252  0.80086  1.0000
  C   C237      1.0  0.45629  0.39882  0.80840  1.0000
  C   C238      1.0  0.44664  0.39591  0.77485  1.0000
  C   C239      1.0  0.45434  0.39718  0.73341  1.0000
  C   C240      1.0  0.47176  0.40119  0.72579  1.0000
  C   C241      1.0  0.40469  0.47275  0.34369  1.0000
  H   H398      1.0  0.45023  0.39802  0.84015  1.0000
  H   H399      1.0  0.43315  0.39278  0.78107  1.0000
  C   C242      1.0  0.49709  0.45108  0.77227  1.0000
  H   H400      1.0  0.34937  0.46298  0.92313  1.0000
  C   C243      1.0  0.47757  0.37209  0.08129  1.0000
  C   C244      1.0  0.47391  0.36377  0.12262  1.0000
  C   C245      1.0  0.47375  0.44712  0.67437  1.0000
  N   N19       1.0  0.48533  0.31158  0.11769  1.0000
  H   H401      1.0  0.44460  0.46001  0.96110  1.0000
  H   H402      1.0  0.42077  0.48144  0.02951  1.0000
  H   H403      1.0  0.46099  0.35867  0.13750  1.0000
  H   H404      1.0  0.47706  0.46007  0.65792  1.0000
  H   H405      1.0  0.29533  0.42728  0.98711  1.0000
  C   C246      1.0  0.41168  0.42883  0.98505  1.0000
  C   C247      1.0  0.41288  0.42510  0.02756  1.0000
  C   C248      1.0  0.40344  0.43020  0.05887  1.0000
  C   C249      1.0  0.39322  0.43952  0.04778  1.0000
  C   C250      1.0  0.39225  0.44352  0.00525  1.0000
  C   C251      1.0  0.40128  0.43797  0.97401  1.0000
  H   H406      1.0  0.42071  0.41788  0.03632  1.0000
  H   H407      1.0  0.40410  0.42694  0.09175  1.0000
  H   H408      1.0  0.38439  0.45064  0.99640  1.0000
  H   H409      1.0  0.40030  0.44084  0.94115  1.0000
  H   H410      1.0  0.37844  0.45265  0.24485  1.0000
  H   H411      1.0  0.46805  0.28675  0.14381  1.0000
  C   C252      1.0  0.49776  0.36248  0.41405  1.0000
  C   C253      1.0  0.37374  0.50295  0.30708  1.0000
  H   H412      1.0  0.47780  0.40237  0.69397  1.0000
  H   H413      1.0  0.49045  0.45682  0.83483  1.0000
  C   C254      1.0  0.46262  0.36211  0.67697  1.0000
  C   C255      1.0  0.46006  0.47958  0.99704  1.0000
  C   C256      1.0  0.48252  0.49612  0.49599  1.0000
  H   H414      1.0  0.33401  0.40418  0.02070  1.0000
  H   H415      1.0  0.46991  0.37038  0.69856  1.0000
  H   H416      1.0  0.37951  0.43675  0.30888  1.0000
  S   S86       1.0  0.49102  0.38567  0.51710  1.0000
  H   H417      1.0  0.39574  0.47985  0.34636  1.0000
  H   H418      1.0  0.40797  0.41634  0.59863  1.0000
  H   H419      1.0  0.32496  0.45768  0.05252  1.0000
  H   H420      1.0  0.37586  0.45142  0.39250  1.0000
  H   H421      1.0  0.29338  0.44568  0.95969  1.0000
  C   C257      1.0  0.36375  0.48597  0.23755  1.0000
  H   H422      1.0  0.32122  0.46355  0.97819  1.0000
  H   H423      1.0  0.46348  0.49569  0.09758  1.0000
  H   H424      1.0  0.48857  0.32966  0.16300  1.0000
  H   H425      1.0  0.48870  0.35539  0.70205  1.0000
  S   S87       1.0  0.48905  0.40973  0.96240  1.0000
  C   C258      1.0  0.48227  0.34650  0.68033  1.0000
  H   H426      1.0  0.39329  0.46848  0.20737  1.0000
  S   S88       1.0  0.35747  0.48390  0.57688  1.0000
  H   H427      1.0  0.38871  0.45334  0.65031  1.0000
  H   H428      1.0  0.38257  0.46860  0.56665  1.0000
  C   C259      1.0  0.49513  0.33935  0.65890  1.0000
  C   C260      1.0  0.43030  0.47837  0.00841  1.0000
  H   H429      1.0  0.38701  0.41255  0.62239  1.0000
  C   C261      1.0  0.48586  0.32514  0.08342  1.0000
  H   H430      1.0  0.35073  0.46430  0.28349  1.0000
  C   C262      1.0  0.50001  0.38182  0.64066  1.0000
  N   N20       1.0  0.49598  0.45441  0.72598  1.0000
  C   C263      1.0  0.47163  0.36798  0.41241  1.0000
  H   H431      1.0  0.41270  0.47814  0.25717  1.0000
  H   H432      1.0  0.46056  0.36710  0.39749  1.0000
  C   C264      1.0  0.35658  0.43897  0.56402  1.0000
  C   C265      1.0  0.48135  0.40352  0.75948  1.0000
  C   C266      1.0  0.47764  0.44719  0.72031  1.0000
  C   C267      1.0  0.49991  0.36997  0.45166  1.0000
  H   H433      1.0  0.41738  0.46640  0.09256  1.0000
  H   H434      1.0  0.43945  0.48477  0.94013  1.0000
  H   H435      1.0  0.30982  0.43701  0.05748  1.0000
  C   C268      1.0  0.49431  0.25711  0.23663  1.0000
  H   H436      1.0  0.41598  0.44823  0.37270  1.0000
  C   C269      1.0  0.46356  0.34168  0.62589  1.0000
  H   H437      1.0  0.47201  0.43393  0.73581  1.0000
  H   H438      1.0  0.47023  0.45426  0.73591  1.0000
  Fe  Fe44      1.0  0.36150  0.49416  0.04266  1.0000
  Fe  Fe45      1.0  0.50000  0.34491  0.30886  1.0000
  H   H439      1.0  0.46658  0.46356  0.95375  1.0000
  C   C270      1.0  0.32614  0.42480  0.99586  1.0000
  H   H440      1.0  0.42883  0.45888  0.12797  1.0000
  H   H441      1.0  0.48001  0.43987  0.65575  1.0000
  H   H442      1.0  0.35554  0.45073  0.01039  1.0000
  C   C271      1.0  0.34003  0.41750  0.00618  1.0000
  C   C272      1.0  0.41191  0.45084  0.30516  1.0000
  C   C273      1.0  0.35431  0.45525  0.94434  1.0000
  H   H443      1.0  0.48888  0.32820  0.64307  1.0000
  H   H444      1.0  0.48278  0.31618  0.02145  1.0000
  S   S89       1.0  0.38220  0.48600  0.01203  1.0000
  C   C274      1.0  0.48018  0.31679  0.15932  1.0000
  H   H445      1.0  0.46092  0.29677  0.10242  1.0000
  H   H446      1.0  0.43396  0.48114  0.11540  1.0000
  C   C275      1.0  0.45177  0.49888  0.04042  1.0000
  C   C276      1.0  0.46209  0.31721  0.16688  1.0000
  H   H447      1.0  0.42408  0.45923  0.28707  1.0000
  C   C277      1.0  0.39208  0.45968  0.23614  1.0000
  H   H448      1.0  0.46465  0.38073  0.46310  1.0000
  S   S90       1.0  0.48847  0.46104  0.56265  1.0000
  Fe  Fe46      1.0  0.48107  0.43191  0.97502  1.0000
  H   H449      1.0  0.34659  0.48993  0.66016  1.0000
  H   H450      1.0  0.44569  0.33687  0.58053  1.0000
  C   C278      1.0  0.45586  0.46278  0.97757  1.0000
  C   C279      1.0  0.43006  0.46895  0.10213  1.0000
  H   H451      1.0  0.45980  0.32622  0.14325  1.0000
  H   H452      1.0  0.49282  0.33798  0.09116  1.0000
  H   H453      1.0  0.40721  0.44095  0.28421  1.0000
  H   H454      1.0  0.45432  0.45196  0.00143  1.0000
  C   C280      1.0  0.45285  0.34766  0.59640  1.0000
  H   H455      1.0  0.32183  0.44888  0.94201  1.0000
  Fe  Fe47      1.0  0.40177  0.49050  0.45577  1.0000
  H   H456      1.0  0.49148  0.47304  0.79430  1.0000
  H   H457      1.0  0.42433  0.49433  0.30464  1.0000
  H   H458      1.0  0.45055  0.34098  0.72803  1.0000
  C   C281      1.0  0.44288  0.46817  0.06548  1.0000
  C   C282      1.0  0.31853  0.44983  0.97589  1.0000
  S   S91       1.0  0.48631  0.40649  0.84192  1.0000
  H   H459      1.0  0.47303  0.32560  0.08124  1.0000
  N   N21       1.0  0.39970  0.46019  0.31246  1.0000
  H   H460      1.0  0.45800  0.37046  0.65656  1.0000
  H   H461      1.0  0.40453  0.47787  0.61385  1.0000
  C   C283      1.0  0.29928  0.44122  0.98547  1.0000
  H   H462      1.0  0.42878  0.44126  0.33792  1.0000
  H   H463      1.0  0.36454  0.43134  0.37831  1.0000
  H   H464      1.0  0.50070  0.41514  0.06892  1.0000
  H   H465      1.0  0.39873  0.45090  0.22732  1.0000
  C   C284      1.0  0.48629  0.36887  0.62090  1.0000
  H   H466      1.0  0.31406  0.41634  0.01419  1.0000
  Fe  Fe48      1.0  0.37102  0.48873  0.41488  1.0000
  H   H467      1.0  0.48290  0.41182  0.15974  1.0000
  H   H468      1.0  0.47535  0.48912  0.59737  1.0000
  C   C285      1.0  0.41585  0.44170  0.34426  1.0000
  H   H469      1.0  0.46081  0.35759  0.57104  1.0000
  C   C286      1.0  0.46173  0.48449  0.59553  1.0000
  H   H470      1.0  0.38590  0.43571  0.38673  1.0000
  H   H471      1.0  0.48391  0.35637  0.17741  1.0000
  H   H472      1.0  0.44055  0.35645  0.72340  1.0000
  H   H473      1.0  0.34837  0.42400  0.02835  1.0000
  H   H474      1.0  0.36835  0.42079  0.57681  1.0000
  H   H475      1.0  0.45512  0.33030  0.64693  1.0000
  C   C287      1.0  0.49291  0.32379  0.03829  1.0000
  H   H476      1.0  0.44351  0.35219  0.61356  1.0000
  C   C288      1.0  0.32340  0.44428  0.04824  1.0000
  H   H477      1.0  0.46019  0.32162  0.19806  1.0000
  N   N22       1.0  0.38581  0.44498  0.58879  1.0000
  H   H478      1.0  0.47147  0.48062  0.01238  1.0000
  C   C289      1.0  0.33217  0.43769  0.08188  1.0000
  H   H479      1.0  0.44914  0.48765  0.54222  1.0000
  H   H480      1.0  0.39193  0.41366  0.56579  1.0000
  C   C290      1.0  0.37861  0.44607  0.63284  1.0000
  C   C291      1.0  0.36948  0.42926  0.66125  1.0000
  H   H481      1.0  0.49479  0.40634  0.75345  1.0000
  H   H482      1.0  0.43791  0.34161  0.68614  1.0000
  C   C292      1.0  0.39244  0.46264  0.56552  1.0000
  H   H483      1.0  0.32773  0.44058  0.11313  1.0000
  H   H484      1.0  0.35989  0.43105  0.68477  1.0000
  H   H485      1.0  0.39620  0.46236  0.53153  1.0000
  H   H486      1.0  0.46421  0.49010  0.97080  1.0000
  S   S92       1.0  0.39878  0.49254  0.10030  1.0000
  S   S93       1.0  0.49606  0.45708  0.99304  1.0000
  H   H487      1.0  0.49843  0.33670  0.02077  1.0000
  S   S94       1.0  0.49803  0.29048  0.24343  1.0000
  H   H488      1.0  0.34972  0.43752  0.59608  1.0000
  C   C293      1.0  0.37270  0.43437  0.56458  1.0000
  H   H489      1.0  0.37820  0.43496  0.53127  1.0000
  H   H490      1.0  0.49227  0.43725  0.78254  1.0000
  H   H491      1.0  0.49465  0.38772  0.66528  1.0000
  H   H492      1.0  0.36815  0.46167  0.94072  1.0000
  H   H493      1.0  0.49510  0.49517  0.48681  1.0000
  H   H494      1.0  0.49762  0.43200  0.69974  1.0000
  C   C294      1.0  0.48802  0.37662  0.46951  1.0000
  H   H495      1.0  0.45473  0.46871  0.07821  1.0000
  C   C295      1.0  0.38206  0.44799  0.32642  1.0000
  C   C296      1.0  0.42266  0.48571  0.33387  1.0000
  C   C297      1.0  0.37714  0.44133  0.37373  1.0000
  H   H496      1.0  0.32877  0.42376  0.08428  1.0000
  C   C298      1.0  0.48687  0.36237  0.14520  1.0000
  H   H497      1.0  0.47374  0.45330  0.80382  1.0000
  H   H498      1.0  0.29413  0.44490  0.01481  1.0000
  C   C299      1.0  0.44712  0.34933  0.70497  1.0000
  H   H499      1.0  0.34795  0.43026  0.54557  1.0000
  H   H500      1.0  0.34831  0.46737  0.99701  1.0000
  H   H501      1.0  0.45248  0.30452  0.16810  1.0000
  C   C300      1.0  0.48756  0.45917  0.80241  1.0000
  H   H502      1.0  0.45517  0.48293  0.62806  1.0000
  H   H503      1.0  0.47195  0.33705  0.60511  1.0000
  H   H504      1.0  0.42443  0.46483  0.00479  1.0000
  H   H505      1.0  0.40696  0.42853  0.35154  1.0000
  H   H506      1.0  0.49347  0.47937  0.72325  1.0000
  H   H507      1.0  0.35977  0.47944  0.21081  1.0000
  H   H508      1.0  0.48151  0.30825  0.18609  1.0000
  C   C301      1.0  0.46664  0.50338  0.06635  1.0000
  H   H509      1.0  0.42508  0.49372  0.35990  1.0000
  H   H510      1.0  0.35196  0.44265  0.93360  1.0000
  H   H511      1.0  0.49533  0.39060  0.20723  1.0000
  C   C302      1.0  0.47775  0.28373  0.08255  1.0000
  H   H512      1.0  0.48334  0.29050  0.05089  1.0000
  S   S95       1.0  0.33780  0.49545  0.01883  1.0000
  H   H513      1.0  0.43231  0.47950  0.33216  1.0000
  H   H514      1.0  0.48662  0.27822  0.09600  1.0000
  H   H515      1.0  0.41923  0.48604  0.95574  1.0000
  H   H516      1.0  0.49728  0.38506  0.03054  1.0000
  H   H517      1.0  0.50161  0.33499  0.68343  1.0000
  H   H518      1.0  0.43741  0.50236  0.96607  1.0000
  C   C303      1.0  0.45540  0.49573  0.56569  1.0000
  C   C304      1.0  0.43197  0.48857  0.96515  1.0000
  H   H519      1.0  0.48531  0.25771  0.21558  1.0000
  H   H520      1.0  0.49854  0.42114  0.21438  1.0000
  C   C305      1.0  0.49100  0.41646  0.09272  1.0000
  H   H521      1.0  0.35990  0.49492  0.94432  1.0000
  C   C306      1.0  0.34932  0.49797  0.93458  1.0000
  C   C307      1.0  0.34137  0.49639  0.63783  1.0000
  C   C308      1.0  0.34792  0.50046  0.89157  1.0000
  H   H522      1.0  0.35743  0.49927  0.86823  1.0000
  H   H523      1.0  0.47813  0.50220  0.04939  1.0000
  H   H524      1.0  0.44504  0.49834  0.58464  1.0000
  H   H525      1.0  0.48817  0.43890  0.16247  1.0000
  C   C309      1.0  0.49378  0.41150  0.13795  1.0000
  H   H526      1.0  0.44113  0.50131  0.05873  1.0000
  C   C310      1.0  0.33690  0.49922  0.96470  1.0000
  Fe  Fe49      1.0  0.37750  0.50097  0.12322  1.0000
  H   H527      1.0  0.47776  0.49899  0.46645  1.0000
  C   C311      1.0  0.37361  0.50309  0.23135  1.0000
  C   C312      1.0  0.32328  0.50330  0.95171  1.0000
  H   H528      1.0  0.50142  0.30004  0.14685  1.0000
  C   C313      1.0  0.33787  0.50389  0.56600  1.0000
  H   H529      1.0  0.34013  0.50310  0.53271  1.0000
  H   H530      1.0  0.50133  0.45864  0.13583  1.0000
  C   C314      1.0  0.50123  0.44782  0.15813  1.0000
  H   H531      1.0  0.31359  0.50421  0.97500  1.0000
  C   C315      1.0  0.43825  0.59540  0.68492  1.0000
  H   H532      1.0  0.44877  0.61076  0.62285  1.0000
  Fe  Fe50      1.0  0.47955  0.57660  0.15380  1.0000
  S   S96       1.0  0.45385  0.55773  0.17211  1.0000
  Fe  Fe51      1.0  0.46780  0.57352  0.56573  1.0000
  S   S97       1.0  0.44124  0.55867  0.59313  1.0000
  S   S98       1.0  0.47567  0.60132  0.54712  1.0000
  S   S99       1.0  0.42534  0.52513  0.01341  1.0000
  S   S100      1.0  0.40128  0.54946  0.43865  1.0000
  H   H533      1.0  0.47538  0.60725  0.34282  1.0000
  Fe  Fe52      1.0  0.46083  0.64999  0.86712  1.0000
  S   S101      1.0  0.46630  0.67374  0.82240  1.0000
  S   S102      1.0  0.48069  0.64160  0.89530  1.0000
  Fe  Fe53      1.0  0.42480  0.63463  0.84638  1.0000
  S   S103      1.0  0.42729  0.65723  0.80084  1.0000
  S   S104      1.0  0.40455  0.60859  0.85872  1.0000
  Fe  Fe54      1.0  0.45282  0.65632  0.77799  1.0000
  H   H534      1.0  0.46877  0.65533  0.96822  1.0000
  Fe  Fe55      1.0  0.44050  0.67314  0.84878  1.0000
  S   S105      1.0  0.43329  0.69587  0.86753  1.0000
  S   S106      1.0  0.44949  0.63289  0.82012  1.0000
  S   S107      1.0  0.43587  0.65023  0.89690  1.0000
  Fe  Fe56      1.0  0.31822  0.52272  0.79658  1.0000
  S   S108      1.0  0.33403  0.53973  0.73959  1.0000
  S   S109      1.0  0.33326  0.50775  0.82432  1.0000
  Fe  Fe57      1.0  0.28791  0.53419  0.78454  1.0000
  S   S110      1.0  0.30202  0.55221  0.72717  1.0000
  S   S111      1.0  0.26131  0.53226  0.81348  1.0000
  Fe  Fe58      1.0  0.31081  0.53108  0.70857  1.0000
  S   S112      1.0  0.31212  0.52612  0.64041  1.0000
  Fe  Fe59      1.0  0.32424  0.55928  0.76324  1.0000
  S   S113      1.0  0.34175  0.58652  0.75753  1.0000
  N   N23       1.0  0.46813  0.51202  0.54359  1.0000
  S   S114      1.0  0.30974  0.54297  0.82267  1.0000
  H   H535      1.0  0.41611  0.53973  0.29371  1.0000
  C   C316      1.0  0.42726  0.61875  0.67711  1.0000
  H   H536      1.0  0.43670  0.54479  0.26398  1.0000
  H   H537      1.0  0.49354  0.52239  0.60097  1.0000
  H   H538      1.0  0.37743  0.50966  0.33371  1.0000
  C   C317      1.0  0.38784  0.60278  0.82802  1.0000
  C   C318      1.0  0.37936  0.58557  0.82589  1.0000
  C   C319      1.0  0.36513  0.58038  0.80471  1.0000
  C   C320      1.0  0.35949  0.59244  0.78471  1.0000
  C   C321      1.0  0.36843  0.60967  0.78527  1.0000
  C   C322      1.0  0.38254  0.61484  0.80688  1.0000
  H   H539      1.0  0.38387  0.57622  0.84051  1.0000
  H   H540      1.0  0.35858  0.56709  0.80360  1.0000
  H   H541      1.0  0.36423  0.61907  0.76952  1.0000
  H   H542      1.0  0.38903  0.62814  0.80805  1.0000
  C   C323      1.0  0.33438  0.50470  0.87849  1.0000
  H   H543      1.0  0.40941  0.52903  0.09338  1.0000
  C   C324      1.0  0.32423  0.51380  0.62378  1.0000
  H   H544      1.0  0.46865  0.56810  0.25288  1.0000
  C   C325      1.0  0.45970  0.72486  0.83038  1.0000
  H   H545      1.0  0.37633  0.53111  0.93457  1.0000
  H   H546      1.0  0.38300  0.73291  0.76453  1.0000
  H   H547      1.0  0.46587  0.71647  0.81853  1.0000
  H   H548      1.0  0.25214  0.58477  0.79126  1.0000
  C   C326      1.0  0.48844  0.63662  0.03451  1.0000
  H   H549      1.0  0.43021  0.58123  0.35786  1.0000
  S   S115      1.0  0.48437  0.60616  0.42592  1.0000
  C   C327      1.0  0.43612  0.72930  0.86978  1.0000
  C   C328      1.0  0.49083  0.64218  0.22844  1.0000
  C   C329      1.0  0.49502  0.60321  0.30157  1.0000
  H   H550      1.0  0.47317  0.51203  0.63310  1.0000
  H   H551      1.0  0.44970  0.60231  0.69867  1.0000
  H   H552      1.0  0.50013  0.63173  0.83130  1.0000
  H   H553      1.0  0.38105  0.57874  0.70905  1.0000
  H   H554      1.0  0.25323  0.52751  0.72735  1.0000
  C   C330      1.0  0.25185  0.75240  0.83233  1.0000
  H   H555      1.0  0.42393  0.72422  0.88882  1.0000
  C   C331      1.0  0.48365  0.62371  0.69146  1.0000
  C   C332      1.0  0.42893  0.55836  0.55257  1.0000
  C   C333      1.0  0.43564  0.56911  0.51488  1.0000
  C   C334      1.0  0.42647  0.56749  0.48065  1.0000
  C   C335      1.0  0.41079  0.55479  0.48381  1.0000
  C   C336      1.0  0.40358  0.54499  0.52248  1.0000
  C   C337      1.0  0.41265  0.54669  0.55686  1.0000
  H   H556      1.0  0.44811  0.57837  0.51147  1.0000
  H   H557      1.0  0.43192  0.57552  0.45129  1.0000
  H   H558      1.0  0.39113  0.53569  0.52544  1.0000
  H   H559      1.0  0.40738  0.53841  0.58597  1.0000
  C   C338      1.0  0.42326  0.60169  0.74631  1.0000
  C   C339      1.0  0.42888  0.57501  0.32862  1.0000
  H   H560      1.0  0.41489  0.74050  0.80852  1.0000
  H   H561      1.0  0.48352  0.55851  0.26529  1.0000
  C   C340      1.0  0.47391  0.63268  0.70948  1.0000
  H   H562      1.0  0.42542  0.52404  0.28865  1.0000
  H   H563      1.0  0.44846  0.53543  0.53148  1.0000
  H   H564      1.0  0.46847  0.62944  0.74213  1.0000
  C   C341      1.0  0.44506  0.52311  0.51871  1.0000
  C   C342      1.0  0.44638  0.54815  0.12834  1.0000
  C   C343      1.0  0.42909  0.54106  0.12830  1.0000
  C   C344      1.0  0.42279  0.53405  0.09296  1.0000
  C   C345      1.0  0.43368  0.53393  0.05747  1.0000
  C   C346      1.0  0.45105  0.54087  0.05754  1.0000
  C   C347      1.0  0.45742  0.54791  0.09312  1.0000
  H   H565      1.0  0.42048  0.54114  0.15545  1.0000
  C   C348      1.0  0.42836  0.53760  0.29267  1.0000
  H   H566      1.0  0.45958  0.54064  0.03045  1.0000
  H   H567      1.0  0.47083  0.55289  0.09353  1.0000
  H   H568      1.0  0.42600  0.58360  0.30486  1.0000
  H   H569      1.0  0.45690  0.50819  0.48569  1.0000
  Fe  Fe60      1.0  0.49823  0.60225  0.57847  1.0000
  H   H570      1.0  0.50136  0.61469  0.80489  1.0000
  C   C349      1.0  0.48307  0.63969  0.94930  1.0000
  H   H571      1.0  0.47380  0.65296  0.04312  1.0000
  S   S116      1.0  0.37955  0.51454  0.18088  1.0000
  C   C350      1.0  0.47897  0.64643  0.02084  1.0000
  H   H572      1.0  0.49808  0.62370  0.94061  1.0000
  H   H573      1.0  0.44471  0.57051  0.27816  1.0000
  H   H574      1.0  0.49909  0.65783  0.72857  1.0000
  N   N24       1.0  0.35821  0.55550  0.94945  1.0000
  C   C351      1.0  0.36121  0.54625  0.91279  1.0000
  C   C352      1.0  0.34142  0.55779  0.94724  1.0000
  C   C353      1.0  0.35719  0.54424  0.98929  1.0000
  C   C354      1.0  0.37264  0.57198  0.94641  1.0000
  C   C355      1.0  0.37728  0.54145  0.90982  1.0000
  C   C356      1.0  0.33992  0.56785  0.90639  1.0000
  C   C357      1.0  0.35399  0.55094  0.03127  1.0000
  C   C358      1.0  0.36927  0.58634  0.96880  1.0000
  H   H575      1.0  0.35040  0.53444  0.91303  1.0000
  H   H576      1.0  0.36199  0.55382  0.88228  1.0000
  H   H577      1.0  0.33784  0.56404  0.97373  1.0000
  H   H578      1.0  0.33122  0.54523  0.95061  1.0000
  H   H579      1.0  0.34709  0.53182  0.98988  1.0000
  H   H580      1.0  0.36903  0.54146  0.99083  1.0000
  H   H581      1.0  0.38371  0.56980  0.95828  1.0000
  H   H582      1.0  0.37689  0.57736  0.91286  1.0000
  H   H583      1.0  0.37882  0.53651  0.87921  1.0000
  H   H584      1.0  0.38875  0.55244  0.91069  1.0000
  H   H585      1.0  0.41795  0.56311  0.33479  1.0000
  H   H586      1.0  0.33837  0.56004  0.87991  1.0000
  H   H587      1.0  0.32845  0.57141  0.91112  1.0000
  H   H588      1.0  0.35078  0.57965  0.89705  1.0000
  H   H589      1.0  0.43929  0.52465  0.48982  1.0000
  Fe  Fe61      1.0  0.48973  0.59645  0.48907  1.0000
  H   H590      1.0  0.35264  0.54092  0.05742  1.0000
  H   H591      1.0  0.38080  0.59348  0.98185  1.0000
  H   H592      1.0  0.35893  0.58227  0.99522  1.0000
  H   H593      1.0  0.36716  0.59569  0.94563  1.0000
  N   N25       1.0  0.44352  0.58942  0.00668  1.0000
  C   C359      1.0  0.45936  0.58515  0.00927  1.0000
  C   C360      1.0  0.44342  0.60192  0.03762  1.0000
  C   C361      1.0  0.44462  0.59765  0.96250  1.0000
  C   C362      1.0  0.42860  0.57328  0.01653  1.0000
  C   C363      1.0  0.46335  0.57423  0.97629  1.0000
  C   C364      1.0  0.44448  0.59600  0.08368  1.0000
  C   C365      1.0  0.43053  0.60456  0.95305  1.0000
  C   C366      1.0  0.41141  0.57483  0.03221  1.0000
  H   H594      1.0  0.47053  0.59685  0.00660  1.0000
  H   H595      1.0  0.45887  0.57815  0.04051  1.0000
  H   H596      1.0  0.43216  0.60576  0.03822  1.0000
  H   H597      1.0  0.45415  0.61390  0.02778  1.0000
  H   H598      1.0  0.45673  0.60835  0.95406  1.0000
  H   H599      1.0  0.44463  0.58864  0.93913  1.0000
  H   H600      1.0  0.42704  0.56606  0.98882  1.0000
  H   H601      1.0  0.43092  0.56492  0.04192  1.0000
  H   H602      1.0  0.47389  0.57018  0.98511  1.0000
  H   H603      1.0  0.45254  0.56262  0.97505  1.0000
  H   H604      1.0  0.46768  0.58155  0.94455  1.0000
  H   H605      1.0  0.44125  0.60462  0.10467  1.0000
  H   H606      1.0  0.43574  0.58301  0.09467  1.0000
  H   H607      1.0  0.45748  0.59668  0.08788  1.0000
  H   H608      1.0  0.42920  0.61400  0.97385  1.0000
  H   H609      1.0  0.41841  0.59422  0.95346  1.0000
  H   H610      1.0  0.43377  0.61123  0.92044  1.0000
  H   H611      1.0  0.40136  0.56491  0.02003  1.0000
  H   H612      1.0  0.40992  0.58702  0.02244  1.0000
  H   H613      1.0  0.40865  0.57196  0.06710  1.0000
  N   N26       1.0  0.44883  0.55789  0.33603  1.0000
  C   C367      1.0  0.44902  0.56147  0.38135  1.0000
  C   C368      1.0  0.44528  0.57215  0.31187  1.0000
  C   C369      1.0  0.46614  0.55789  0.31996  1.0000
  C   C370      1.0  0.43560  0.54089  0.33475  1.0000
  C   C371      1.0  0.45460  0.54966  0.41105  1.0000
  S   S117      1.0  0.37909  0.51735  0.06332  1.0000
  C   C372      1.0  0.39124  0.59124  0.70304  1.0000
  H   H614      1.0  0.45730  0.57466  0.38342  1.0000
  H   H615      1.0  0.43627  0.56052  0.39584  1.0000
  H   H616      1.0  0.45579  0.58424  0.31165  1.0000
  H   H617      1.0  0.47593  0.56927  0.32802  1.0000
  C   C373      1.0  0.48435  0.51007  0.52513  1.0000
  H   H618      1.0  0.44038  0.53049  0.34386  1.0000
  H   H619      1.0  0.42453  0.53913  0.35869  1.0000
  H   H620      1.0  0.44734  0.53616  0.41013  1.0000
  H   H621      1.0  0.46829  0.55199  0.40422  1.0000
  H   H622      1.0  0.45233  0.55246  0.44387  1.0000
  H   H623      1.0  0.48305  0.53428  0.62774  1.0000
  C   C374      1.0  0.47185  0.64628  0.68556  1.0000
  H   H624      1.0  0.48969  0.65484  0.22739  1.0000
  S   S118      1.0  0.39789  0.50583  0.40030  1.0000
  H   H625      1.0  0.43320  0.59024  0.62002  1.0000
  H   H626      1.0  0.34217  0.55383  0.03472  1.0000
  C   C375      1.0  0.39002  0.73138  0.79085  1.0000
  H   H627      1.0  0.48737  0.62569  0.79003  1.0000
  H   H628      1.0  0.38611  0.52481  0.26141  1.0000
  H   H629      1.0  0.43541  0.58181  0.69614  1.0000
  H   H630      1.0  0.47998  0.74759  0.80324  1.0000
  C   C376      1.0  0.41850  0.63005  0.69792  1.0000
  H   H631      1.0  0.47026  0.52923  0.48748  1.0000
  C   C377      1.0  0.44386  0.71808  0.85460  1.0000
  H   H632      1.0  0.39194  0.55969  0.63022  1.0000
  H   H633      1.0  0.48167  0.63412  0.25528  1.0000
  C   C378      1.0  0.46768  0.74256  0.82174  1.0000
  C   C379      1.0  0.48714  0.60481  0.34085  1.0000
  H   H634      1.0  0.38300  0.73203  0.82128  1.0000
  H   H635      1.0  0.38790  0.59945  0.67924  1.0000
  H   H636      1.0  0.42943  0.57893  0.76601  1.0000
  H   H637      1.0  0.32196  0.51892  0.55829  1.0000
  H   H638      1.0  0.44091  0.62617  0.67391  1.0000
  C   C380      1.0  0.40805  0.74412  0.78365  1.0000
  H   H639      1.0  0.42414  0.61814  0.64430  1.0000
  H   H640      1.0  0.40867  0.58939  0.65283  1.0000
  C   C381      1.0  0.33125  0.50561  0.65243  1.0000
  H   H641      1.0  0.40684  0.57559  0.69789  1.0000
  S   S119      1.0  0.29541  0.51244  0.76352  1.0000
  C   C382      1.0  0.48091  0.52305  0.61041  1.0000
  C   C383      1.0  0.44407  0.74698  0.86098  1.0000
  H   H642      1.0  0.41921  0.58657  0.80683  1.0000
  H   H643      1.0  0.43520  0.51343  0.54107  1.0000
  H   H644      1.0  0.41381  0.60700  0.75942  1.0000
  S   S120      1.0  0.48579  0.60128  0.18017  1.0000
  H   H645      1.0  0.42362  0.63399  0.72737  1.0000
  N   N27       1.0  0.42379  0.60123  0.69935  1.0000
  S   S121      1.0  0.47996  0.56841  0.50580  1.0000
  H   H646      1.0  0.41406  0.74164  0.75366  1.0000
  H   H647      1.0  0.39112  0.59642  0.73336  1.0000
  H   H648      1.0  0.47964  0.53794  0.55446  1.0000
  C   C384      1.0  0.47010  0.55737  0.27242  1.0000
  H   H649      1.0  0.49218  0.65546  0.78308  1.0000
  C   C385      1.0  0.40801  0.58890  0.68765  1.0000
  H   H650      1.0  0.46005  0.52735  0.58636  1.0000
  C   C386      1.0  0.46071  0.51807  0.50716  1.0000
  H   H651      1.0  0.45968  0.75316  0.96536  1.0000
  N   N28       1.0  0.36182  0.56168  0.59597  1.0000
  C   C387      1.0  0.35176  0.56315  0.63600  1.0000
  C   C388      1.0  0.36816  0.54719  0.60542  1.0000
  C   C389      1.0  0.35055  0.55681  0.56205  1.0000
  C   C390      1.0  0.37632  0.57789  0.58287  1.0000
  C   C391      1.0  0.34116  0.57473  0.63230  1.0000
  C   C392      1.0  0.37999  0.54902  0.63949  1.0000
  C   C393      1.0  0.34888  0.57129  0.53223  1.0000
  C   C394      1.0  0.38890  0.57738  0.54524  1.0000
  H   H652      1.0  0.34293  0.55051  0.65014  1.0000
  H   H653      1.0  0.36005  0.56789  0.66016  1.0000
  H   H654      1.0  0.37481  0.54460  0.57665  1.0000
  H   H655      1.0  0.35740  0.53527  0.61544  1.0000
  H   H656      1.0  0.35473  0.54870  0.54087  1.0000
  H   H657      1.0  0.33766  0.54868  0.57634  1.0000
  H   H658      1.0  0.37184  0.58860  0.57518  1.0000
  H   H659      1.0  0.38348  0.58148  0.60976  1.0000
  H   H660      1.0  0.33560  0.57564  0.66447  1.0000
  H   H661      1.0  0.34880  0.58775  0.61826  1.0000
  H   H662      1.0  0.33042  0.56929  0.61478  1.0000
  H   H663      1.0  0.45378  0.59202  0.63106  1.0000
  H   H664      1.0  0.37384  0.55004  0.67075  1.0000
  H   H665      1.0  0.38337  0.53738  0.64331  1.0000
  H   H666      1.0  0.34547  0.58086  0.54897  1.0000
  H   H667      1.0  0.33876  0.56586  0.51279  1.0000
  H   H668      1.0  0.36057  0.57761  0.51002  1.0000
  H   H669      1.0  0.39320  0.58963  0.52465  1.0000
  H   H670      1.0  0.38353  0.56739  0.52519  1.0000
  H   H671      1.0  0.40037  0.57595  0.55640  1.0000
  H   H672      1.0  0.42130  0.64190  0.67637  1.0000
  H   H673      1.0  0.47691  0.66049  0.62403  1.0000
  H   H674      1.0  0.40470  0.62419  0.70430  1.0000
  H   H675      1.0  0.40702  0.57551  0.76952  1.0000
  S   S122      1.0  0.49204  0.63527  0.08771  1.0000
  C   C395      1.0  0.47183  0.52560  0.57258  1.0000
  C   C396      1.0  0.41952  0.58455  0.77306  1.0000
  Fe  Fe62      1.0  0.39944  0.50771  0.03951  1.0000
  H   H676      1.0  0.49280  0.52215  0.50676  1.0000
  C   C397      1.0  0.44354  0.59734  0.63688  1.0000
  C   C398      1.0  0.37860  0.51153  0.26615  1.0000
  H   H677      1.0  0.48914  0.60407  0.27362  1.0000
  S   S123      1.0  0.48934  0.57448  0.60101  1.0000
  H   H678      1.0  0.36484  0.56198  0.03602  1.0000
  C   C399      1.0  0.49987  0.62726  0.79997  1.0000
  C   C400      1.0  0.47607  0.64775  0.97847  1.0000
  S   S124      1.0  0.48979  0.58806  0.08731  1.0000
  H   H679      1.0  0.39062  0.71840  0.79209  1.0000
  H   H680      1.0  0.46858  0.54686  0.33571  1.0000
  Fe  Fe63      1.0  0.39039  0.52111  0.44719  1.0000
  C   C401      1.0  0.47860  0.65010  0.64288  1.0000
  H   H681      1.0  0.43543  0.61044  0.75350  1.0000
  S   S125      1.0  0.46138  0.65911  0.70796  1.0000
  H   H682      1.0  0.46270  0.54514  0.26263  1.0000
  H   H683      1.0  0.46979  0.51677  0.07239  1.0000
  C   C402      1.0  0.45992  0.75376  0.83676  1.0000
  H   H684      1.0  0.32879  0.50628  0.68583  1.0000
  C   C403      1.0  0.32748  0.51278  0.58060  1.0000
  H   H685      1.0  0.48581  0.61364  0.71048  1.0000
  C   C404      1.0  0.32211  0.50624  0.90864  1.0000
  C   C405      1.0  0.49260  0.62997  0.96298  1.0000
  H   H686      1.0  0.31158  0.50939  0.89873  1.0000
  H   H687      1.0  0.49183  0.50754  0.54943  1.0000
  S   S126      1.0  0.39679  0.50718  0.50155  1.0000
  C   C406      1.0  0.48813  0.64099  0.62473  1.0000
  H   H688      1.0  0.48681  0.63650  0.19960  1.0000
  S   S127      1.0  0.36296  0.50558  0.45685  1.0000
  H   H689      1.0  0.49375  0.68284  0.74652  1.0000
  C   C407      1.0  0.49102  0.62803  0.64921  1.0000
  Fe  Fe64      1.0  0.49807  0.61255  0.11429  1.0000
  H   H690      1.0  0.45559  0.50848  0.01214  1.0000
  C   C408      1.0  0.49440  0.60334  0.37770  1.0000
  H   H691      1.0  0.40447  0.74768  0.86836  1.0000
  H   H692      1.0  0.49387  0.64450  0.59220  1.0000
  C   C409      1.0  0.49513  0.62828  0.00546  1.0000
  Fe  Fe65      1.0  0.46495  0.80051  0.82981  1.0000
  S   S128      1.0  0.44332  0.80416  0.86920  1.0000
  Fe  Fe66      1.0  0.47863  0.83825  0.79118  1.0000
  S   S129      1.0  0.45802  0.84447  0.82819  1.0000
  H   H693      1.0  0.42989  0.78623  0.78252  1.0000
  Fe  Fe67      1.0  0.46225  0.82861  0.88288  1.0000
  S   S130      1.0  0.46231  0.83408  0.95151  1.0000
  Fe  Fe68      1.0  0.44117  0.81979  0.81140  1.0000
  S   S131      1.0  0.41877  0.81767  0.77727  1.0000
  S   S132      1.0  0.48411  0.82395  0.84690  1.0000
  S   S133      1.0  0.46163  0.81465  0.77088  1.0000
  Fe  Fe69      1.0  0.29387  0.79634  0.78724  1.0000
  S   S134      1.0  0.31935  0.79594  0.75987  1.0000
  Fe  Fe70      1.0  0.31008  0.82786  0.83128  1.0000
  S   S135      1.0  0.33595  0.82901  0.80738  1.0000
  S   S136      1.0  0.30692  0.84778  0.87216  1.0000
  Fe  Fe71      1.0  0.32664  0.82420  0.74515  1.0000
  S   S137      1.0  0.34634  0.84092  0.69201  1.0000
  Fe  Fe72      1.0  0.32654  0.80106  0.82407  1.0000
  S   S138      1.0  0.34281  0.79030  0.86080  1.0000
  S   S139      1.0  0.30092  0.82457  0.76795  1.0000
  S   S140      1.0  0.30083  0.79983  0.85273  1.0000
  H   H694      1.0  0.48147  0.86992  0.41843  1.0000
  H   H695      1.0  0.30856  0.90804  0.32292  1.0000
  H   H696      1.0  0.48167  0.86751  0.90608  1.0000
  Fe  Fe73      1.0  0.47834  0.91661  0.15560  1.0000
  S   S141      1.0  0.45179  0.91200  0.18353  1.0000
  H   H697      1.0  0.47758  0.79569  0.90971  1.0000
  H   H698      1.0  0.32146  0.91761  0.48381  1.0000
  H   H699      1.0  0.44221  0.00291  0.50140  1.0000
  C   C410      1.0  0.48973  0.88387  0.95409  1.0000
  S   S142      1.0  0.27015  0.77777  0.76661  1.0000
  S   S143      1.0  0.49944  0.93044  0.18906  1.0000
  H   H700      1.0  0.33867  0.90460  0.36546  1.0000
  C   C411      1.0  0.46471  0.98835  0.52502  1.0000
  S   S144      1.0  0.48277  0.95669  0.45822  1.0000
  H   H701      1.0  0.39301  0.99036  0.09576  1.0000
  Fe  Fe74      1.0  0.36680  0.90791  0.01773  1.0000
  S   S145      1.0  0.38320  0.90630  0.06746  1.0000
  S   S146      1.0  0.36569  0.88905  0.97008  1.0000
  Fe  Fe75      1.0  0.36295  0.93999  0.04656  1.0000
  S   S147      1.0  0.37881  0.94100  0.09844  1.0000
  S   S148      1.0  0.35163  0.96033  0.03545  1.0000
  Fe  Fe76      1.0  0.39567  0.93421  0.05066  1.0000
  S   S149      1.0  0.42340  0.94783  0.04721  1.0000
  Fe  Fe77      1.0  0.36522  0.91318  0.11257  1.0000
  S   S150      1.0  0.35976  0.89967  0.17950  1.0000
  S   S151      1.0  0.38104  0.93554  0.99718  1.0000
  S   S152      1.0  0.34742  0.91234  0.06428  1.0000
  Fe  Fe78      1.0  0.39514  0.91080  0.44758  1.0000
  S   S153      1.0  0.38605  0.91347  0.51332  1.0000
  S   S154      1.0  0.41569  0.90006  0.43410  1.0000
  Fe  Fe79      1.0  0.37275  0.92708  0.40792  1.0000
  S   S155      1.0  0.36160  0.93140  0.47119  1.0000
  S   S156      1.0  0.36721  0.93696  0.34499  1.0000
  Fe  Fe80      1.0  0.38803  0.93964  0.48710  1.0000
  Fe  Fe81      1.0  0.36050  0.90497  0.49313  1.0000
  S   S157      1.0  0.33745  0.88667  0.53470  1.0000
  S   S158      1.0  0.39924  0.93757  0.42240  1.0000
  S   S159      1.0  0.36945  0.90002  0.42854  1.0000
  C   C412      1.0  0.36287  0.91054  0.22460  1.0000
  C   C413      1.0  0.36264  0.90151  0.26351  1.0000
  C   C414      1.0  0.36446  0.90954  0.30036  1.0000
  C   C415      1.0  0.36627  0.92666  0.29883  1.0000
  C   C416      1.0  0.36660  0.93572  0.25991  1.0000
  C   C417      1.0  0.36506  0.92775  0.22289  1.0000
  H   H702      1.0  0.36092  0.88819  0.26513  1.0000
  H   H703      1.0  0.36408  0.90237  0.33008  1.0000
  H   H704      1.0  0.36786  0.94893  0.25840  1.0000
  H   H705      1.0  0.36508  0.93481  0.19327  1.0000
  C   C418      1.0  0.46431  0.94173  0.44745  1.0000
  C   C419      1.0  0.44883  0.94298  0.46230  1.0000
  C   C420      1.0  0.43393  0.93008  0.45847  1.0000
  C   C421      1.0  0.43444  0.91609  0.43868  1.0000
  C   C422      1.0  0.44992  0.91501  0.42266  1.0000
  C   C423      1.0  0.46486  0.92790  0.42687  1.0000
  H   H706      1.0  0.44836  0.95363  0.47812  1.0000
  H   H707      1.0  0.42211  0.93081  0.47213  1.0000
  H   H708      1.0  0.45038  0.90424  0.40713  1.0000
  H   H709      1.0  0.47681  0.92723  0.41386  1.0000
  C   C424      1.0  0.44331  0.92411  0.15206  1.0000
  C   C425      1.0  0.42621  0.91799  0.14824  1.0000
  C   C426      1.0  0.41979  0.92625  0.11835  1.0000
  C   C427      1.0  0.43056  0.94010  0.09091  1.0000
  C   C428      1.0  0.44742  0.94697  0.09678  1.0000
  C   C429      1.0  0.45371  0.93918  0.12813  1.0000
  H   H710      1.0  0.41802  0.90652  0.16723  1.0000
  H   H711      1.0  0.40660  0.92146  0.11575  1.0000
  H   H712      1.0  0.45570  0.95790  0.07621  1.0000
  H   H713      1.0  0.46667  0.94457  0.13306  1.0000
  C   C430      1.0  0.29740  0.89722  0.40735  1.0000
  H   H714      1.0  0.45634  0.92573  0.26735  1.0000
  H   H715      1.0  0.39642  0.98040  0.45970  1.0000
  C   C431      1.0  0.40511  0.76103  0.86384  1.0000
  C   C432      1.0  0.31189  0.80913  0.98720  1.0000
  C   C433      1.0  0.34326  0.85295  0.64790  1.0000
  C   C434      1.0  0.32727  0.85182  0.63821  1.0000
  C   C435      1.0  0.32561  0.86218  0.60335  1.0000
  C   C436      1.0  0.33989  0.87365  0.57795  1.0000
  C   C437      1.0  0.35583  0.87466  0.58767  1.0000
  C   C438      1.0  0.35749  0.86437  0.62241  1.0000
  H   H716      1.0  0.31621  0.84303  0.65757  1.0000
  H   H717      1.0  0.31322  0.86126  0.59604  1.0000
  H   H718      1.0  0.36689  0.88333  0.56842  1.0000
  H   H719      1.0  0.36988  0.86528  0.62973  1.0000
  C   C439      1.0  0.34941  0.87966  0.94017  1.0000
  C   C440      1.0  0.33290  0.87932  0.95048  1.0000
  C   C441      1.0  0.32005  0.86993  0.92851  1.0000
  C   C442      1.0  0.32359  0.86079  0.89629  1.0000
  C   C443      1.0  0.34024  0.86180  0.88488  1.0000
  C   C444      1.0  0.35303  0.87112  0.90677  1.0000
  H   H720      1.0  0.32994  0.88586  0.97613  1.0000
  H   H721      1.0  0.30725  0.86939  0.93736  1.0000
  H   H722      1.0  0.34327  0.85515  0.85975  1.0000
  H   H723      1.0  0.36578  0.87142  0.89835  1.0000
  S   S160      1.0  0.49378  0.91522  0.47306  1.0000
  H   H724      1.0  0.46310  0.76623  0.91813  1.0000
  C   C445      1.0  0.49248  0.81115  0.95198  1.0000
  C   C446      1.0  0.48570  0.88235  0.62874  1.0000
  C   C447      1.0  0.47305  0.87100  0.65869  1.0000
  C   C448      1.0  0.47715  0.86329  0.69449  1.0000
  C   C449      1.0  0.32295  0.92036  0.41404  1.0000
  H   H725      1.0  0.45888  0.92930  0.32172  1.0000
  H   H726      1.0  0.46002  0.86819  0.65442  1.0000
  H   H727      1.0  0.46729  0.85464  0.71758  1.0000
  C   C450      1.0  0.47315  0.85391  0.96824  1.0000
  C   C451      1.0  0.48152  0.86833  0.93953  1.0000
  S   S161      1.0  0.48818  0.89575  0.14165  1.0000
  H   H728      1.0  0.50151  0.78338  0.97193  1.0000
  C   C452      1.0  0.48134  0.87083  0.02620  1.0000
  C   C453      1.0  0.47310  0.85528  0.01163  1.0000
  H   H729      1.0  0.46584  0.79990  0.95299  1.0000
  H   H730      1.0  0.40745  0.97507  0.19220  1.0000
  H   H731      1.0  0.43653  0.77489  0.71303  1.0000
  H   H732      1.0  0.46666  0.84423  0.03416  1.0000
  C   C454      1.0  0.39804  0.81161  0.80294  1.0000
  C   C455      1.0  0.39376  0.80498  0.84552  1.0000
  C   C456      1.0  0.37675  0.79837  0.86328  1.0000
  C   C457      1.0  0.36408  0.79894  0.83892  1.0000
  C   C458      1.0  0.36847  0.80623  0.79697  1.0000
  C   C459      1.0  0.38537  0.81237  0.77895  1.0000
  H   H733      1.0  0.40350  0.80443  0.86425  1.0000
  H   H734      1.0  0.37339  0.79281  0.89584  1.0000
  H   H735      1.0  0.35878  0.80675  0.77799  1.0000
  H   H736      1.0  0.38860  0.81751  0.74605  1.0000
  C   C460      1.0  0.44242  0.87906  0.09089  1.0000
  H   H737      1.0  0.32283  0.86746  0.46174  1.0000
  N   N29       1.0  0.34047  0.88741  0.73796  1.0000
  C   C461      1.0  0.33547  0.89102  0.69530  1.0000
  C   C462      1.0  0.32755  0.87102  0.75891  1.0000
  C   C463      1.0  0.35760  0.88556  0.73091  1.0000
  C   C464      1.0  0.34100  0.90212  0.76214  1.0000
  C   C465      1.0  0.34851  0.90552  0.66473  1.0000
  C   C466      1.0  0.30948  0.87126  0.76836  1.0000
  C   C467      1.0  0.36269  0.87582  0.76681  1.0000
  C   C468      1.0  0.34329  0.90027  0.80910  1.0000
  H   H738      1.0  0.33259  0.87961  0.67854  1.0000
  H   H739      1.0  0.32372  0.89417  0.69847  1.0000
  H   H740      1.0  0.33082  0.86661  0.78922  1.0000
  H   H741      1.0  0.32714  0.86068  0.73908  1.0000
  H   H742      1.0  0.35857  0.87871  0.70305  1.0000
  H   H743      1.0  0.36764  0.89816  0.72337  1.0000
  H   H744      1.0  0.35148  0.91365  0.74741  1.0000
  H   H745      1.0  0.32965  0.90583  0.75997  1.0000
  H   H746      1.0  0.36008  0.90264  0.65515  1.0000
  H   H747      1.0  0.34303  0.90708  0.63529  1.0000
  H   H748      1.0  0.35174  0.91777  0.67776  1.0000
  H   H749      1.0  0.30396  0.87291  0.73920  1.0000
  H   H750      1.0  0.30134  0.85889  0.78565  1.0000
  H   H751      1.0  0.30877  0.88095  0.78905  1.0000
  H   H752      1.0  0.35580  0.86209  0.76859  1.0000
  H   H753      1.0  0.36081  0.88008  0.79789  1.0000
  H   H754      1.0  0.37624  0.87749  0.75970  1.0000
  H   H755      1.0  0.35680  0.90451  0.81320  1.0000
  H   H756      1.0  0.33690  0.88741  0.82550  1.0000
  H   H757      1.0  0.33730  0.90820  0.82618  1.0000
  N   N30       1.0  0.42484  0.88546  0.58023  1.0000
  C   C469      1.0  0.41428  0.87538  0.62042  1.0000
  C   C470      1.0  0.41302  0.88988  0.55310  1.0000
  C   C471      1.0  0.43735  0.90133  0.59188  1.0000
  C   C472      1.0  0.43377  0.87474  0.55985  1.0000
  C   C473      1.0  0.42399  0.87060  0.65472  1.0000
  C   C474      1.0  0.40004  0.87485  0.53727  1.0000
  C   C475      1.0  0.44480  0.91656  0.55730  1.0000
  C   C476      1.0  0.44350  0.88147  0.51532  1.0000
  H   H758      1.0  0.40649  0.88233  0.63512  1.0000
  H   H759      1.0  0.40521  0.86321  0.61405  1.0000
  H   H760      1.0  0.41981  0.89866  0.52460  1.0000
  H   H761      1.0  0.40597  0.89694  0.57036  1.0000
  H   H762      1.0  0.43154  0.90617  0.61842  1.0000
  H   H763      1.0  0.44820  0.89860  0.60362  1.0000
  H   H764      1.0  0.44322  0.87281  0.57945  1.0000
  H   H765      1.0  0.42505  0.86166  0.55902  1.0000
  H   H766      1.0  0.43023  0.86164  0.64458  1.0000
  H   H767      1.0  0.43330  0.88177  0.66474  1.0000
  H   H768      1.0  0.41490  0.86398  0.68316  1.0000
  H   H769      1.0  0.39274  0.87980  0.51603  1.0000
  H   H770      1.0  0.40615  0.86754  0.51838  1.0000
  H   H771      1.0  0.39076  0.86640  0.56316  1.0000
  H   H772      1.0  0.45531  0.92632  0.56848  1.0000
  H   H773      1.0  0.43532  0.92257  0.55086  1.0000
  H   H774      1.0  0.45658  0.88974  0.51688  1.0000
  H   H775      1.0  0.43740  0.88826  0.49525  1.0000
  H   H776      1.0  0.44396  0.87066  0.49837  1.0000
  H   H777      1.0  0.33301  0.89860  0.44992  1.0000
  C   C477      1.0  0.40398  0.96829  0.16471  1.0000
  H   H778      1.0  0.29139  0.89752  0.43950  1.0000
  Fe  Fe82      1.0  0.49950  0.94277  0.47901  1.0000
  H   H779      1.0  0.40421  0.88453  0.32857  1.0000
  H   H780      1.0  0.32801  0.90782  0.29682  1.0000
  H   H781      1.0  0.28419  0.86993  0.42368  1.0000
  C   C478      1.0  0.34028  0.80873  0.99750  1.0000
  C   C479      1.0  0.33336  0.79994  0.04276  1.0000
  H   H782      1.0  0.34106  0.79840  0.97861  1.0000
  H   H783      1.0  0.35352  0.81698  0.99790  1.0000
  H   H784      1.0  0.43941  0.97489  0.50987  1.0000
  H   H785      1.0  0.33107  0.80856  0.06479  1.0000
  H   H786      1.0  0.34271  0.79483  0.05502  1.0000
  H   H787      1.0  0.32167  0.78899  0.04323  1.0000
  H   H788      1.0  0.42009  0.87384  0.06107  1.0000
  N   N31       1.0  0.43832  0.89702  0.02673  1.0000
  C   C480      1.0  0.45214  0.91177  0.03856  1.0000
  C   C481      1.0  0.43031  0.88523  0.06670  1.0000
  C   C482      1.0  0.42551  0.90378  0.00996  1.0000
  C   C483      1.0  0.44594  0.88894  0.99364  1.0000
  C   C484      1.0  0.46037  0.92687  0.00403  1.0000
  C   C485      1.0  0.40975  0.89079  0.99765  1.0000
  C   C486      1.0  0.43648  0.87011  0.99002  1.0000
  H   H789      1.0  0.44742  0.91673  0.06632  1.0000
  H   H790      1.0  0.46261  0.90775  0.04836  1.0000
  H   H791      1.0  0.39872  0.89252  0.27994  1.0000
  H   H792      1.0  0.42118  0.91106  0.03332  1.0000
  H   H793      1.0  0.43110  0.91280  0.98091  1.0000
  H   H794      1.0  0.44775  0.89618  0.96196  1.0000
  H   H795      1.0  0.45874  0.88952  0.99996  1.0000
  H   H796      1.0  0.47155  0.93570  0.01502  1.0000
  H   H797      1.0  0.46468  0.92291  0.97417  1.0000
  H   H798      1.0  0.45186  0.93415  0.99857  1.0000
  H   H799      1.0  0.45015  0.88916  0.10785  1.0000
  H   H800      1.0  0.40249  0.88110  0.02415  1.0000
  H   H801      1.0  0.41285  0.88492  0.96978  1.0000
  H   H802      1.0  0.40123  0.89755  0.98798  1.0000
  H   H803      1.0  0.43877  0.86780  0.95676  1.0000
  H   H804      1.0  0.42273  0.86579  0.99884  1.0000
  H   H805      1.0  0.44183  0.86186  0.00828  1.0000
  H   H806      1.0  0.33063  0.84438  0.96899  1.0000
  H   H807      1.0  0.32898  0.85097  0.03634  1.0000
  C   C487      1.0  0.41603  0.97668  0.12381  1.0000
  H   H808      1.0  0.41095  0.96853  0.09932  1.0000
  H   H809      1.0  0.48398  0.78763  0.02559  1.0000
  H   H810      1.0  0.34023  0.83772  0.05506  1.0000
  S   S162      1.0  0.49976  0.90535  0.01386  1.0000
  C   C488      1.0  0.47215  0.78019  0.01404  1.0000
  H   H811      1.0  0.29401  0.90674  0.38755  1.0000
  H   H812      1.0  0.30375  0.92180  0.46415  1.0000
  H   H813      1.0  0.30269  0.83063  0.97591  1.0000
  H   H814      1.0  0.47360  0.75534  0.03697  1.0000
  H   H815      1.0  0.44268  0.94486  0.30710  1.0000
  C   C489      1.0  0.49702  0.77504  0.91115  1.0000
  H   H816      1.0  0.48629  0.83799  0.46675  1.0000
  C   C490      1.0  0.33037  0.83834  0.03542  1.0000
  C   C491      1.0  0.49085  0.77488  0.95811  1.0000
  H   H817      1.0  0.40653  0.76171  0.71610  1.0000
  C   C492      1.0  0.49397  0.86686  0.70051  1.0000
  H   H818      1.0  0.30158  0.81783  0.93290  1.0000
  C   C493      1.0  0.45337  0.91979  0.30052  1.0000
  H   H819      1.0  0.42827  0.97502  0.12793  1.0000
  H   H820      1.0  0.46339  0.78720  0.02157  1.0000
  C   C494      1.0  0.40986  0.99043  0.55342  1.0000
  Fe  Fe83      1.0  0.49898  0.91314  0.53994  1.0000
  C   C495      1.0  0.44644  0.97622  0.53745  1.0000
  C   C496      1.0  0.32206  0.91101  0.32590  1.0000
  S   S163      1.0  0.48945  0.93214  0.09337  1.0000
  H   H821      1.0  0.44647  0.96344  0.54870  1.0000
  H   H822      1.0  0.46054  0.85366  0.55762  1.0000
  H   H823      1.0  0.39073  0.96659  0.16072  1.0000
  C   C497      1.0  0.40902  0.92750  0.23891  1.0000
  H   H824      1.0  0.32825  0.92478  0.32628  1.0000
  H   H825      1.0  0.47236  0.99525  0.99566  1.0000
  H   H826      1.0  0.32369  0.93810  0.45979  1.0000
  H   H827      1.0  0.40016  0.91597  0.22894  1.0000
  C   C498      1.0  0.46538  0.76302  0.04207  1.0000
  H   H828      1.0  0.44187  0.77482  0.98897  1.0000
  H   H829      1.0  0.45978  0.91028  0.30315  1.0000
  C   C499      1.0  0.31748  0.92439  0.45812  1.0000
  H   H830      1.0  0.44125  0.98263  0.06053  1.0000
  H   H831      1.0  0.48103  0.87517  0.50741  1.0000
  H   H832      1.0  0.38797  0.97763  0.00956  1.0000
  S   S164      1.0  0.49950  0.85763  0.74556  1.0000
  H   H833      1.0  0.34342  0.99002  0.04016  1.0000
  H   H834      1.0  0.43570  0.93382  0.24212  1.0000
  C   C500      1.0  0.35399  0.82681  0.91307  1.0000
  C   C501      1.0  0.47711  0.79629  0.94422  1.0000
  H   H835      1.0  0.41170  0.98457  0.58287  1.0000
  H   H836      1.0  0.28708  0.81019  0.97971  1.0000
  H   H837      1.0  0.41403  0.93646  0.20969  1.0000
  S   S165      1.0  0.47992  0.89171  0.58433  1.0000
  H   H838      1.0  0.48122  0.87167  0.05963  1.0000
  C   C502      1.0  0.39805  0.89298  0.31441  1.0000
  H   H839      1.0  0.40548  0.91028  0.36024  1.0000
  H   H840      1.0  0.38460  0.88773  0.32805  1.0000
  H   H841      1.0  0.45001  0.91336  0.52758  1.0000
  H   H842      1.0  0.43503  0.86840  0.11522  1.0000
  H   H843      1.0  0.47190  0.85682  0.48294  1.0000
  H   H844      1.0  0.42403  0.89147  0.08899  1.0000
  H   H845      1.0  0.32923  0.82816  0.91316  1.0000
  C   C503      1.0  0.40566  0.91114  0.32552  1.0000
  H   H846      1.0  0.39660  0.91762  0.31965  1.0000
  H   H847      1.0  0.40433  0.95535  0.17206  1.0000
  S   S166      1.0  0.47102  0.77599  0.82626  1.0000
  H   H848      1.0  0.36055  0.81812  0.92361  1.0000
  C   C504      1.0  0.33541  0.83625  0.98934  1.0000
  H   H849      1.0  0.43251  0.90688  0.34855  1.0000
  H   H850      1.0  0.45081  0.87458  0.06996  1.0000
  H   H851      1.0  0.47334  0.97417  0.99778  1.0000
  H   H852      1.0  0.47222  0.98518  0.54859  1.0000
  S   S167      1.0  0.40011  0.95851  0.53072  1.0000
  C   C505      1.0  0.32134  0.87425  0.43208  1.0000
  C   C506      1.0  0.36456  0.98177  0.02629  1.0000
  H   H853      1.0  0.46489  0.76529  0.07568  1.0000
  H   H854      1.0  0.27629  0.87989  0.38285  1.0000
  H   H855      1.0  0.37648  0.75570  0.75787  1.0000
  C   C507      1.0  0.43431  0.91092  0.31408  1.0000
  H   H856      1.0  0.42995  0.93526  0.35596  1.0000
  H   H857      1.0  0.43093  0.89904  0.29903  1.0000
  H   H858      1.0  0.48812  0.76493  0.89661  1.0000
  H   H859      1.0  0.45300  0.77995  0.74529  1.0000
  C   C508      1.0  0.49697  0.84410  0.48412  1.0000
  C   C509      1.0  0.38201  0.98700  0.01408  1.0000
  H   H860      1.0  0.34926  0.84265  0.98315  1.0000
  H   H861      1.0  0.42173  0.95526  0.28149  1.0000
  H   H862      1.0  0.32141  0.88744  0.35708  1.0000
  H   H863      1.0  0.39604  0.76261  0.88919  1.0000
  H   H864      1.0  0.36039  0.83961  0.92130  1.0000
  N   N32       1.0  0.42312  0.92099  0.30365  1.0000
  N   N33       1.0  0.31616  0.90205  0.40646  1.0000
  C   C510      1.0  0.32044  0.89162  0.44120  1.0000
  H   H865      1.0  0.35555  0.82781  0.87815  1.0000
  C   C511      1.0  0.40114  0.98803  0.48416  1.0000
  C   C512      1.0  0.44338  0.76836  0.96104  1.0000
  C   C513      1.0  0.42956  0.93757  0.32143  1.0000
  H   H866      1.0  0.40193  0.93325  0.25983  1.0000
  C   C514      1.0  0.32490  0.90064  0.36443  1.0000
  H   H867      1.0  0.49223  0.82300  0.93478  1.0000
  H   H868      1.0  0.29483  0.87550  0.37015  1.0000
  C   C515      1.0  0.28788  0.87958  0.39557  1.0000
  H   H869      1.0  0.30881  0.79631  0.97667  1.0000
  H   H870      1.0  0.33257  0.87568  0.40926  1.0000
  H   H871      1.0  0.31921  0.92857  0.39103  1.0000
  H   H872      1.0  0.31143  0.88941  0.47052  1.0000
  C   C516      1.0  0.33500  0.81993  0.92997  1.0000
  H   H873      1.0  0.30761  0.80675  0.02152  1.0000
  H   H874      1.0  0.43810  0.75531  0.87379  1.0000
  C   C517      1.0  0.40377  0.98040  0.52186  1.0000
  N   N34       1.0  0.41849  0.99494  0.10927  1.0000
  C   C518      1.0  0.42817  0.77259  0.78164  1.0000
  C   C519      1.0  0.25394  0.75855  0.78960  1.0000
  C   C520      1.0  0.42386  0.92362  0.25640  1.0000
  H   H875      1.0  0.40632  0.94433  0.32706  1.0000
  C   C521      1.0  0.41989  0.94993  0.31502  1.0000
  C   C522      1.0  0.30040  0.81765  0.96759  1.0000
  H   H876      1.0  0.44107  0.77562  0.93335  1.0000
  H   H877      1.0  0.42506  0.96076  0.33296  1.0000
  H   H878      1.0  0.33696  0.92506  0.40904  1.0000
  H   H879      1.0  0.30993  0.86611  0.42084  1.0000
  H   H880      1.0  0.42428  0.91200  0.24297  1.0000
  H   H881      1.0  0.46964  0.98482  0.49494  1.0000
  H   H882      1.0  0.31805  0.82929  0.04989  1.0000
  C   C523      1.0  0.49773  0.99509  0.97567  1.0000
  H   H883      1.0  0.43945  0.98036  0.56281  1.0000
  H   H884      1.0  0.39551  0.99406  0.14809  1.0000
  N   N35       1.0  0.33053  0.81858  0.97712  1.0000
  H   H885      1.0  0.32969  0.80737  0.91871  1.0000
  N   N36       1.0  0.47518  0.77938  0.96730  1.0000
  C   C524      1.0  0.47842  0.98701  0.98045  1.0000
  H   H886      1.0  0.49306  0.85592  0.40494  1.0000
  N   N37       1.0  0.49825  0.86200  0.48992  1.0000
  H   H887      1.0  0.44350  0.00345  0.12725  1.0000
  H   H888      1.0  0.49463  0.91934  0.63799  1.0000
  C   C525      1.0  0.35687  0.99395  0.03104  1.0000
  H   H889      1.0  0.47440  0.98554  0.94872  1.0000
  H   H890      1.0  0.43313  0.76873  0.80988  1.0000
  H   H891      1.0  0.49614  0.89492  0.93154  1.0000
  C   C526      1.0  0.48623  0.98931  0.07927  1.0000
  H   H892      1.0  0.48893  0.76198  0.97346  1.0000
  C   C527      1.0  0.40420  0.76868  0.74268  1.0000
  H   H893      1.0  0.45238  0.75568  0.03719  1.0000
  H   H894      1.0  0.50072  0.87766  0.38389  1.0000
  H   H895      1.0  0.41173  0.78223  0.73191  1.0000
  H   H896      1.0  0.41480  0.98962  0.04537  1.0000
  H   H897      1.0  0.49362  0.83612  0.51516  1.0000
  C   C528      1.0  0.40197  0.99811  0.11542  1.0000
  C   C529      1.0  0.46074  0.76620  0.95272  1.0000
  C   C530      1.0  0.44011  0.77124  0.74363  1.0000
  H   H898      1.0  0.48880  0.96564  0.03589  1.0000
  H   H899      1.0  0.48665  0.97748  0.09619  1.0000
  H   H900      1.0  0.49775  0.93916  0.65705  1.0000
  H   H901      1.0  0.44104  0.75842  0.74455  1.0000
  H   H902      1.0  0.40210  0.77963  0.81864  1.0000
  C   C531      1.0  0.48972  0.88525  0.99745  1.0000
  H   H903      1.0  0.49805  0.00273  0.53748  1.0000
  H   H904      1.0  0.46970  0.83792  0.54756  1.0000
  N   N38       1.0  0.40980  0.76252  0.78239  1.0000
  H   H905      1.0  0.49792  0.96346  0.95962  1.0000
  H   H906      1.0  0.41766  0.76953  0.86867  1.0000
  C   C532      1.0  0.38578  0.76816  0.74511  1.0000
  H   H907      1.0  0.26045  0.75928  0.85250  1.0000
  C   C533      1.0  0.40031  0.76595  0.82085  1.0000
  H   H908      1.0  0.43339  0.75573  0.96697  1.0000
  H   H909      1.0  0.48471  0.99741  0.10384  1.0000
  C   C534      1.0  0.50126  0.92763  0.66045  1.0000
  C   C535      1.0  0.47264  0.85167  0.54863  1.0000
  C   C536      1.0  0.39165  0.00442  0.00715  1.0000
  C   C537      1.0  0.48087  0.86200  0.50538  1.0000
  C   C538      1.0  0.42444  0.99798  0.06246  1.0000
  H   H910      1.0  0.38656  0.75944  0.82275  1.0000
  H   H911      1.0  0.49222  0.81312  0.98568  1.0000
  C   C539      1.0  0.49409  0.86876  0.41256  1.0000
  H   H912      1.0  0.48036  0.85576  0.57415  1.0000
  C   C540      1.0  0.44120  0.99528  0.04863  1.0000
  H   H913      1.0  0.45807  0.00449  0.45940  1.0000
  H   H914      1.0  0.38310  0.77136  0.71296  1.0000
  H   H915      1.0  0.38368  0.77785  0.76428  1.0000
  H   H916      1.0  0.49643  0.92063  0.69238  1.0000
  H   H917      1.0  0.43162  0.99788  0.19690  1.0000
  H   H918      1.0  0.47502  0.98664  0.06288  1.0000
  H   H919      1.0  0.49954  0.78741  0.89229  1.0000
  H   H920      1.0  0.44319  0.99629  0.01367  1.0000
  Fe  Fe84      1.0  0.50095  0.91227  0.08109  1.0000
  H   H921      1.0  0.50146  0.94859  0.99716  1.0000
  H   H922      1.0  0.45699  0.99116  0.61061  1.0000
  C   C541      1.0  0.46564  0.00435  0.60242  1.0000
  H   H923      1.0  0.47871  0.00452  0.60134  1.0000
  Fe  Fe85      1.0  0.58502  0.05595  0.03393  1.0000
  S   S168      1.0  0.60323  0.07982  0.99579  1.0000
  H   H924      1.0  0.61365  0.09727  0.13580  1.0000
  Fe  Fe86      1.0  0.55775  0.07072  0.05007  1.0000
  S   S169      1.0  0.57317  0.09556  0.01401  1.0000
  S   S170      1.0  0.53188  0.06656  0.08319  1.0000
  Fe  Fe87      1.0  0.58078  0.08086  0.96544  1.0000
  S   S171      1.0  0.57878  0.09113  0.89928  1.0000
  Fe  Fe88      1.0  0.59447  0.09314  0.04692  1.0000
  S   S172      1.0  0.60920  0.11891  0.06494  1.0000
  S   S173      1.0  0.56351  0.05608  0.99930  1.0000
  S   S174      1.0  0.57823  0.06922  0.08740  1.0000
  Fe  Fe89      1.0  0.59353  0.07538  0.66645  1.0000
  S   S175      1.0  0.59646  0.06007  0.61348  1.0000
  S   S176      1.0  0.60666  0.07359  0.72394  1.0000
  Fe  Fe90      1.0  0.57043  0.08968  0.62278  1.0000
  S   S177      1.0  0.57185  0.07581  0.56701  1.0000
  S   S178      1.0  0.55335  0.10509  0.62263  1.0000
  H   H925      1.0  0.58474  0.12254  0.41343  1.0000
  H   H926      1.0  0.54244  0.07525  0.73986  1.0000
  Fe  Fe91      1.0  0.59926  0.08378  0.57091  1.0000
  S   S179      1.0  0.61607  0.09251  0.50808  1.0000
  S   S180      1.0  0.56552  0.06712  0.67016  1.0000
  S   S181      1.0  0.59833  0.09951  0.62361  1.0000
  H   H927      1.0  0.57399  0.22194  0.19146  1.0000
  H   H928      1.0  0.53640  0.09253  0.47424  1.0000
  C   C542      1.0  0.64174  0.06490  0.60650  1.0000
  H   H929      1.0  0.58375  0.12514  0.54826  1.0000
  H   H930      1.0  0.52341  0.13402  0.08736  1.0000
  H   H931      1.0  0.67667  0.12729  0.60950  1.0000
  C   C543      1.0  0.56356  0.00816  0.59183  1.0000
  Fe  Fe92      1.0  0.51496  0.16362  0.27909  1.0000
  S   S182      1.0  0.53421  0.15335  0.30319  1.0000
  H   H932      1.0  0.51758  0.09739  0.68799  1.0000
  C   C544      1.0  0.59084  0.12292  0.26790  1.0000
  S   S183      1.0  0.51881  0.18366  0.22499  1.0000
  C   C545      1.0  0.72261  0.24724  0.32012  1.0000
  Fe  Fe93      1.0  0.66844  0.19736  0.26949  1.0000
  S   S184      1.0  0.64740  0.19994  0.31366  1.0000
  S   S185      1.0  0.69251  0.21933  0.24129  1.0000
  Fe  Fe94      1.0  0.64719  0.16072  0.25746  1.0000
  S   S186      1.0  0.62496  0.16091  0.30115  1.0000
  S   S187      1.0  0.64410  0.13603  0.23005  1.0000
  Fe  Fe95      1.0  0.63033  0.18693  0.26856  1.0000
  S   S188      1.0  0.61060  0.19591  0.24255  1.0000
  Fe  Fe96      1.0  0.64385  0.17348  0.34266  1.0000
  S   S189      1.0  0.63821  0.16731  0.41401  1.0000
  S   S190      1.0  0.65138  0.18601  0.22197  1.0000
  S   S191      1.0  0.66611  0.17162  0.30146  1.0000
  C   C546      1.0  0.70816  0.23530  0.26212  1.0000
  C   C547      1.0  0.70883  0.23554  0.30544  1.0000
  C   C548      1.0  0.57764  0.24280  0.23049  1.0000
  H   H933      1.0  0.69896  0.22640  0.32755  1.0000
  H   H934      1.0  0.59189  0.22526  0.22011  1.0000
  C   C549      1.0  0.55542  0.16503  0.28591  1.0000
  C   C550      1.0  0.56013  0.17645  0.24922  1.0000
  C   C551      1.0  0.57717  0.18560  0.23580  1.0000
  C   C552      1.0  0.58955  0.18338  0.25894  1.0000
  C   C553      1.0  0.58487  0.17168  0.29520  1.0000
  C   C554      1.0  0.56781  0.16246  0.30854  1.0000
  H   H935      1.0  0.55068  0.17815  0.23099  1.0000
  H   H936      1.0  0.58078  0.19439  0.20728  1.0000
  H   H937      1.0  0.59434  0.17003  0.31349  1.0000
  H   H938      1.0  0.56418  0.15350  0.33675  1.0000
  H   H939      1.0  0.63580  0.05442  0.58816  1.0000
  H   H940      1.0  0.64935  0.13632  0.98436  1.0000
  N   N39       1.0  0.56816  0.23500  0.27369  1.0000
  H   H941      1.0  0.61314  0.12153  0.86836  1.0000
  H   H942      1.0  0.53227  0.13966  0.01305  1.0000
  H   H943      1.0  0.59070  0.16737  0.13174  1.0000
  C   C555      1.0  0.58399  0.12963  0.44088  1.0000
  C   C556      1.0  0.52360  0.12702  0.00846  1.0000
  H   H944      1.0  0.65601  0.11835  0.98715  1.0000
  H   H945      1.0  0.59825  0.15301  0.40100  1.0000
  C   C557      1.0  0.53519  0.09279  0.60369  1.0000
  C   C558      1.0  0.53283  0.07587  0.59927  1.0000
  C   C559      1.0  0.51936  0.06629  0.58031  1.0000
  C   C560      1.0  0.67969  0.11601  0.62028  1.0000
  H   H946      1.0  0.71179  0.18383  0.37351  1.0000
  C   C561      1.0  0.52325  0.09979  0.59188  1.0000
  H   H947      1.0  0.54120  0.06993  0.61103  1.0000
  H   H948      1.0  0.51791  0.05331  0.57620  1.0000
  C   C562      1.0  0.58140  0.13606  0.53191  1.0000
  H   H949      1.0  0.52488  0.11282  0.59574  1.0000
  C   C563      1.0  0.62130  0.11323  0.48210  1.0000
  C   C564      1.0  0.62677  0.11636  0.43856  1.0000
  C   C565      1.0  0.63175  0.13281  0.41714  1.0000
  C   C566      1.0  0.63171  0.14637  0.43937  1.0000
  C   C567      1.0  0.62637  0.14326  0.48302  1.0000
  C   C568      1.0  0.62093  0.12673  0.50423  1.0000
  H   H950      1.0  0.62719  0.10600  0.42124  1.0000
  H   H951      1.0  0.63588  0.13505  0.38356  1.0000
  H   H952      1.0  0.62634  0.15370  0.50042  1.0000
  H   H953      1.0  0.61679  0.12452  0.53776  1.0000
  C   C569      1.0  0.51562  0.05558  0.05567  1.0000
  H   H954      1.0  0.66956  0.08919  0.62740  1.0000
  H   H955      1.0  0.53951  0.19429  0.30902  1.0000
  C   C570      1.0  0.65860  0.11612  0.52940  1.0000
  H   H956      1.0  0.67544  0.09799  0.57476  1.0000
  C   C571      1.0  0.51912  0.05226  0.01449  1.0000
  H   H957      1.0  0.50273  0.01174  0.04076  1.0000
  H   H958      1.0  0.59275  0.23949  0.17531  1.0000
  H   H959      1.0  0.52420  0.08956  0.99240  1.0000
  H   H960      1.0  0.53184  0.05661  0.99897  1.0000
  C   C572      1.0  0.58573  0.08490  0.85148  1.0000
  C   C573      1.0  0.59654  0.07548  0.84973  1.0000
  C   C574      1.0  0.60279  0.07197  0.81050  1.0000
  C   C575      1.0  0.59797  0.07748  0.77290  1.0000
  C   C576      1.0  0.58687  0.08657  0.77482  1.0000
  C   C577      1.0  0.58094  0.09041  0.81387  1.0000
  H   H961      1.0  0.60031  0.07116  0.87845  1.0000
  H   H962      1.0  0.61135  0.06490  0.80929  1.0000
  H   H963      1.0  0.58310  0.09092  0.74611  1.0000
  H   H964      1.0  0.57261  0.09772  0.81492  1.0000
  C   C578      1.0  0.61918  0.12320  0.11061  1.0000
  C   C579      1.0  0.62683  0.14013  0.11720  1.0000
  C   C580      1.0  0.63436  0.14422  0.15377  1.0000
  C   C581      1.0  0.63467  0.13139  0.18372  1.0000
  C   C582      1.0  0.62727  0.11445  0.17680  1.0000
  C   C583      1.0  0.61942  0.11035  0.14058  1.0000
  H   H965      1.0  0.62677  0.15016  0.09413  1.0000
  H   H966      1.0  0.64008  0.15730  0.15860  1.0000
  H   H967      1.0  0.62752  0.10446  0.19974  1.0000
  H   H968      1.0  0.73348  0.22302  0.27191  1.0000
  H   H969      1.0  0.53886  0.09340  0.71687  1.0000
  H   H970      1.0  0.65681  0.12745  0.51338  1.0000
  H   H971      1.0  0.65366  0.12287  0.91464  1.0000
  C   C584      1.0  0.64551  0.12279  0.98019  1.0000
  H   H972      1.0  0.63463  0.11556  0.00416  1.0000
  H   H973      1.0  0.51110  0.02227  0.50863  1.0000
  C   C585      1.0  0.64143  0.11913  0.93551  1.0000
  H   H974      1.0  0.63617  0.10507  0.93769  1.0000
  H   H975      1.0  0.65935  0.15854  0.93025  1.0000
  H   H976      1.0  0.55814  0.03128  0.09154  1.0000
  C   C586      1.0  0.60297  0.13475  0.93572  1.0000
  H   H977      1.0  0.65011  0.14463  0.87318  1.0000
  H   H978      1.0  0.64256  0.10768  0.85999  1.0000
  H   H979      1.0  0.63863  0.15702  0.95407  1.0000
  H   H980      1.0  0.63389  0.11809  0.64875  1.0000
  H   H981      1.0  0.55844  0.09727  0.51411  1.0000
  C   C587      1.0  0.64075  0.09521  0.64471  1.0000
  H   H982      1.0  0.59577  0.14038  0.14352  1.0000
  H   H983      1.0  0.57845  0.14335  0.55700  1.0000
  H   H984      1.0  0.52619  0.10565  0.45074  1.0000
  C   C588      1.0  0.51530  0.12090  0.08457  1.0000
  H   H985      1.0  0.73333  0.21436  0.20760  1.0000
  C   C589      1.0  0.64666  0.15830  0.92391  1.0000
  C   C590      1.0  0.53344  0.07942  0.72292  1.0000
  N   N40       1.0  0.62969  0.12702  0.91686  1.0000
  C   C591      1.0  0.63922  0.14462  0.89543  1.0000
  C   C592      1.0  0.63399  0.11393  0.84815  1.0000
  H   H986      1.0  0.62038  0.13282  0.97753  1.0000
  H   H987      1.0  0.56394  0.07839  0.47159  1.0000
  H   H988      1.0  0.64129  0.12598  0.82834  1.0000
  H   H989      1.0  0.55565  0.13880  0.03581  1.0000
  C   C593      1.0  0.64886  0.11209  0.57432  1.0000
  H   H990      1.0  0.72917  0.19559  0.18261  1.0000
  N   N41       1.0  0.65072  0.09757  0.60160  1.0000
  H   H991      1.0  0.50774  0.07002  0.66649  1.0000
  C   C594      1.0  0.58717  0.16020  0.16376  1.0000
  H   H992      1.0  0.60483  0.13606  0.20864  1.0000
  H   H993      1.0  0.59778  0.16578  0.18156  1.0000
  C   C595      1.0  0.53633  0.10568  0.47007  1.0000
  H   H994      1.0  0.62719  0.08828  0.64358  1.0000
  H   H995      1.0  0.63477  0.10744  0.69804  1.0000
  C   C596      1.0  0.50919  0.09736  0.04184  1.0000
  C   C597      1.0  0.53837  0.11237  0.05033  1.0000
  C   C598      1.0  0.61563  0.12660  0.95007  1.0000
  H   H996      1.0  0.60832  0.11336  0.96337  1.0000
  H   H997      1.0  0.64779  0.17084  0.90779  1.0000
  S   S192      1.0  0.54656  0.03030  0.60855  1.0000
  H   H998      1.0  0.53218  0.00870  0.12506  1.0000
  C   C599      1.0  0.57041  0.09160  0.45657  1.0000
  C   C600      1.0  0.74050  0.18864  0.31920  1.0000
  C   C601      1.0  0.58404  0.14137  0.15990  1.0000
  H   H999      1.0  0.57488  0.13780  0.13721  1.0000
  H   H1000     1.0  0.58819  0.10950  0.18751  1.0000
  C   C602      1.0  0.55730  0.24529  0.28646  1.0000
  H   H1001     1.0  0.73988  0.22004  0.32151  1.0000
  C   C603      1.0  0.62176  0.11630  0.88404  1.0000
  H   H1002     1.0  0.61388  0.10341  0.89922  1.0000
  H   H1003     1.0  0.62654  0.10554  0.82699  1.0000
  H   H1004     1.0  0.63152  0.14926  0.87463  1.0000
  C   C604      1.0  0.53311  0.01739  0.99122  1.0000
  H   H1005     1.0  0.64469  0.08714  0.66772  1.0000
  H   H1006     1.0  0.55542  0.11418  0.41576  1.0000
  C   C605      1.0  0.59266  0.13483  0.22725  1.0000
  H   H1007     1.0  0.55554  0.10817  0.15157  1.0000
  H   H1008     1.0  0.59432  0.14750  0.23747  1.0000
  H   H1009     1.0  0.57568  0.16224  0.17798  1.0000
  C   C606      1.0  0.50933  0.08997  0.57418  1.0000
  C   C607      1.0  0.50765  0.07333  0.56757  1.0000
  H   H1010     1.0  0.55613  0.20546  0.33627  1.0000
  C   C608      1.0  0.56941  0.01423  0.06555  1.0000
  C   C609      1.0  0.72698  0.20048  0.21293  1.0000
  H   H1011     1.0  0.53283  0.10936  0.50101  1.0000
  H   H1012     1.0  0.72083  0.24727  0.20040  1.0000
  C   C610      1.0  0.64112  0.11125  0.66503  1.0000
  C   C611      1.0  0.58622  0.14782  0.42270  1.0000
  H   H1013     1.0  0.59302  0.14445  0.51203  1.0000
  H   H1014     1.0  0.60232  0.12780  0.28335  1.0000
  H   H1015     1.0  0.59001  0.10998  0.26152  1.0000
  H   H1016     1.0  0.55531  0.12303  0.53043  1.0000
  C   C612      1.0  0.55321  0.11822  0.44728  1.0000
  N   N42       1.0  0.57853  0.12965  0.20063  1.0000
  H   H1017     1.0  0.57621  0.11176  0.12343  1.0000
  C   C613      1.0  0.57590  0.11166  0.19204  1.0000
  C   C614      1.0  0.56751  0.10581  0.15289  1.0000
  H   H1018     1.0  0.59352  0.22063  0.33440  1.0000
  H   H1019     1.0  0.50914  0.09841  0.97287  1.0000
  C   C615      1.0  0.54877  0.01192  0.59047  1.0000
  N   N43       1.0  0.73211  0.19735  0.29050  1.0000
  N   N44       1.0  0.56816  0.12058  0.47085  1.0000
  H   H1020     1.0  0.56833  0.10256  0.21962  1.0000
  H   H1021     1.0  0.50844  0.13353  0.96337  1.0000
  H   H1022     1.0  0.55115  0.13046  0.44021  1.0000
  H   H1023     1.0  0.58860  0.25422  0.23290  1.0000
  H   H1024     1.0  0.59536  0.12765  0.91289  1.0000
  H   H1025     1.0  0.60915  0.14819  0.92269  1.0000
  H   H1026     1.0  0.72718  0.17802  0.24848  1.0000
  H   H1027     1.0  0.59394  0.13437  0.96361  1.0000
  H   H1028     1.0  0.52773  0.02339  0.96713  1.0000
  C   C616      1.0  0.72115  0.24734  0.23396  1.0000
  H   H1029     1.0  0.56429  0.09291  0.42838  1.0000
  H   H1030     1.0  0.65281  0.12404  0.58859  1.0000
  H   H1031     1.0  0.69302  0.11889  0.60673  1.0000
  C   C617      1.0  0.56631  0.13051  0.50689  1.0000
  H   H1032     1.0  0.55017  0.13344  0.16933  1.0000
  H   H1033     1.0  0.65373  0.10582  0.50980  1.0000
  H   H1034     1.0  0.56584  0.14327  0.23824  1.0000
  C   C618      1.0  0.56307  0.13097  0.22531  1.0000
  H   H1035     1.0  0.58004  0.12250  0.29086  1.0000
  C   C619      1.0  0.51159  0.09065  0.99930  1.0000
  H   H1036     1.0  0.70830  0.20136  0.28896  1.0000
  C   C620      1.0  0.51620  0.07344  0.75069  1.0000
  C   C621      1.0  0.73389  0.19184  0.24736  1.0000
  H   H1037     1.0  0.73972  0.16369  0.30224  1.0000
  H   H1038     1.0  0.65066  0.08229  0.55011  1.0000
  H   H1039     1.0  0.54343  0.10880  0.02064  1.0000
  C   C622      1.0  0.51323  0.10996  0.12691  1.0000
  C   C623      1.0  0.54735  0.12820  0.20286  1.0000
  H   H1040     1.0  0.56467  0.09197  0.15348  1.0000
  H   H1041     1.0  0.56360  0.14207  0.49587  1.0000
  H   H1042     1.0  0.58710  0.15634  0.44750  1.0000
  C   C624      1.0  0.50737  0.13000  0.99785  1.0000
  H   H1043     1.0  0.50958  0.10177  0.73751  1.0000
  C   C625      1.0  0.50906  0.24081  0.27226  1.0000
  H   H1044     1.0  0.56390  0.12469  0.06277  1.0000
  H   H1045     1.0  0.71572  0.20634  0.36264  1.0000
  H   H1046     1.0  0.52991  0.12388  0.97979  1.0000
  C   C626      1.0  0.54726  0.20716  0.31471  1.0000
  C   C627      1.0  0.73316  0.16913  0.32581  1.0000
  H   H1047     1.0  0.70617  0.18007  0.29907  1.0000
  H   H1048     1.0  0.63535  0.10969  0.57140  1.0000
  H   H1049     1.0  0.55892  0.12161  0.25407  1.0000
  H   H1050     1.0  0.72318  0.24703  0.35364  1.0000
  H   H1051     1.0  0.57424  0.01695  0.60301  1.0000
  H   H1052     1.0  0.53960  0.13516  0.21751  1.0000
  H   H1053     1.0  0.58433  0.21194  0.29139  1.0000
  C   C628      1.0  0.74038  0.21618  0.28926  1.0000
  H   H1054     1.0  0.54676  0.21745  0.25113  1.0000
  H   H1055     1.0  0.53962  0.11459  0.20623  1.0000
  H   H1056     1.0  0.57604  0.14824  0.40408  1.0000
  H   H1057     1.0  0.74725  0.19367  0.23604  1.0000
  H   H1058     1.0  0.71321  0.19753  0.22013  1.0000
  H   H1059     1.0  0.65415  0.06410  0.61172  1.0000
  H   H1060     1.0  0.63042  0.08067  0.57403  1.0000
  C   C629      1.0  0.58438  0.23154  0.20345  1.0000
  C   C630      1.0  0.55660  0.01824  0.08814  1.0000
  C   C631      1.0  0.55644  0.21729  0.27199  1.0000
  Fe  Fe97      1.0  0.56858  0.05362  0.61416  1.0000
  H   H1061     1.0  0.53281  0.07396  0.69269  1.0000
  H   H1062     1.0  0.71953  0.16400  0.32394  1.0000
  H   H1063     1.0  0.54675  0.02086  0.98003  1.0000
  C   C632      1.0  0.70917  0.19373  0.35340  1.0000
  H   H1064     1.0  0.56305  0.20942  0.25756  1.0000
  H   H1065     1.0  0.53705  0.10173  0.07471  1.0000
  C   C633      1.0  0.64326  0.08179  0.58105  1.0000
  H   H1066     1.0  0.67229  0.11910  0.52957  1.0000
  H   H1067     1.0  0.65395  0.11993  0.66629  1.0000
  H   H1068     1.0  0.59527  0.13002  0.45595  1.0000
  C   C634      1.0  0.50626  0.09348  0.71212  1.0000
  H   H1069     1.0  0.60294  0.23053  0.28197  1.0000
  C   C635      1.0  0.66881  0.09959  0.60500  1.0000
  H   H1070     1.0  0.58040  0.10597  0.50497  1.0000
  H   H1071     1.0  0.74099  0.19345  0.35050  1.0000
  N   N45       1.0  0.52160  0.11443  0.04631  1.0000
  H   H1072     1.0  0.50524  0.14027  0.01465  1.0000
  H   H1073     1.0  0.57031  0.01034  0.19220  1.0000
  C   C636      1.0  0.56907  0.10392  0.48870  1.0000
  C   C637      1.0  0.71365  0.19284  0.30614  1.0000
  H   H1074     1.0  0.58381  0.09331  0.44619  1.0000
  H   H1075     1.0  0.53216  0.02282  0.02128  1.0000
  C   C638      1.0  0.50603  0.04403  0.99227  1.0000
  H   H1076     1.0  0.67888  0.11457  0.65517  1.0000
  H   H1077     1.0  0.53854  0.21278  0.33045  1.0000
  H   H1078     1.0  0.63348  0.06243  0.63703  1.0000
  S   S193      1.0  0.58818  0.03040  0.04287  1.0000
  H   H1079     1.0  0.69546  0.19141  0.36009  1.0000
  C   C639      1.0  0.59079  0.22412  0.30252  1.0000
  H   H1080     1.0  0.54902  0.13180  0.09166  1.0000
  C   C640      1.0  0.55233  0.12797  0.06077  1.0000
  H   H1081     1.0  0.56951  0.24730  0.21073  1.0000
  H   H1082     1.0  0.52513  0.10830  0.13384  1.0000
  H   H1083     1.0  0.51778  0.08045  0.77884  1.0000
  C   C641      1.0  0.54186  0.00540  0.10709  1.0000
  H   H1084     1.0  0.73471  0.16445  0.35794  1.0000
  H   H1085     1.0  0.50883  0.04188  0.96006  1.0000
  H   H1086     1.0  0.51389  0.06001  0.76256  1.0000
  H   H1087     1.0  0.54770  0.24436  0.26468  1.0000
  H   H1088     1.0  0.57346  0.23340  0.33849  1.0000
  H   H1089     1.0  0.58934  0.24875  0.30385  1.0000
  C   C642      1.0  0.58012  0.23575  0.30572  1.0000
  H   H1090     1.0  0.55009  0.24035  0.31833  1.0000
  H   H1091     1.0  0.50907  0.11630  0.15267  1.0000
  S   S194      1.0  0.51339  0.22183  0.28517  1.0000
  H   H1092     1.0  0.50972  0.08762  0.06662  1.0000
  Fe  Fe98      1.0  0.50356  0.19463  0.26825  1.0000
  H   H1093     1.0  0.50333  0.09742  0.12802  1.0000
  H   H1094     1.0  0.50279  0.12196  0.08138  1.0000
  H   H1095     1.0  0.50231  0.07776  0.00077  1.0000
  H   H1096     1.0  0.52605  0.25460  0.31274  1.0000
  S   S195      1.0  0.56482  0.46160  0.05694  1.0000
  H   H1097     1.0  0.52933  0.48248  0.69068  1.0000
  C   C643      1.0  0.56012  0.46799  0.84594  1.0000
  H   H1098     1.0  0.52059  0.42664  0.20987  1.0000
  C   C644      1.0  0.52399  0.41648  0.12878  1.0000
  Fe  Fe99      1.0  0.53613  0.34712  0.29053  1.0000
  H   H1099     1.0  0.54894  0.49487  0.85655  1.0000
  S   S196      1.0  0.56023  0.35445  0.32044  1.0000
  Fe  Fe100     1.0  0.51729  0.35303  0.21796  1.0000
  C   C645      1.0  0.56360  0.45101  0.92581  1.0000
  C   C646      1.0  0.55340  0.47224  0.80523  1.0000
  H   H1100     1.0  0.72694  0.29102  0.22848  1.0000
  H   H1101     1.0  0.69891  0.31747  0.33317  1.0000
  H   H1102     1.0  0.52633  0.44763  0.15033  1.0000
  C   C647      1.0  0.50267  0.27160  0.25513  1.0000
  S   S197      1.0  0.52300  0.36567  0.27636  1.0000
  S   S198      1.0  0.53271  0.33624  0.22900  1.0000
  H   H1103     1.0  0.60123  0.48299  0.55726  1.0000
  C   C648      1.0  0.72277  0.29392  0.29522  1.0000
  H   H1104     1.0  0.74765  0.32087  0.36584  1.0000
  Fe  Fe101     1.0  0.67117  0.45510  0.33354  1.0000
  S   S199      1.0  0.64576  0.43647  0.36363  1.0000
  S   S200      1.0  0.69402  0.44661  0.34148  1.0000
  Fe  Fe102     1.0  0.65525  0.48013  0.29997  1.0000
  S   S201      1.0  0.62937  0.46370  0.32789  1.0000
  H   H1105     1.0  0.64876  0.49025  0.44569  1.0000
  Fe  Fe103     1.0  0.64067  0.45919  0.38556  1.0000
  C   C649      1.0  0.50722  0.37702  0.08465  1.0000
  Fe  Fe104     1.0  0.63599  0.44230  0.30397  1.0000
  S   S202      1.0  0.61528  0.42735  0.26814  1.0000
  Fe  Fe105     1.0  0.58102  0.48894  0.05111  1.0000
  S   S203      1.0  0.66153  0.45915  0.27157  1.0000
  H   H1106     1.0  0.55715  0.27046  0.29584  1.0000
  C   C650      1.0  0.52199  0.44450  0.71485  1.0000
  H   H1107     1.0  0.59555  0.48297  0.32020  1.0000
  C   C651      1.0  0.73935  0.30744  0.37194  1.0000
  C   C652      1.0  0.72407  0.47411  0.32036  1.0000
  C   C653      1.0  0.71635  0.45687  0.33443  1.0000
  C   C654      1.0  0.72669  0.44729  0.34350  1.0000
  C   C655      1.0  0.51423  0.27056  0.28241  1.0000
  H   H1108     1.0  0.54214  0.42041  0.17512  1.0000
  H   H1109     1.0  0.71639  0.48169  0.31320  1.0000
  H   H1110     1.0  0.72091  0.43395  0.35432  1.0000
  S   S204      1.0  0.66642  0.47742  0.35994  1.0000
  C   C656      1.0  0.57553  0.37468  0.30578  1.0000
  C   C657      1.0  0.57365  0.38587  0.27378  1.0000
  C   C658      1.0  0.58589  0.40199  0.26304  1.0000
  C   C659      1.0  0.60004  0.40716  0.28434  1.0000
  C   C660      1.0  0.60182  0.39608  0.31681  1.0000
  C   C661      1.0  0.58965  0.37984  0.32729  1.0000
  H   H1111     1.0  0.56285  0.38204  0.25703  1.0000
  H   H1112     1.0  0.58433  0.41044  0.23799  1.0000
  H   H1113     1.0  0.61274  0.39988  0.33321  1.0000
  H   H1114     1.0  0.59119  0.37122  0.35205  1.0000
  C   C662      1.0  0.56049  0.46802  0.92274  1.0000
  N   N46       1.0  0.55227  0.47222  0.88583  1.0000
  S   S205      1.0  0.51322  0.32673  0.32656  1.0000
  H   H1115     1.0  0.50656  0.30461  0.09178  1.0000
  C   C663      1.0  0.59307  0.49357  0.33507  1.0000
  H   H1116     1.0  0.72963  0.33472  0.31826  1.0000
  H   H1117     1.0  0.55887  0.45448  0.84768  1.0000
  C   C664      1.0  0.73481  0.25919  0.24867  1.0000
  H   H1118     1.0  0.61196  0.48643  0.41985  1.0000
  C   C665      1.0  0.55178  0.49873  0.92085  1.0000
  C   C666      1.0  0.74517  0.48195  0.42561  1.0000
  H   H1119     1.0  0.57515  0.26663  0.31187  1.0000
  C   C667      1.0  0.60275  0.48370  0.39735  1.0000
  C   C668      1.0  0.53805  0.46115  0.60222  1.0000
  C   C669      1.0  0.52838  0.44772  0.58300  1.0000
  H   H1120     1.0  0.53842  0.49293  0.93480  1.0000
  C   C670      1.0  0.58544  0.47514  0.42424  1.0000
  C   C671      1.0  0.51874  0.47618  0.58975  1.0000
  C   C672      1.0  0.50860  0.46228  0.57268  1.0000
  H   H1121     1.0  0.53202  0.43665  0.58061  1.0000
  H   H1122     1.0  0.73655  0.29653  0.29005  1.0000
  H   H1123     1.0  0.74419  0.32526  0.29834  1.0000
  C   C673      1.0  0.56658  0.26433  0.28748  1.0000
  C   C674      1.0  0.54520  0.45981  0.04182  1.0000
  C   C675      1.0  0.53877  0.47296  0.04536  1.0000
  C   C676      1.0  0.52359  0.47197  0.03056  1.0000
  H   H1124     1.0  0.50690  0.35728  0.40065  1.0000
  C   C677      1.0  0.52071  0.44421  0.01099  1.0000
  C   C678      1.0  0.53604  0.44530  0.02520  1.0000
  H   H1125     1.0  0.50184  0.47488  0.67571  1.0000
  H   H1126     1.0  0.51881  0.48232  0.03275  1.0000
  H   H1127     1.0  0.54535  0.48380  0.06009  1.0000
  H   H1128     1.0  0.54096  0.43507  0.02254  1.0000
  C   C679      1.0  0.74178  0.48157  0.31537  1.0000
  H   H1129     1.0  0.50851  0.45098  0.66675  1.0000
  C   C680      1.0  0.61165  0.48466  0.53311  1.0000
  H   H1130     1.0  0.55923  0.46743  0.77879  1.0000
  N   N47       1.0  0.56370  0.40483  0.41562  1.0000
  C   C681      1.0  0.58264  0.41047  0.41293  1.0000
  C   C682      1.0  0.55669  0.38840  0.44449  1.0000
  C   C683      1.0  0.55812  0.41807  0.43526  1.0000
  C   C684      1.0  0.55896  0.40319  0.37168  1.0000
  C   C685      1.0  0.59255  0.42772  0.38695  1.0000
  C   C686      1.0  0.56253  0.37391  0.43071  1.0000
  C   C687      1.0  0.53904  0.41462  0.44342  1.0000
  C   C688      1.0  0.54111  0.39119  0.36755  1.0000
  H   H1131     1.0  0.58660  0.41100  0.44501  1.0000
  H   H1132     1.0  0.58759  0.40126  0.39829  1.0000
  H   H1133     1.0  0.54279  0.38342  0.44887  1.0000
  H   H1134     1.0  0.56004  0.39040  0.47679  1.0000
  H   H1135     1.0  0.56307  0.42026  0.46595  1.0000
  H   H1136     1.0  0.56337  0.43042  0.41504  1.0000
  H   H1137     1.0  0.56057  0.41580  0.35494  1.0000
  H   H1138     1.0  0.56773  0.39839  0.35284  1.0000
  H   H1139     1.0  0.60615  0.42933  0.38349  1.0000
  H   H1140     1.0  0.58915  0.42859  0.35464  1.0000
  H   H1141     1.0  0.59126  0.43840  0.40326  1.0000
  H   H1142     1.0  0.57563  0.37582  0.43663  1.0000
  H   H1143     1.0  0.55446  0.36183  0.44950  1.0000
  H   H1144     1.0  0.56153  0.37232  0.39715  1.0000
  H   H1145     1.0  0.53358  0.41489  0.41357  1.0000
  H   H1146     1.0  0.53684  0.42491  0.45999  1.0000
  H   H1147     1.0  0.53208  0.40273  0.46426  1.0000
  H   H1148     1.0  0.53651  0.39642  0.34030  1.0000
  H   H1149     1.0  0.53152  0.38930  0.39498  1.0000
  H   H1150     1.0  0.54147  0.37874  0.35956  1.0000
  C   C689      1.0  0.50551  0.44537  0.70035  1.0000
  C   C690      1.0  0.53361  0.47567  0.60427  1.0000
  H   H1151     1.0  0.52379  0.47989  0.74713  1.0000
  H   H1152     1.0  0.52068  0.28152  0.29713  1.0000
  C   C691      1.0  0.66144  0.50182  0.18320  1.0000
  N   N48       1.0  0.71897  0.30769  0.31697  1.0000
  C   C692      1.0  0.62509  0.47323  0.47803  1.0000
  H   H1153     1.0  0.62169  0.42428  0.17015  1.0000
  C   C693      1.0  0.53342  0.46373  0.89384  1.0000
  C   C694      1.0  0.73103  0.32489  0.29844  1.0000
  C   C695      1.0  0.52624  0.44449  0.89213  1.0000
  H   H1154     1.0  0.52841  0.46574  0.92551  1.0000
  H   H1155     1.0  0.52700  0.46977  0.87226  1.0000
  H   H1156     1.0  0.65300  0.46678  0.12130  1.0000
  H   H1157     1.0  0.57385  0.45120  0.90123  1.0000
  H   H1158     1.0  0.52493  0.43740  0.92359  1.0000
  H   H1159     1.0  0.53341  0.43969  0.86883  1.0000
  H   H1160     1.0  0.51352  0.44122  0.88213  1.0000
  C   C696      1.0  0.51431  0.44030  0.13959  1.0000
  H   H1161     1.0  0.60120  0.41136  0.16297  1.0000
  S   S206      1.0  0.62370  0.45656  0.44692  1.0000
  H   H1162     1.0  0.52075  0.40257  0.13328  1.0000
  H   H1163     1.0  0.57536  0.46969  0.40489  1.0000
  C   C697      1.0  0.61181  0.47129  0.50991  1.0000
  H   H1164     1.0  0.51869  0.33603  0.09852  1.0000
  H   H1165     1.0  0.51962  0.43642  0.74542  1.0000
  C   C698      1.0  0.72129  0.30521  0.36282  1.0000
  H   H1166     1.0  0.61501  0.42381  0.11796  1.0000
  S   S207      1.0  0.55485  0.45900  0.62623  1.0000
  C   C699      1.0  0.73577  0.25906  0.29188  1.0000
  C   C700      1.0  0.54173  0.42410  0.14148  1.0000
  H   H1167     1.0  0.74743  0.48336  0.55027  1.0000
  H   H1168     1.0  0.54125  0.48619  0.61850  1.0000
  C   C701      1.0  0.70114  0.30727  0.31605  1.0000
  H   H1169     1.0  0.55222  0.44013  0.92420  1.0000
  H   H1170     1.0  0.55709  0.48608  0.79662  1.0000
  C   C702      1.0  0.74440  0.45475  0.33857  1.0000
  H   H1171     1.0  0.73940  0.34404  0.24449  1.0000
  H   H1172     1.0  0.57395  0.47467  0.84119  1.0000
  H   H1173     1.0  0.60147  0.45943  0.51645  1.0000
  Fe  Fe106     1.0  0.57102  0.48386  0.64155  1.0000
  H   H1174     1.0  0.73902  0.30338  0.40585  1.0000
  H   H1175     1.0  0.56788  0.44893  0.95673  1.0000
  H   H1176     1.0  0.52791  0.43840  0.69159  1.0000
  C   C703      1.0  0.50211  0.47299  0.71027  1.0000
  H   H1177     1.0  0.67494  0.29091  0.32821  1.0000
  H   H1178     1.0  0.53960  0.46617  0.80740  1.0000
  H   H1179     1.0  0.73363  0.32331  0.23007  1.0000
  H   H1180     1.0  0.71043  0.29924  0.23905  1.0000
  H   H1181     1.0  0.71345  0.29228  0.37771  1.0000
  Fe  Fe107     1.0  0.50879  0.31711  0.26359  1.0000
  H   H1182     1.0  0.68661  0.28843  0.36981  1.0000
  C   C704      1.0  0.52016  0.48339  0.71661  1.0000
  C   C705      1.0  0.51385  0.44845  0.56748  1.0000
  C   C706      1.0  0.51674  0.32584  0.12453  1.0000
  N   N49       1.0  0.61568  0.45572  0.14625  1.0000
  C   C707      1.0  0.60611  0.46747  0.15640  1.0000
  C   C708      1.0  0.62115  0.45862  0.09929  1.0000
  C   C709      1.0  0.63087  0.46004  0.16963  1.0000
  C   C710      1.0  0.60408  0.43791  0.16057  1.0000
  C   C711      1.0  0.60162  0.46856  0.20371  1.0000
  C   C712      1.0  0.60707  0.45626  0.07111  1.0000
  C   C713      1.0  0.64682  0.45724  0.14907  1.0000
  C   C714      1.0  0.61116  0.42374  0.15194  1.0000
  H   H1183     1.0  0.61335  0.48053  0.14129  1.0000
  H   H1184     1.0  0.59397  0.46379  0.14321  1.0000
  H   H1185     1.0  0.62815  0.45025  0.08942  1.0000
  H   H1186     1.0  0.63016  0.47172  0.09012  1.0000
  H   H1187     1.0  0.63516  0.47358  0.17424  1.0000
  H   H1188     1.0  0.62764  0.45325  0.20205  1.0000
  H   H1189     1.0  0.60022  0.43615  0.19512  1.0000
  H   H1190     1.0  0.59222  0.43528  0.14637  1.0000
  H   H1191     1.0  0.59524  0.47807  0.20644  1.0000
  H   H1192     1.0  0.59278  0.45642  0.22042  1.0000
  H   H1193     1.0  0.61284  0.47286  0.22025  1.0000
  H   H1194     1.0  0.59747  0.44346  0.07742  1.0000
  H   H1195     1.0  0.60102  0.46600  0.07382  1.0000
  H   H1196     1.0  0.61271  0.45794  0.03764  1.0000
  H   H1197     1.0  0.64443  0.44446  0.13958  1.0000
  H   H1198     1.0  0.65601  0.45902  0.17208  1.0000
  C   C715      1.0  0.63820  0.50209  0.49310  1.0000
  H   H1199     1.0  0.55305  0.46831  0.95296  1.0000
  H   H1200     1.0  0.54686  0.43802  0.13402  1.0000
  C   C716      1.0  0.71629  0.29046  0.25233  1.0000
  N   N50       1.0  0.51033  0.42163  0.15120  1.0000
  S   S208      1.0  0.60029  0.49391  0.76718  1.0000
  C   C717      1.0  0.55592  0.49109  0.88078  1.0000
  H   H1201     1.0  0.67207  0.49836  0.19097  1.0000
  S   S209      1.0  0.52040  0.36765  0.15312  1.0000
  H   H1202     1.0  0.71767  0.28167  0.31607  1.0000
  H   H1203     1.0  0.51076  0.37048  0.46713  1.0000
  H   H1204     1.0  0.50499  0.34887  0.63603  1.0000
  C   C718      1.0  0.73001  0.33111  0.25275  1.0000
  H   H1205     1.0  0.52013  0.38213  0.06968  1.0000
  S   S210      1.0  0.56599  0.49625  0.69789  1.0000
  H   H1206     1.0  0.51483  0.48703  0.59314  1.0000
  H   H1207     1.0  0.53126  0.45708  0.71660  1.0000
  C   C719      1.0  0.63837  0.48866  0.46989  1.0000
  H   H1208     1.0  0.58200  0.48383  0.44452  1.0000
  C   C720      1.0  0.51460  0.45764  0.01308  1.0000
  H   H1209     1.0  0.57352  0.27081  0.25636  1.0000
  H   H1210     1.0  0.66658  0.50069  0.11660  1.0000
  H   H1211     1.0  0.68914  0.27946  0.32124  1.0000
  H   H1212     1.0  0.50658  0.43819  0.55189  1.0000
  H   H1213     1.0  0.60566  0.47400  0.37962  1.0000
  C   C721      1.0  0.68736  0.29046  0.33503  1.0000
  H   H1214     1.0  0.73458  0.47244  0.41394  1.0000
  H   H1215     1.0  0.52861  0.32299  0.12391  1.0000
  H   H1216     1.0  0.51480  0.33049  0.15516  1.0000
  H   H1217     1.0  0.70715  0.27740  0.25480  1.0000
  H   H1218     1.0  0.58545  0.50139  0.27638  1.0000
  S   S211      1.0  0.59730  0.48650  0.65134  1.0000
  C   C722      1.0  0.50927  0.41816  0.19831  1.0000
  H   H1219     1.0  0.51378  0.43307  0.99792  1.0000
  H   H1220     1.0  0.51679  0.44381  0.10490  1.0000
  H   H1221     1.0  0.71703  0.31410  0.38102  1.0000
  H   H1222     1.0  0.75056  0.49245  0.39963  1.0000
  H   H1223     1.0  0.58612  0.46447  0.44579  1.0000
  H   H1224     1.0  0.69850  0.31010  0.28384  1.0000
  H   H1225     1.0  0.50884  0.37625  0.65380  1.0000
  H   H1226     1.0  0.52522  0.41984  0.09420  1.0000
  H   H1227     1.0  0.71765  0.33223  0.24836  1.0000
  H   H1228     1.0  0.52127  0.49688  0.71660  1.0000
  H   H1229     1.0  0.55040  0.41911  0.12287  1.0000
  S   S212      1.0  0.60534  0.49749  0.00785  1.0000
  H   H1230     1.0  0.74582  0.46673  0.51989  1.0000
  H   H1231     1.0  0.57311  0.47779  0.92248  1.0000
  H   H1232     1.0  0.75079  0.46160  0.45685  1.0000
  H   H1233     1.0  0.63753  0.49450  0.37850  1.0000
  H   H1234     1.0  0.51788  0.39609  0.20463  1.0000
  H   H1235     1.0  0.50574  0.39861  0.25046  1.0000
  C   C723      1.0  0.62483  0.50014  0.52482  1.0000
  H   H1236     1.0  0.73969  0.48634  0.45324  1.0000
  S   S213      1.0  0.59205  0.50033  0.10662  1.0000
  H   H1237     1.0  0.74753  0.49490  0.30447  1.0000
  C   C724      1.0  0.50694  0.39979  0.21550  1.0000
  H   H1238     1.0  0.56943  0.49789  0.86915  1.0000
  H   H1239     1.0  0.74482  0.26813  0.22649  1.0000
  C   C725      1.0  0.51734  0.25526  0.29096  1.0000
  H   H1240     1.0  0.57969  0.48857  0.34956  1.0000
  H   H1241     1.0  0.51024  0.45526  0.77914  1.0000
  H   H1242     1.0  0.50422  0.45230  0.18891  1.0000
  C   C726      1.0  0.50359  0.36888  0.12616  1.0000
  H   H1243     1.0  0.56002  0.49780  0.94497  1.0000
  H   H1244     1.0  0.74502  0.29957  0.35392  1.0000
  H   H1245     1.0  0.62420  0.49944  0.31880  1.0000
  N   N51       1.0  0.60462  0.49922  0.36786  1.0000
  C   C727      1.0  0.65839  0.50326  0.14110  1.0000
  H   H1246     1.0  0.50757  0.39216  0.61562  1.0000
  H   H1247     1.0  0.60750  0.48819  0.85067  1.0000
  H   H1248     1.0  0.50335  0.31871  0.03667  1.0000
  C   C728      1.0  0.60443  0.49966  0.84840  1.0000
  C   C729      1.0  0.50226  0.30962  0.11987  1.0000
  Fe  Fe108     1.0  0.59315  0.50118  0.70420  1.0000
  H   H1249     1.0  0.60702  0.50341  0.91332  1.0000
  H   H1250     1.0  0.54740  0.65946  0.80779  1.0000
  Fe  Fe109     1.0  0.51382  0.58518  0.10415  1.0000
  C   C730      1.0  0.60036  0.52317  0.88120  1.0000
  H   H1251     1.0  0.54237  0.67215  0.66777  1.0000
  H   H1252     1.0  0.52550  0.63508  0.76814  1.0000
  S   S214      1.0  0.59973  0.53410  0.92544  1.0000
  Fe  Fe110     1.0  0.58680  0.52333  0.08039  1.0000
  S   S215      1.0  0.57693  0.53880  0.12347  1.0000
  H   H1253     1.0  0.54906  0.65524  0.18533  1.0000
  S   S216      1.0  0.61196  0.53470  0.04040  1.0000
  S   S217      1.0  0.50591  0.61915  0.62944  1.0000
  C   C731      1.0  0.53761  0.64697  0.20633  1.0000
  C   C732      1.0  0.53326  0.66681  0.73493  1.0000
  S   S218      1.0  0.52766  0.57420  0.05747  1.0000
  H   H1254     1.0  0.50253  0.62080  0.01556  1.0000
  H   H1255     1.0  0.62374  0.51497  0.15466  1.0000
  S   S219      1.0  0.52219  0.60139  0.24930  1.0000
  S   S220      1.0  0.52327  0.61091  0.12584  1.0000
  H   H1256     1.0  0.59156  0.54937  0.47827  1.0000
  Fe  Fe111     1.0  0.57535  0.52006  0.65260  1.0000
  S   S221      1.0  0.60252  0.52600  0.66239  1.0000
  S   S222      1.0  0.56297  0.53987  0.65946  1.0000
  H   H1257     1.0  0.54160  0.67901  0.19937  1.0000
  H   H1258     1.0  0.54382  0.66209  0.73944  1.0000
  C   C733      1.0  0.60820  0.57525  0.03620  1.0000
  H   H1259     1.0  0.62144  0.59010  0.53184  1.0000
  H   H1260     1.0  0.54896  0.65748  0.26160  1.0000
  H   H1261     1.0  0.53830  0.68051  0.73842  1.0000
  H   H1262     1.0  0.62973  0.51338  0.22872  1.0000
  S   S223      1.0  0.62447  0.51732  0.55259  1.0000
  H   H1263     1.0  0.62028  0.56815  0.47032  1.0000
  H   H1264     1.0  0.55308  0.63906  0.24770  1.0000
  H   H1265     1.0  0.61108  0.60243  0.98146  1.0000
  H   H1266     1.0  0.58186  0.57835  0.91446  1.0000
  H   H1267     1.0  0.63450  0.56633  0.59112  1.0000
  H   H1268     1.0  0.61620  0.54887  0.52098  1.0000
  H   H1269     1.0  0.53091  0.67114  0.25005  1.0000
  S   S224      1.0  0.51552  0.55277  0.53017  1.0000
  S   S225      1.0  0.51354  0.60017  0.51854  1.0000
  C   C734      1.0  0.51067  0.60097  0.29860  1.0000
  C   C735      1.0  0.51879  0.65298  0.16009  1.0000
  S   S226      1.0  0.57364  0.51100  0.02849  1.0000
  C   C736      1.0  0.50314  0.66216  0.75860  1.0000
  H   H1270     1.0  0.64111  0.55514  0.55251  1.0000
  H   H1271     1.0  0.53019  0.64185  0.83677  1.0000
  H   H1272     1.0  0.56974  0.59764  0.04448  1.0000
  H   H1273     1.0  0.58171  0.58525  0.06133  1.0000
  H   H1274     1.0  0.60105  0.58696  0.52035  1.0000
  H   H1275     1.0  0.63974  0.57527  0.53593  1.0000
  H   H1276     1.0  0.60209  0.60277  0.93481  1.0000
  C   C737      1.0  0.54874  0.54237  0.62519  1.0000
  C   C738      1.0  0.54455  0.53216  0.59299  1.0000
  C   C739      1.0  0.53421  0.53538  0.56425  1.0000
  C   C740      1.0  0.52787  0.54869  0.56778  1.0000
  C   C741      1.0  0.53168  0.55859  0.60064  1.0000
  C   C742      1.0  0.54212  0.55545  0.62918  1.0000
  H   H1277     1.0  0.54943  0.52194  0.58986  1.0000
  H   H1278     1.0  0.53120  0.52760  0.53905  1.0000
  H   H1279     1.0  0.52682  0.56885  0.60364  1.0000
  H   H1280     1.0  0.54528  0.56337  0.65406  1.0000
  N   N52       1.0  0.51829  0.65766  0.76766  1.0000
  H   H1281     1.0  0.58995  0.53198  0.51734  1.0000
  H   H1282     1.0  0.60952  0.58833  0.04144  1.0000
  H   H1283     1.0  0.63217  0.60247  0.92822  1.0000
  H   H1284     1.0  0.60404  0.56763  0.06769  1.0000
  C   C743      1.0  0.51791  0.59947  0.33548  1.0000
  Fe  Fe112     1.0  0.51001  0.59738  0.18976  1.0000
  C   C744      1.0  0.64464  0.50774  0.13071  1.0000
  H   H1285     1.0  0.53001  0.59773  0.33347  1.0000
  C   C745      1.0  0.60802  0.51799  0.42916  1.0000
  C   C746      1.0  0.60412  0.50824  0.88397  1.0000
  C   C747      1.0  0.59683  0.52942  0.84268  1.0000
  C   C748      1.0  0.59686  0.52067  0.80719  1.0000
  C   C749      1.0  0.52258  0.66276  0.81014  1.0000
  H   H1286     1.0  0.61828  0.58728  0.90133  1.0000
  H   H1287     1.0  0.60238  0.52399  0.36803  1.0000
  H   H1288     1.0  0.59393  0.54098  0.84033  1.0000
  Fe  Fe113     1.0  0.50266  0.57213  0.53927  1.0000
  C   C750      1.0  0.51421  0.63894  0.76663  1.0000
  S   S227      1.0  0.64050  0.50813  0.07804  1.0000
  H   H1289     1.0  0.52119  0.67135  0.67911  1.0000
  C   C751      1.0  0.53270  0.66382  0.12479  1.0000
  C   C752      1.0  0.63422  0.51126  0.16250  1.0000
  H   H1290     1.0  0.50764  0.65670  0.15624  1.0000
  C   C753      1.0  0.65101  0.50530  0.21500  1.0000
  C   C754      1.0  0.56163  0.54708  0.10764  1.0000
  C   C755      1.0  0.55365  0.54219  0.07243  1.0000
  C   C756      1.0  0.54259  0.55003  0.05839  1.0000
  C   C757      1.0  0.53940  0.56276  0.07953  1.0000
  C   C758      1.0  0.54671  0.56709  0.11594  1.0000
  C   C759      1.0  0.55784  0.55928  0.12988  1.0000
  H   H1291     1.0  0.55619  0.53258  0.05560  1.0000
  H   H1292     1.0  0.53679  0.54650  0.03051  1.0000
  H   H1293     1.0  0.54425  0.57685  0.13254  1.0000
  H   H1294     1.0  0.56384  0.56301  0.15739  1.0000
  Fe  Fe114     1.0  0.59903  0.52068  0.98984  1.0000
  H   H1295     1.0  0.61979  0.52899  0.42024  1.0000
  C   C760      1.0  0.63754  0.51025  0.20445  1.0000
  C   C761      1.0  0.62093  0.59081  0.93308  1.0000
  Fe  Fe115     1.0  0.60403  0.51064  0.60858  1.0000
  H   H1296     1.0  0.63598  0.51304  0.40069  1.0000
  C   C762      1.0  0.54326  0.64510  0.25018  1.0000
  H   H1297     1.0  0.64899  0.51503  0.35225  1.0000
  C   C763      1.0  0.53033  0.66536  0.68844  1.0000
  C   C764      1.0  0.60601  0.59440  0.95705  1.0000
  C   C765      1.0  0.59049  0.57978  0.60474  1.0000
  C   C766      1.0  0.61058  0.58055  0.52111  1.0000
  C   C767      1.0  0.63365  0.56358  0.55810  1.0000
  H   H1298     1.0  0.52734  0.66325  0.09454  1.0000
  H   H1299     1.0  0.51033  0.63535  0.73579  1.0000
  H   H1300     1.0  0.57169  0.53641  0.50597  1.0000
  Fe  Fe116     1.0  0.61606  0.51058  0.06213  1.0000
  C   C768      1.0  0.58650  0.55395  0.54456  1.0000
  H   H1301     1.0  0.59010  0.51753  0.31029  1.0000
  H   H1302     1.0  0.59830  0.55839  0.61982  1.0000
  H   H1303     1.0  0.51540  0.59928  0.40322  1.0000
  H   H1304     1.0  0.53742  0.67729  0.13004  1.0000
  C   C769      1.0  0.59959  0.51225  0.39000  1.0000
  N   N53       1.0  0.52323  0.65369  0.20434  1.0000
  H   H1305     1.0  0.57753  0.57302  0.59875  1.0000
  H   H1306     1.0  0.55425  0.51243  0.91239  1.0000
  C   C770      1.0  0.51716  0.68176  0.21123  1.0000
  H   H1307     1.0  0.52792  0.67676  0.80862  1.0000
  H   H1308     1.0  0.53442  0.63433  0.19478  1.0000
  N   N54       1.0  0.59114  0.57902  0.97513  1.0000
  C   C771      1.0  0.58468  0.56978  0.93857  1.0000
  C   C772      1.0  0.57733  0.58460  0.99512  1.0000
  C   C773      1.0  0.59560  0.56718  0.00582  1.0000
  C   C774      1.0  0.56887  0.55377  0.94940  1.0000
  H   H1309     1.0  0.59524  0.59255  0.58668  1.0000
  H   H1310     1.0  0.59442  0.56552  0.92208  1.0000
  H   H1311     1.0  0.57383  0.59289  0.97169  1.0000
  H   H1312     1.0  0.56575  0.57367  0.00555  1.0000
  H   H1313     1.0  0.58408  0.55834  0.02545  1.0000
  H   H1314     1.0  0.60115  0.55901  0.98826  1.0000
  H   H1315     1.0  0.57018  0.54480  0.97484  1.0000
  H   H1316     1.0  0.55733  0.55688  0.95756  1.0000
  H   H1317     1.0  0.56700  0.54696  0.92113  1.0000
  H   H1318     1.0  0.62432  0.58077  0.95038  1.0000
  C   C775      1.0  0.58519  0.54244  0.50924  1.0000
  H   H1319     1.0  0.61012  0.54308  0.57520  1.0000
  H   H1320     1.0  0.62635  0.59022  0.46067  1.0000
  H   H1321     1.0  0.60507  0.57764  0.45623  1.0000
  N   N55       1.0  0.60389  0.56467  0.55188  1.0000
  H   H1322     1.0  0.57988  0.54525  0.57357  1.0000
  C   C776      1.0  0.58073  0.59381  0.03441  1.0000
  H   H1323     1.0  0.58961  0.58152  0.63870  1.0000
  H   H1324     1.0  0.53809  0.66110  0.85897  1.0000
  C   C777      1.0  0.60248  0.56974  0.59577  1.0000
  C   C778      1.0  0.61567  0.57876  0.47473  1.0000
  H   H1325     1.0  0.62078  0.57451  0.02580  1.0000
  C   C779      1.0  0.61537  0.55432  0.55097  1.0000
  H   H1326     1.0  0.61488  0.57780  0.60314  1.0000
  H   H1327     1.0  0.59187  0.60548  0.02843  1.0000
  H   H1328     1.0  0.57866  0.56190  0.53794  1.0000
  C   C780      1.0  0.53533  0.65578  0.82893  1.0000
  H   H1329     1.0  0.53296  0.63673  0.27410  1.0000
  C   C781      1.0  0.52893  0.67139  0.21632  1.0000
  H   H1330     1.0  0.59397  0.52545  0.77771  1.0000
  C   C782      1.0  0.60072  0.50577  0.81000  1.0000
  H   H1331     1.0  0.51023  0.64482  0.26808  1.0000
  H   H1332     1.0  0.52626  0.65212  0.68115  1.0000
  C   C783      1.0  0.50967  0.60035  0.37501  1.0000
  H   H1333     1.0  0.52485  0.69537  0.20433  1.0000
  H   H1334     1.0  0.62497  0.51984  0.33043  1.0000
  H   H1335     1.0  0.58572  0.50810  0.39909  1.0000
  S   S228      1.0  0.65546  0.50497  0.26738  1.0000
  H   H1336     1.0  0.61072  0.50798  0.44833  1.0000
  C   C784      1.0  0.50855  0.64216  0.23512  1.0000
  C   C785      1.0  0.50535  0.68110  0.75607  1.0000
  H   H1337     1.0  0.51111  0.65914  0.83380  1.0000
  C   C786      1.0  0.63683  0.50730  0.37129  1.0000
  C   C787      1.0  0.62240  0.50670  0.34527  1.0000
  H   H1338     1.0  0.50843  0.67998  0.24072  1.0000
  H   H1339     1.0  0.50789  0.62882  0.23416  1.0000
  S   S229      1.0  0.50269  0.57157  0.16863  1.0000
  H   H1340     1.0  0.64847  0.51399  0.48657  1.0000
  H   H1341     1.0  0.59927  0.52175  0.45094  1.0000
  H   H1342     1.0  0.51585  0.68898  0.73203  1.0000
  H   H1343     1.0  0.51494  0.63970  0.15269  1.0000
  S   S230      1.0  0.57779  0.50709  0.59535  1.0000
  H   H1344     1.0  0.50986  0.67906  0.18454  1.0000
  H   H1345     1.0  0.60685  0.51263  0.28057  1.0000
  H   H1346     1.0  0.54322  0.65884  0.12036  1.0000
  H   H1347     1.0  0.50696  0.68582  0.78714  1.0000
  C   C788      1.0  0.59413  0.50724  0.29886  1.0000
  N   N56       1.0  0.55295  0.96620  0.21795  1.0000
  H   H1348     1.0  0.51623  0.95849  0.68681  1.0000
  S   S231      1.0  0.52377  0.89980  0.21550  1.0000
  H   H1349     1.0  0.58147  0.99631  0.20472  1.0000
  S   S232      1.0  0.52042  0.97305  0.12661  1.0000
  S   S233      1.0  0.52454  0.92630  0.10835  1.0000
  H   H1350     1.0  0.52208  0.91915  0.64851  1.0000
  S   S234      1.0  0.55125  0.96152  0.55343  1.0000
  S   S235      1.0  0.52642  0.91807  0.52142  1.0000
  C   C789      1.0  0.55049  0.98128  0.56532  1.0000
  C   C790      1.0  0.50254  0.88576  0.63434  1.0000
  C   C791      1.0  0.50433  0.87378  0.44933  1.0000
  C   C792      1.0  0.52622  0.93503  0.72357  1.0000
  C   C793      1.0  0.52856  0.87592  0.50868  1.0000
  C   C794      1.0  0.53584  0.98522  0.56319  1.0000
  H   H1351     1.0  0.54976  0.92757  0.61655  1.0000
  H   H1352     1.0  0.50736  0.85858  0.54971  1.0000
  H   H1353     1.0  0.53268  0.94208  0.23647  1.0000
  H   H1354     1.0  0.52511  0.97647  0.55218  1.0000
  C   C795      1.0  0.52564  0.90369  0.26841  1.0000
  C   C796      1.0  0.53711  0.89811  0.28813  1.0000
  C   C797      1.0  0.53945  0.90075  0.32978  1.0000
  H   H1355     1.0  0.54432  0.89170  0.27096  1.0000
  H   H1356     1.0  0.54846  0.89635  0.34428  1.0000
  C   C798      1.0  0.53951  0.98842  0.10267  1.0000
  C   C799      1.0  0.55218  0.98431  0.07955  1.0000
  H   H1357     1.0  0.50936  0.96940  0.04724  1.0000
  H   H1358     1.0  0.51384  0.93581  0.73621  1.0000
  C   C800      1.0  0.56720  0.99721  0.06149  1.0000
  H   H1359     1.0  0.56766  0.93283  0.64385  1.0000
  H   H1360     1.0  0.55044  0.97127  0.07560  1.0000
  H   H1361     1.0  0.51750  0.87549  0.43700  1.0000
  H   H1362     1.0  0.52670  0.95767  0.20997  1.0000
  H   H1363     1.0  0.51684  0.91110  0.76442  1.0000
  H   H1364     1.0  0.50881  0.82994  0.44587  1.0000
  H   H1365     1.0  0.57707  0.99404  0.04389  1.0000
  H   H1366     1.0  0.53356  0.86703  0.49327  1.0000
  H   H1367     1.0  0.56126  0.94126  0.14178  1.0000
  C   C801      1.0  0.56483  0.96475  0.24882  1.0000
  H   H1368     1.0  0.51279  0.00019  0.07028  1.0000
  H   H1369     1.0  0.53820  0.98522  0.68772  1.0000
  H   H1370     1.0  0.52058  0.83893  0.48687  1.0000
  H   H1371     1.0  0.54394  0.98565  0.19165  1.0000
  C   C802      1.0  0.54961  0.94481  0.66422  1.0000
  H   H1372     1.0  0.51887  0.96611  0.97297  1.0000
  H   H1373     1.0  0.56463  0.97319  0.27363  1.0000
  H   H1374     1.0  0.57081  0.96955  0.16183  1.0000
  H   H1375     1.0  0.51147  0.92089  0.35114  1.0000
  H   H1376     1.0  0.57569  0.98972  0.58151  1.0000
  N   N57       1.0  0.50647  0.99075  0.01124  1.0000
  H   H1377     1.0  0.50462  0.88668  0.45503  1.0000
  H   H1378     1.0  0.52063  0.85154  0.43864  1.0000
  H   H1379     1.0  0.54936  0.96304  0.15321  1.0000
  H   H1380     1.0  0.55722  0.94886  0.69019  1.0000
  Fe  Fe117     1.0  0.51060  0.91120  0.17027  1.0000
  C   C803      1.0  0.55373  0.98440  0.21105  1.0000
  H   H1381     1.0  0.54828  0.91795  0.66996  1.0000
  H   H1382     1.0  0.53498  0.94285  0.74339  1.0000
  H   H1383     1.0  0.51969  0.88071  0.67452  1.0000
  C   C804      1.0  0.52520  0.99797  0.99709  1.0000
  H   H1384     1.0  0.55332  0.93626  0.25889  1.0000
  H   H1385     1.0  0.54587  0.93351  0.18676  1.0000
  H   H1386     1.0  0.55504  0.95528  0.63797  1.0000
  C   C805      1.0  0.56153  0.94699  0.27268  1.0000
  C   C806      1.0  0.52906  0.95934  0.67306  1.0000
  C   C807      1.0  0.55380  0.92975  0.64807  1.0000
  N   N58       1.0  0.53129  0.94227  0.67786  1.0000
  H   H1387     1.0  0.55459  0.97674  0.67851  1.0000
  H   H1388     1.0  0.53508  0.87899  0.53680  1.0000
  C   C808      1.0  0.55820  0.94322  0.17498  1.0000
  H   H1389     1.0  0.57267  0.99646  0.15542  1.0000
  H   H1390     1.0  0.56816  0.94112  0.19214  1.0000
  C   C809      1.0  0.53487  0.95579  0.23354  1.0000
  C   C810      1.0  0.51633  0.91197  0.29120  1.0000
  C   C811      1.0  0.51866  0.91460  0.33352  1.0000
  Fe  Fe118     1.0  0.52156  0.92261  0.45454  1.0000
  C   C812      1.0  0.53030  0.90895  0.35281  1.0000
  Fe  Fe119     1.0  0.52954  0.94545  0.52364  1.0000
  S   S236      1.0  0.53408  0.91130  0.40549  1.0000
  C   C813      1.0  0.55793  0.96131  0.17578  1.0000
  C   C814      1.0  0.52758  0.95956  0.27602  1.0000
  S   S237      1.0  0.52699  0.95042  0.45542  1.0000
  H   H1391     1.0  0.52406  0.93764  0.61618  1.0000
  H   H1392     1.0  0.57801  0.96934  0.23268  1.0000
  H   H1393     1.0  0.55628  0.94630  0.30615  1.0000
  H   H1394     1.0  0.52855  0.99389  0.96640  1.0000
  H   H1395     1.0  0.57367  0.94477  0.27368  1.0000
  H   H1396     1.0  0.51238  0.89423  0.61100  1.0000
  C   C815      1.0  0.53492  0.00038  0.57630  1.0000
  H   H1397     1.0  0.53555  0.95933  0.30111  1.0000
  C   C816      1.0  0.54138  0.97352  0.69323  1.0000
  H   H1398     1.0  0.54043  0.97046  0.72776  1.0000
  C   C817      1.0  0.52581  0.91680  0.73522  1.0000
  C   C818      1.0  0.50943  0.86860  0.52295  1.0000
  C   C819      1.0  0.50534  0.96224  0.98540  1.0000
  C   C820      1.0  0.52033  0.93153  0.64940  1.0000
  H   H1399     1.0  0.50617  0.87897  0.53700  1.0000
  Fe  Fe120     1.0  0.51167  0.94467  0.12563  1.0000
  H   H1400     1.0  0.53841  0.91658  0.74092  1.0000
  H   H1401     1.0  0.52541  0.97184  0.27279  1.0000
  H   H1402     1.0  0.53027  0.96407  0.63916  1.0000
  H   H1403     1.0  0.51511  0.94971  0.28675  1.0000
  H   H1404     1.0  0.52097  0.90822  0.71173  1.0000
  C   C821      1.0  0.50665  0.87806  0.67021  1.0000
  H   H1405     1.0  0.53212  0.88795  0.48748  1.0000
  C   C822      1.0  0.56434  0.99276  0.57970  1.0000
  H   H1406     1.0  0.53215  0.99322  0.01986  1.0000
  H   H1407     1.0  0.50452  0.80965  0.93987  1.0000
  H   H1408     1.0  0.55090  0.98895  0.24150  1.0000
  H   H1409     1.0  0.50727  0.91616  0.27640  1.0000
  C   C823      1.0  0.51276  0.84123  0.46296  1.0000
  C   C824      1.0  0.57063  0.99739  0.18967  1.0000
  H   H1410     1.0  0.50907  0.77249  0.90863  1.0000
  H   H1411     1.0  0.52345  0.00323  0.57543  1.0000
  H   H1412     1.0  0.50296  0.99236  0.94498  1.0000
  C   C825      1.0  0.50272  0.99872  0.04980  1.0000
  S   S238      1.0  0.50238  0.94018  0.54753  1.0000
  C   C826      1.0  0.50211  0.97196  0.02212  1.0000
  H   H1413     1.0  0.76320  0.23765  0.27000  1.0000
  H   H1414     1.0  0.76069  0.22174  0.23567  1.0000
  H   H1415     1.0  0.76730  0.21898  0.28708  1.0000
  C   C827      1.0  0.75894  0.22373  0.26924  1.0000
  H   H1416     1.0  0.75397  0.19177  0.30659  1.0000
  Fe  Fe121     1.0  0.90493  0.39988  0.49890  1.0000
  S   S239      1.0  0.89729  0.37259  0.52609  1.0000
  S   S240      1.0  0.92781  0.41664  0.45486  1.0000
  Fe  Fe122     1.0  0.87456  0.40445  0.54746  1.0000
  S   S241      1.0  0.86474  0.37798  0.57941  1.0000
  S   S242      1.0  0.86129  0.42306  0.55670  1.0000
  Fe  Fe123     1.0  0.89160  0.38192  0.58806  1.0000
  S   S243      1.0  0.90250  0.37569  0.64678  1.0000
  Fe  Fe124     1.0  0.87100  0.37121  0.51471  1.0000
  S   S244      1.0  0.84912  0.35095  0.49364  1.0000
  S   S245      1.0  0.90097  0.40917  0.56075  1.0000
  S   S246      1.0  0.87928  0.39777  0.48280  1.0000
  Fe  Fe125     1.0  0.88945  0.40742  0.95859  1.0000
  S   S247      1.0  0.90382  0.39617  0.99946  1.0000
  S   S248      1.0  0.88128  0.42940  0.96977  1.0000
  Fe  Fe126     1.0  0.88753  0.38315  0.89271  1.0000
  S   S249      1.0  0.90174  0.36943  0.92809  1.0000
  S   S250      1.0  0.87330  0.37740  0.83626  1.0000
  Fe  Fe127     1.0  0.88574  0.37137  0.98671  1.0000
  S   S251      1.0  0.87460  0.34943  0.03868  1.0000
  Fe  Fe128     1.0  0.91868  0.39529  0.93832  1.0000
  S   S252      1.0  0.94707  0.40484  0.92357  1.0000
  S   S253      1.0  0.87024  0.38294  0.95069  1.0000
  S   S254      1.0  0.90565  0.40875  0.89838  1.0000
  H   H1417     1.0  0.82878  0.46110  0.14027  1.0000
  S   S255      1.0  0.90360  0.46783  0.68027  1.0000
  C   C828      1.0  0.89171  0.44954  0.47573  1.0000
  H   H1418     1.0  0.98170  0.39794  0.64021  1.0000
  H   H1419     1.0  0.96042  0.44202  0.43570  1.0000
  S   S256      1.0  0.92546  0.47876  0.08330  1.0000
  Fe  Fe129     1.0  0.82049  0.47173  0.39472  1.0000
  S   S257      1.0  0.83890  0.46735  0.34685  1.0000
  S   S258      1.0  0.82443  0.47059  0.46390  1.0000
  S   S259      1.0  0.81465  0.47071  0.27552  1.0000
  Fe  Fe130     1.0  0.81697  0.45022  0.32107  1.0000
  S   S260      1.0  0.82411  0.42851  0.29860  1.0000
  Fe  Fe131     1.0  0.83575  0.48806  0.30408  1.0000
  H   H1420     1.0  0.76290  0.46954  0.40757  1.0000
  H   H1421     1.0  0.82396  0.38219  0.17859  1.0000
  Fe  Fe132     1.0  0.80945  0.32228  0.28986  1.0000
  S   S261      1.0  0.80613  0.34274  0.24666  1.0000
  S   S262      1.0  0.83551  0.33133  0.31011  1.0000
  Fe  Fe133     1.0  0.77383  0.29781  0.28289  1.0000
  S   S263      1.0  0.76848  0.31723  0.23982  1.0000
  H   H1422     1.0  0.92401  0.45362  0.60167  1.0000
  Fe  Fe134     1.0  0.79475  0.32266  0.20698  1.0000
  S   S264      1.0  0.80086  0.33050  0.13644  1.0000
  Fe  Fe135     1.0  0.78068  0.33574  0.28337  1.0000
  S   S265      1.0  0.77032  0.35521  0.30785  1.0000
  S   S266      1.0  0.79966  0.30215  0.24730  1.0000
  S   S267      1.0  0.78438  0.31625  0.32903  1.0000
  C   C829      1.0  0.80883  0.40832  0.30257  1.0000
  C   C830      1.0  0.79169  0.40562  0.31254  1.0000
  C   C831      1.0  0.77989  0.38926  0.31441  1.0000
  C   C832      1.0  0.78523  0.37557  0.30672  1.0000
  C   C833      1.0  0.80244  0.37829  0.29848  1.0000
  C   C834      1.0  0.81417  0.39461  0.29577  1.0000
  H   H1423     1.0  0.78749  0.41616  0.31797  1.0000
  H   H1424     1.0  0.76660  0.38725  0.32121  1.0000
  H   H1425     1.0  0.87723  0.45147  0.20301  1.0000
  H   H1426     1.0  0.81764  0.31281  0.92970  1.0000
  H   H1427     1.0  0.79540  0.34984  0.43564  1.0000
  C   C835      1.0  0.85818  0.33883  0.93526  1.0000
  H   H1428     1.0  0.82993  0.37230  0.39621  1.0000
  H   H1429     1.0  0.97193  0.44643  0.96723  1.0000
  H   H1430     1.0  0.78323  0.35465  0.39752  1.0000
  H   H1431     1.0  0.87856  0.46292  0.26761  1.0000
  C   C836      1.0  0.99411  0.46797  0.96801  1.0000
  H   H1432     1.0  0.81961  0.36214  0.46603  1.0000
  C   C837      1.0  0.97569  0.46030  0.95968  1.0000
  S   S268      1.0  0.99869  0.41908  0.50511  1.0000
  N   N59       1.0  0.96189  0.47994  0.54168  1.0000
  C   C838      1.0  0.81626  0.37323  0.47461  1.0000
  H   H1433     1.0  0.92952  0.44660  0.92715  1.0000
  H   H1434     1.0  0.82987  0.36532  0.16141  1.0000
  C   C839      1.0  0.89419  0.44247  0.00125  1.0000
  C   C840      1.0  0.89756  0.43599  0.03963  1.0000
  C   C841      1.0  0.90738  0.44702  0.06508  1.0000
  C   C842      1.0  0.91404  0.46439  0.05154  1.0000
  C   C843      1.0  0.91142  0.47049  0.01211  1.0000
  C   C844      1.0  0.90119  0.45971  0.98756  1.0000
  H   H1435     1.0  0.89226  0.42259  0.05007  1.0000
  H   H1436     1.0  0.90965  0.44215  0.09521  1.0000
  H   H1437     1.0  0.91764  0.48352  0.99960  1.0000
  H   H1438     1.0  0.89900  0.46477  0.95754  1.0000
  C   C845      1.0  0.85432  0.34479  0.06658  1.0000
  C   C846      1.0  0.84405  0.35415  0.05682  1.0000
  C   C847      1.0  0.82770  0.34968  0.07853  1.0000
  C   C848      1.0  0.82171  0.33622  0.11120  1.0000
  C   C849      1.0  0.83215  0.32713  0.12172  1.0000
  C   C850      1.0  0.84833  0.33131  0.09918  1.0000
  H   H1439     1.0  0.84867  0.36479  0.03250  1.0000
  H   H1440     1.0  0.81968  0.35676  0.07024  1.0000
  H   H1441     1.0  0.82761  0.31665  0.14661  1.0000
  H   H1442     1.0  0.85622  0.32403  0.10697  1.0000
  C   C851      1.0  0.95940  0.41019  0.96477  1.0000
  H   H1443     1.0  0.88965  0.45027  0.51015  1.0000
  C   C852      1.0  0.95199  0.40751  0.00673  1.0000
  H   H1444     1.0  0.98279  0.41961  0.92287  1.0000
  H   H1445     1.0  0.93855  0.40162  0.01452  1.0000
  C   C853      1.0  0.87089  0.43485  0.59517  1.0000
  C   C854      1.0  0.87930  0.42797  0.62279  1.0000
  C   C855      1.0  0.88917  0.43805  0.64943  1.0000
  C   C856      1.0  0.89048  0.45501  0.64880  1.0000
  C   C857      1.0  0.88156  0.46175  0.62233  1.0000
  C   C858      1.0  0.87157  0.45160  0.59588  1.0000
  H   H1446     1.0  0.87825  0.41484  0.62356  1.0000
  H   H1447     1.0  0.89602  0.43275  0.66976  1.0000
  H   H1448     1.0  0.88234  0.47479  0.62212  1.0000
  H   H1449     1.0  0.86469  0.45685  0.57555  1.0000
  C   C859      1.0  0.89473  0.37749  0.69889  1.0000
  C   C860      1.0  0.90405  0.37590  0.73183  1.0000
  C   C861      1.0  0.89802  0.37660  0.77387  1.0000
  C   C862      1.0  0.88233  0.37838  0.78352  1.0000
  C   C863      1.0  0.87307  0.38011  0.75061  1.0000
  C   C864      1.0  0.87933  0.37991  0.70842  1.0000
  H   H1450     1.0  0.91580  0.37368  0.72501  1.0000
  H   H1451     1.0  0.90519  0.37508  0.79893  1.0000
  H   H1452     1.0  0.86089  0.38144  0.75773  1.0000
  H   H1453     1.0  0.87200  0.38111  0.68343  1.0000
  C   C865      1.0  0.84551  0.34672  0.44164  1.0000
  C   C866      1.0  0.82939  0.33652  0.43499  1.0000
  C   C867      1.0  0.82599  0.33235  0.39454  1.0000
  C   C868      1.0  0.83884  0.33788  0.36047  1.0000
  C   C869      1.0  0.85493  0.34824  0.36694  1.0000
  C   C870      1.0  0.85821  0.35284  0.40725  1.0000
  H   H1454     1.0  0.81953  0.33158  0.46147  1.0000
  H   H1455     1.0  0.81361  0.32424  0.39009  1.0000
  H   H1456     1.0  0.86500  0.35243  0.34089  1.0000
  H   H1457     1.0  0.87070  0.36058  0.41204  1.0000
  C   C871      1.0  0.94731  0.41742  0.47007  1.0000
  C   C872      1.0  0.88163  0.47131  0.37572  1.0000
  C   C873      1.0  0.79588  0.35880  0.40796  1.0000
  H   H1458     1.0  0.82853  0.40778  0.46271  1.0000
  H   H1459     1.0  0.98744  0.49608  0.20036  1.0000
  H   H1460     1.0  0.98617  0.46594  0.56311  1.0000
  H   H1461     1.0  0.97608  0.46236  0.92486  1.0000
  H   H1462     1.0  0.80647  0.41173  0.39515  1.0000
  C   C874      1.0  0.97954  0.41970  0.02941  1.0000
  H   H1463     1.0  0.85386  0.31821  0.87350  1.0000
  C   C875      1.0  0.98298  0.40276  0.34809  1.0000
  H   H1464     1.0  0.94256  0.45643  0.53357  1.0000
  C   C876      1.0  0.81822  0.41509  0.40976  1.0000
  C   C877      1.0  0.89870  0.48408  0.50078  1.0000
  H   H1465     1.0  0.80646  0.40086  0.47018  1.0000
  C   C878      1.0  0.85265  0.44533  0.15219  1.0000
  C   C879      1.0  0.86798  0.45933  0.46880  1.0000
  C   C880      1.0  0.98715  0.50234  0.13189  1.0000
  H   H1466     1.0  0.99674  0.48520  0.16651  1.0000
  H   H1467     1.0  0.94466  0.39637  0.73179  1.0000
  H   H1468     1.0  0.86119  0.42937  0.11191  1.0000
  H   H1469     1.0  0.82750  0.37084  0.53167  1.0000
  H   H1470     1.0  0.78547  0.49535  0.39439  1.0000
  H   H1471     1.0  0.84198  0.48297  0.14185  1.0000
  N   N60       1.0  0.85920  0.37243  0.20496  1.0000
  C   C881      1.0  0.86544  0.37298  0.24740  1.0000
  C   C882      1.0  0.85254  0.35415  0.19748  1.0000
  C   C883      1.0  0.84494  0.37941  0.20780  1.0000
  C   C884      1.0  0.87348  0.38303  0.17172  1.0000
  C   C885      1.0  0.87106  0.39045  0.26354  1.0000
  C   C886      1.0  0.86481  0.34427  0.20153  1.0000
  C   C887      1.0  0.83502  0.37830  0.16994  1.0000
  C   C888      1.0  0.87298  0.37821  0.12638  1.0000
  H   H1472     1.0  0.85558  0.36422  0.27201  1.0000
  H   H1473     1.0  0.87642  0.36854  0.24717  1.0000
  H   H1474     1.0  0.84848  0.35283  0.16592  1.0000
  H   H1475     1.0  0.84104  0.34716  0.21999  1.0000
  H   H1476     1.0  0.83565  0.37297  0.23615  1.0000
  H   H1477     1.0  0.84951  0.39302  0.21218  1.0000
  H   H1478     1.0  0.87453  0.39657  0.16987  1.0000
  H   H1479     1.0  0.88580  0.38277  0.18020  1.0000
  H   H1480     1.0  0.86012  0.39426  0.27393  1.0000
  H   H1481     1.0  0.87747  0.38964  0.29174  1.0000
  H   H1482     1.0  0.88007  0.40034  0.23974  1.0000
  H   H1483     1.0  0.86014  0.33238  0.18698  1.0000
  H   H1484     1.0  0.87767  0.35150  0.18566  1.0000
  H   H1485     1.0  0.86533  0.34053  0.23518  1.0000
  C   C889      1.0  0.84194  0.48490  0.48282  1.0000
  C   C890      1.0  0.84505  0.48167  0.52433  1.0000
  H   H1486     1.0  0.79263  0.48050  0.48933  1.0000
  H   H1487     1.0  0.87547  0.36621  0.12371  1.0000
  H   H1488     1.0  0.88311  0.38808  0.10472  1.0000
  H   H1489     1.0  0.86103  0.37717  0.11429  1.0000
  N   N61       1.0  0.88280  0.43512  0.81986  1.0000
  C   C891      1.0  0.89850  0.44699  0.83352  1.0000
  C   C892      1.0  0.88775  0.42188  0.79839  1.0000
  C   C893      1.0  0.87064  0.42674  0.85917  1.0000
  C   C894      1.0  0.87560  0.44529  0.79130  1.0000
  C   C895      1.0  0.89605  0.46060  0.86026  1.0000
  C   C896      1.0  0.90197  0.42862  0.76105  1.0000
  C   C897      1.0  0.85394  0.41328  0.85340  1.0000
  C   C898      1.0  0.86420  0.43568  0.76032  1.0000
  H   H1490     1.0  0.90491  0.43980  0.85195  1.0000
  H   H1491     1.0  0.90778  0.45404  0.80570  1.0000
  H   H1492     1.0  0.87703  0.41278  0.78654  1.0000
  H   H1493     1.0  0.89185  0.41396  0.82132  1.0000
  H   H1494     1.0  0.87674  0.42064  0.88155  1.0000
  H   H1495     1.0  0.86692  0.43617  0.87621  1.0000
  H   H1496     1.0  0.86840  0.45174  0.81019  1.0000
  H   H1497     1.0  0.88600  0.45557  0.77112  1.0000
  H   H1498     1.0  0.88924  0.46812  0.84501  1.0000
  H   H1499     1.0  0.88958  0.45505  0.89240  1.0000
  H   H1500     1.0  0.90858  0.46948  0.86446  1.0000
  H   H1501     1.0  0.90211  0.41815  0.74231  1.0000
  H   H1502     1.0  0.90028  0.43876  0.73991  1.0000
  H   H1503     1.0  0.91442  0.43338  0.77226  1.0000
  H   H1504     1.0  0.84708  0.40730  0.88506  1.0000
  H   H1505     1.0  0.85569  0.40294  0.83650  1.0000
  H   H1506     1.0  0.84572  0.41907  0.83795  1.0000
  H   H1507     1.0  0.85467  0.44174  0.75498  1.0000
  H   H1508     1.0  0.85726  0.42217  0.77063  1.0000
  H   H1509     1.0  0.87157  0.43710  0.72893  1.0000
  N   N62       1.0  0.85874  0.46035  0.17620  1.0000
  C   C899      1.0  0.86589  0.45466  0.21356  1.0000
  C   C900      1.0  0.87223  0.47527  0.15035  1.0000
  H   H1510     1.0  0.84255  0.38723  0.14235  1.0000
  C   C901      1.0  0.87033  0.47892  0.10344  1.0000
  H   H1511     1.0  0.85663  0.44290  0.23172  1.0000
  C   C902      1.0  0.76693  0.49066  0.49620  1.0000
  H   H1512     1.0  0.84800  0.47586  0.21227  1.0000
  H   H1513     1.0  0.87337  0.48700  0.16507  1.0000
  H   H1514     1.0  0.88475  0.47369  0.15029  1.0000
  H   H1515     1.0  0.97809  0.40375  0.31748  1.0000
  H   H1516     1.0  0.94647  0.48373  0.49479  1.0000
  H   H1517     1.0  0.94590  0.43892  0.94036  1.0000
  H   H1518     1.0  0.87411  0.49280  0.09502  1.0000
  H   H1519     1.0  0.88405  0.43640  0.47180  1.0000
  C   C903      1.0  0.88748  0.45961  0.40537  1.0000
  H   H1520     1.0  0.90643  0.47753  0.51567  1.0000
  H   H1521     1.0  0.93762  0.41248  0.70773  1.0000
  H   H1522     1.0  0.90081  0.46190  0.39281  1.0000
  H   H1523     1.0  0.88097  0.44622  0.40068  1.0000
  H   H1524     1.0  0.97645  0.45115  0.05066  1.0000
  H   H1525     1.0  0.87181  0.47560  0.39132  1.0000
  Fe  Fe136     1.0  0.92670  0.50422  0.05353  1.0000
  H   H1526     1.0  0.97332  0.41028  0.69907  1.0000
  H   H1527     1.0  0.85310  0.44503  0.42315  1.0000
  N   N63       1.0  0.96110  0.40783  0.64254  1.0000
  C   C904      1.0  0.97769  0.40738  0.62181  1.0000
  C   C905      1.0  0.94899  0.38990  0.64962  1.0000
  C   C906      1.0  0.96392  0.41468  0.68427  1.0000
  C   C907      1.0  0.95542  0.41924  0.61367  1.0000
  C   C908      1.0  0.94485  0.38123  0.60974  1.0000
  C   C909      1.0  0.93792  0.42045  0.62635  1.0000
  H   H1528     1.0  0.96791  0.46930  0.48569  1.0000
  H   H1529     1.0  0.97658  0.40324  0.58994  1.0000
  H   H1530     1.0  0.93674  0.38895  0.66694  1.0000
  H   H1531     1.0  0.95385  0.38181  0.67022  1.0000
  H   H1532     1.0  0.86135  0.48987  0.57192  1.0000
  H   H1533     1.0  0.96428  0.43243  0.61078  1.0000
  H   H1534     1.0  0.95612  0.41610  0.58073  1.0000
  H   H1535     1.0  0.98238  0.49351  0.92298  1.0000
  H   H1536     1.0  0.83946  0.31799  0.81477  1.0000
  H   H1537     1.0  0.93500  0.36863  0.61917  1.0000
  H   H1538     1.0  0.93957  0.38835  0.58790  1.0000
  H   H1539     1.0  0.95582  0.37889  0.59333  1.0000
  H   H1540     1.0  0.95204  0.41734  0.74536  1.0000
  H   H1541     1.0  0.93857  0.43031  0.64764  1.0000
  H   H1542     1.0  0.92839  0.40842  0.64096  1.0000
  H   H1543     1.0  0.93294  0.42378  0.59750  1.0000
  H   H1544     1.0  0.99556  0.46741  0.00176  1.0000
  C   C910      1.0  0.94868  0.46464  0.95619  1.0000
  C   C911      1.0  0.95456  0.49108  0.51671  1.0000
  C   C912      1.0  0.95544  0.45616  0.02451  1.0000
  C   C913      1.0  0.98144  0.46232  0.53317  1.0000
  H   H1545     1.0  0.95351  0.47115  0.92362  1.0000
  C   C914      1.0  0.96990  0.40468  0.38240  1.0000
  C   C915      1.0  0.96722  0.45749  0.05839  1.0000
  H   H1546     1.0  0.95963  0.45050  0.08851  1.0000
  C   C916      1.0  0.85913  0.49250  0.53993  1.0000
  H   H1547     1.0  0.84223  0.44226  0.47508  1.0000
  H   H1548     1.0  0.78940  0.37761  0.44055  1.0000
  H   H1549     1.0  0.91914  0.46381  0.46578  1.0000
  H   H1550     1.0  0.94460  0.45951  0.03835  1.0000
  H   H1551     1.0  0.95036  0.44246  0.02108  1.0000
  H   H1552     1.0  0.97991  0.43520  0.30819  1.0000
  H   H1553     1.0  0.82298  0.38995  0.52428  1.0000
  C   C917      1.0  0.80014  0.37721  0.41820  1.0000
  H   H1554     1.0  0.93997  0.47087  0.96942  1.0000
  S   S269      1.0  0.81865  0.49381  0.35428  1.0000
  H   H1555     1.0  0.96610  0.39368  0.52318  1.0000
  H   H1556     1.0  0.78613  0.45078  0.49167  1.0000
  C   C918      1.0  0.77617  0.45563  0.48227  1.0000
  S   S270      1.0  0.99163  0.42455  0.07117  1.0000
  H   H1557     1.0  0.86968  0.43082  0.16059  1.0000
  H   H1558     1.0  0.92494  0.47125  0.56615  1.0000
  H   H1559     1.0  0.82312  0.34033  0.89245  1.0000
  H   H1560     1.0  0.98121  0.48743  0.00534  1.0000
  C   C919      1.0  0.96159  0.43159  0.45550  1.0000
  C   C920      1.0  0.84396  0.46515  0.19325  1.0000
  H   H1561     1.0  0.93801  0.39278  0.50590  1.0000
  C   C921      1.0  0.97695  0.41760  0.95524  1.0000
  S   S271      1.0  0.79824  0.45255  0.37307  1.0000
  C   C922      1.0  0.94853  0.40988  0.71869  1.0000
  C   C923      1.0  0.94893  0.40388  0.49519  1.0000
  Fe  Fe137     1.0  0.79732  0.47448  0.32926  1.0000
  H   H1562     1.0  0.80676  0.36782  0.29471  1.0000
  H   H1563     1.0  0.83475  0.45443  0.21507  1.0000
  C   C924      1.0  0.75512  0.47738  0.53146  1.0000
  H   H1564     1.0  0.97577  0.49128  0.12962  1.0000
  H   H1565     1.0  0.82911  0.39102  0.37081  1.0000
  H   H1566     1.0  0.92976  0.43975  0.98076  1.0000
  H   H1567     1.0  0.87921  0.47486  0.08275  1.0000
  H   H1568     1.0  0.99427  0.42877  0.27405  1.0000
  H   H1569     1.0  0.98485  0.48598  0.49775  1.0000
  C   C925      1.0  0.96205  0.41205  0.03892  1.0000
  C   C926      1.0  0.96999  0.48493  0.98873  1.0000
  N   N64       1.0  0.00078  0.41479  0.34606  1.0000
  H   H1570     1.0  0.95625  0.40959  0.07139  1.0000
  N   N65       1.0  0.81654  0.38464  0.43550  1.0000
  C   C927      1.0  0.86623  0.43819  0.13507  1.0000
  H   H1571     1.0  0.89097  0.48913  0.44118  1.0000
  C   C928      1.0  0.96481  0.40443  0.50510  1.0000
  C   C929      1.0  0.98700  0.42256  0.98742  1.0000
  H   H1572     1.0  0.82340  0.47336  0.17795  1.0000
  C   C930      1.0  0.93800  0.44635  0.95114  1.0000
  C   C931      1.0  0.97404  0.47495  0.51265  1.0000
  H   H1573     1.0  0.85699  0.39906  0.38035  1.0000
  C   C932      1.0  0.81746  0.40191  0.44675  1.0000
  H   H1574     1.0  0.85756  0.47350  0.09498  1.0000
  H   H1575     1.0  0.84255  0.43480  0.17250  1.0000
  N   N66       1.0  0.88594  0.46213  0.45123  1.0000
  S   S272      1.0  0.77438  0.48240  0.31925  1.0000
  C   C933      1.0  0.83418  0.47086  0.16076  1.0000
  H   H1576     1.0  0.87770  0.44819  0.11861  1.0000
  C   C934      1.0  0.84867  0.39400  0.41077  1.0000
  H   H1577     1.0  0.85323  0.38479  0.42797  1.0000
  H   H1578     1.0  0.85025  0.40503  0.42821  1.0000
  H   H1579     1.0  0.84655  0.44806  0.12500  1.0000
  H   H1580     1.0  0.94626  0.49565  0.53797  1.0000
  H   H1581     1.0  0.85723  0.43189  0.46538  1.0000
  C   C935      1.0  0.93253  0.46616  0.58603  1.0000
  H   H1582     1.0  0.82917  0.41721  0.38551  1.0000
  H   H1583     1.0  0.91321  0.44225  0.48744  1.0000
  C   C936      1.0  0.83056  0.38530  0.40199  1.0000
  C   C937      1.0  0.97905  0.41872  0.49125  1.0000
  Fe  Fe138     1.0  0.90844  0.49464  0.65446  1.0000
  H   H1584     1.0  0.86642  0.45821  0.50373  1.0000
  C   C938      1.0  0.85456  0.44364  0.45702  1.0000
  C   C939      1.0  0.83414  0.34483  0.90969  1.0000
  C   C940      1.0  0.82767  0.38107  0.50741  1.0000
  H   H1585     1.0  0.95209  0.45556  0.58004  1.0000
  H   H1586     1.0  0.82743  0.39660  0.28872  1.0000
  H   H1587     1.0  0.86430  0.47038  0.45930  1.0000
  C   C941      1.0  0.99257  0.42426  0.61540  1.0000
  H   H1588     1.0  0.87959  0.48015  0.23005  1.0000
  H   H1589     1.0  0.86033  0.46863  0.26483  1.0000
  H   H1590     1.0  0.89238  0.48273  0.36178  1.0000
  C   C942      1.0  0.97739  0.43228  0.46626  1.0000
  H   H1591     1.0  0.96940  0.42873  0.67961  1.0000
  H   H1592     1.0  0.88650  0.48097  0.52098  1.0000
  H   H1593     1.0  0.98825  0.44325  0.45490  1.0000
  H   H1594     1.0  0.90925  0.48350  0.43725  1.0000
  H   H1595     1.0  0.79988  0.38473  0.38841  1.0000
  H   H1596     1.0  0.96890  0.41745  0.37923  1.0000
  H   H1597     1.0  0.82309  0.31210  0.85851  1.0000
  H   H1598     1.0  0.80471  0.35767  0.38145  1.0000
  H   H1599     1.0  0.83065  0.33333  0.83023  1.0000
  H   H1600     1.0  0.86653  0.35082  0.91640  1.0000
  H   H1601     1.0  0.80334  0.36790  0.49238  1.0000
  H   H1602     1.0  0.83697  0.35523  0.97062  1.0000
  C   C943      1.0  0.94761  0.46391  0.55935  1.0000
  H   H1603     1.0  0.83659  0.47067  0.54450  1.0000
  H   H1604     1.0  0.81638  0.33989  0.96794  1.0000
  H   H1605     1.0  0.83197  0.32634  0.00142  1.0000
  S   S273      1.0  0.75335  0.27278  0.31223  1.0000
  H   H1606     1.0  0.87610  0.32707  0.90974  1.0000
  H   H1607     1.0  0.96975  0.47872  0.60347  1.0000
  H   H1608     1.0  0.91246  0.44695  0.43288  1.0000
  C   C944      1.0  0.82847  0.31421  0.98807  1.0000
  H   H1609     1.0  0.83560  0.30650  0.00111  1.0000
  H   H1610     1.0  0.85552  0.34249  0.96675  1.0000
  H   H1611     1.0  0.87820  0.33239  0.96182  1.0000
  H   H1612     1.0  0.82255  0.36074  0.94133  1.0000
  H   H1613     1.0  0.81509  0.30732  0.00098  1.0000
  C   C945      1.0  0.86883  0.32727  0.94025  1.0000
  H   H1614     1.0  0.84299  0.35646  0.89022  1.0000
  H   H1615     1.0  0.84092  0.38747  0.49376  1.0000
  H   H1616     1.0  0.86122  0.31422  0.95398  1.0000
  C   C946      1.0  0.82725  0.35028  0.95014  1.0000
  H   H1617     1.0  0.93638  0.47428  0.61125  1.0000
  C   C947      1.0  0.78427  0.47461  0.46612  1.0000
  H   H1618     1.0  0.85811  0.33971  0.85413  1.0000
  H   H1619     1.0  0.99063  0.43375  0.59243  1.0000
  C   C948      1.0  0.83432  0.32258  0.84268  1.0000
  C   C949      1.0  0.83040  0.31543  0.93926  1.0000
  C   C950      1.0  0.91023  0.45100  0.46428  1.0000
  H   H1620     1.0  0.97355  0.47061  0.06469  1.0000
  H   H1621     1.0  0.81970  0.42740  0.42180  1.0000
  C   C951      1.0  0.87136  0.46750  0.24539  1.0000
  H   H1622     1.0  0.83434  0.30460  0.93106  1.0000
  H   H1623     1.0  0.96070  0.48849  0.00959  1.0000
  C   C952      1.0  0.96970  0.48842  0.57790  1.0000
  C   C953      1.0  0.84809  0.32827  0.87155  1.0000
  N   N67       1.0  0.96287  0.46657  0.98232  1.0000
  N   N68       1.0  0.84249  0.33168  0.91508  1.0000
  C   C954      1.0  0.89650  0.48002  0.45539  1.0000
  N   N69       1.0  0.77261  0.48429  0.45698  1.0000
  C   C955      1.0  0.97520  0.49756  0.94817  1.0000
  H   H1624     1.0  0.87596  0.46439  0.34994  1.0000
  H   H1625     1.0  0.97249  0.40144  0.41452  1.0000
  H   H1626     1.0  0.75206  0.44716  0.34569  1.0000
  H   H1627     1.0  0.95730  0.39566  0.37930  1.0000
  H   H1628     1.0  0.99631  0.50320  0.10382  1.0000
  H   H1629     1.0  0.88241  0.49806  0.95028  1.0000
  H   H1630     1.0  0.79290  0.47517  0.43713  1.0000
  H   H1631     1.0  0.91138  0.49737  0.82765  1.0000
  H   H1632     1.0  0.96195  0.49542  0.59242  1.0000
  H   H1633     1.0  0.97215  0.44933  0.53841  1.0000
  C   C956      1.0  0.99524  0.49764  0.16964  1.0000
  H   H1634     1.0  0.99228  0.46199  0.51135  1.0000
  H   H1635     1.0  0.98268  0.38942  0.35328  1.0000
  C   C957      1.0  0.99335  0.43680  0.29917  1.0000
  H   H1636     1.0  0.99699  0.49446  0.57816  1.0000
  H   H1637     1.0  0.90533  0.49786  0.50000  1.0000
  C   C958      1.0  0.78236  0.49945  0.42531  1.0000
  C   C959      1.0  0.98809  0.50069  0.56829  1.0000
  C   C960      1.0  0.85312  0.49906  0.45699  1.0000
  H   H1638     1.0  0.96402  0.49937  0.93619  1.0000
  H   H1639     1.0  0.99538  0.42957  0.64532  1.0000
  H   H1640     1.0  0.86834  0.49812  0.99442  1.0000
  H   H1641     1.0  0.77796  0.49767  0.51128  1.0000
  H   H1642     1.0  0.99501  0.43645  0.36578  1.0000
  H   H1643     1.0  1.00000  0.48125  0.95337  1.0000
  H   H1644     1.0  0.86259  0.49928  0.94186  1.0000
  H   H1645     1.0  0.85098  0.50168  0.42492  1.0000
  H   H1646     1.0  0.77067  0.44831  0.45690  1.0000
  H   H1647     1.0  0.76243  0.47249  0.55278  1.0000
  H   H1648     1.0  0.76657  0.45303  0.51008  1.0000
  C   C961      1.0  0.75808  0.47360  0.43689  1.0000
  C   C962      1.0  0.87285  0.50372  0.96110  1.0000
  S   S274      1.0  0.91787  0.50321  0.58619  1.0000
  H   H1649     1.0  0.00051  0.42816  0.97990  1.0000
  H   H1650     1.0  0.00015  0.45000  0.28466  1.0000
  H   H1651     1.0  0.97569  0.50435  0.46588  1.0000
  H   H1652     1.0  0.76104  0.50037  0.48871  1.0000
  H   H1653     1.0  0.99977  0.41679  0.41301  1.0000
  C   C963      1.0  0.75210  0.47198  0.32441  1.0000
  H   H1654     1.0  0.00154  0.46071  0.95344  1.0000
  C   C964      1.0  0.00134  0.43279  0.33801  1.0000
  H   H1655     1.0  0.80809  0.50453  0.44269  1.0000
  H   H1656     1.0  0.95693  0.53029  0.20614  1.0000
  Fe  Fe139     1.0  0.91129  0.52937  0.67543  1.0000
  S   S275      1.0  0.92080  0.54121  0.60808  1.0000
  H   H1657     1.0  0.88593  0.54352  0.88350  1.0000
  Fe  Fe140     1.0  0.90069  0.51845  0.59041  1.0000
  Fe  Fe141     1.0  0.93704  0.52499  0.60826  1.0000
  S   S276      1.0  0.96423  0.53061  0.58159  1.0000
  S   S277      1.0  0.92907  0.51485  0.67643  1.0000
  H   H1658     1.0  0.98121  0.53896  0.67293  1.0000
  H   H1659     1.0  0.89571  0.56862  0.90964  1.0000
  Fe  Fe142     1.0  0.94734  0.54067  0.02231  1.0000
  S   S278      1.0  0.92635  0.54545  0.99119  1.0000
  S   S279      1.0  0.97454  0.55770  0.01022  1.0000
  Fe  Fe143     1.0  0.91005  0.53093  0.05134  1.0000
  S   S280      1.0  0.88568  0.53362  0.07916  1.0000
  Fe  Fe144     1.0  0.92217  0.52012  0.96837  1.0000
  H   H1660     1.0  0.87548  0.52102  0.45263  1.0000
  S   S281      1.0  0.93140  0.52800  0.08406  1.0000
  S   S282      1.0  0.94422  0.51642  0.99482  1.0000
  C   C965      1.0  0.89596  0.56223  0.94104  1.0000
  H   H1661     1.0  0.98526  0.56855  0.66461  1.0000
  H   H1662     1.0  0.89345  0.52670  0.93679  1.0000
  H   H1663     1.0  0.99528  0.61711  0.30050  1.0000
  H   H1664     1.0  0.98295  0.59247  0.57999  1.0000
  C   C966      1.0  0.98818  0.57597  0.11943  1.0000
  C   C967      1.0  0.97838  0.56840  0.08889  1.0000
  C   C968      1.0  0.98620  0.56635  0.05030  1.0000
  C   C969      1.0  0.91049  0.51792  0.78503  1.0000
  H   H1665     1.0  0.97548  0.51508  0.20017  1.0000
  H   H1666     1.0  0.98210  0.57785  0.14889  1.0000
  H   H1667     1.0  0.96482  0.56456  0.09474  1.0000
  H   H1668     1.0  0.99227  0.50658  0.53540  1.0000
  C   C970      1.0  0.85294  0.52644  0.96350  1.0000
  C   C971      1.0  0.91157  0.53483  0.77982  1.0000
  C   C972      1.0  0.91432  0.54423  0.81424  1.0000
  C   C973      1.0  0.91624  0.53676  0.85343  1.0000
  C   C974      1.0  0.91506  0.51977  0.85848  1.0000
  C   C975      1.0  0.88140  0.52314  0.95821  1.0000
  S   S283      1.0  0.91016  0.54454  0.73020  1.0000
  H   H1669     1.0  0.91524  0.55735  0.81034  1.0000
  H   H1670     1.0  0.91867  0.54411  0.87955  1.0000
  H   H1671     1.0  0.97004  0.53095  0.09266  1.0000
  C   C976      1.0  0.89030  0.52386  0.15961  1.0000
  H   H1672     1.0  0.90103  0.57233  0.96120  1.0000
  C   C977      1.0  0.97920  0.55103  0.57906  1.0000
  C   C978      1.0  0.97442  0.56535  0.58002  1.0000
  C   C979      1.0  0.98785  0.59934  0.69158  1.0000
  H   H1673     1.0  0.96134  0.54112  0.66773  1.0000
  H   H1674     1.0  0.98959  0.51122  0.58782  1.0000
  S   S284      1.0  0.88971  0.50819  0.65805  1.0000
  H   H1675     1.0  0.96129  0.56406  0.58108  1.0000
  H   H1676     1.0  0.87866  0.54927  0.99575  1.0000
  H   H1677     1.0  0.97569  0.55306  0.77930  1.0000
  H   H1678     1.0  0.87492  0.51366  0.87660  1.0000
  H   H1679     1.0  0.99355  0.61142  0.70453  1.0000
  H   H1680     1.0  0.97671  0.52271  0.02567  1.0000
  C   C980      1.0  0.85596  0.51274  0.19083  1.0000
  C   C981      1.0  0.87813  0.55089  0.96119  1.0000
  H   H1681     1.0  0.84661  0.51414  0.95253  1.0000
  H   H1682     1.0  0.90479  0.55514  0.93802  1.0000
  H   H1683     1.0  0.90357  0.52832  0.14807  1.0000
  H   H1684     1.0  0.85255  0.52031  0.12742  1.0000
  H   H1685     1.0  0.98888  0.56281  0.71548  1.0000
  N   N70       1.0  0.96623  0.56946  0.71365  1.0000
  C   C982      1.0  0.95555  0.57157  0.68023  1.0000
  C   C983      1.0  0.97862  0.56163  0.69574  1.0000
  C   C984      1.0  0.97586  0.58621  0.72708  1.0000
  C   C985      1.0  0.95473  0.55841  0.75127  1.0000
  C   C986      1.0  0.94449  0.58253  0.68925  1.0000
  H   H1686     1.0  0.96717  0.59201  0.74269  1.0000
  H   H1687     1.0  0.97359  0.54379  0.16766  1.0000
  C   C987      1.0  0.96327  0.55415  0.78879  1.0000
  H   H1688     1.0  0.96342  0.57720  0.64959  1.0000
  H   H1689     1.0  0.94693  0.55906  0.67433  1.0000
  C   C988      1.0  0.97025  0.51656  0.17055  1.0000
  C   C989      1.0  0.96347  0.53134  0.17380  1.0000
  H   H1690     1.0  0.99839  0.59531  0.67895  1.0000
  H   H1691     1.0  0.98133  0.60210  0.66519  1.0000
  H   H1692     1.0  0.94592  0.56452  0.76446  1.0000
  H   H1693     1.0  0.94618  0.54642  0.74232  1.0000
  H   H1694     1.0  0.93629  0.58176  0.66409  1.0000
  H   H1695     1.0  0.93603  0.57809  0.71943  1.0000
  H   H1696     1.0  0.95211  0.59603  0.68856  1.0000
  C   C990      1.0  0.87264  0.53703  0.89775  1.0000
  H   H1697     1.0  0.80521  0.52131  0.41073  1.0000
  H   H1698     1.0  0.96602  0.53454  0.71883  1.0000
  H   H1699     1.0  0.00017  0.54193  0.57547  1.0000
  C   C991      1.0  0.98424  0.52106  0.05084  1.0000
  C   C992      1.0  0.00111  0.61452  0.32839  1.0000
  H   H1700     1.0  0.98327  0.51008  0.95529  1.0000
  H   H1701     1.0  0.86970  0.55843  0.95693  1.0000
  H   H1702     1.0  0.95535  0.54161  0.80576  1.0000
  C   C993      1.0  0.97115  0.54296  0.68877  1.0000
  C   C994      1.0  0.98668  0.58140  0.57932  1.0000
  H   H1703     1.0  0.79697  0.51754  0.46519  1.0000
  C   C995      1.0  0.86156  0.51940  0.14818  1.0000
  S   S285      1.0  0.88790  0.52123  0.53222  1.0000
  C   C996      1.0  0.87876  0.52500  0.13248  1.0000
  C   C997      1.0  0.97388  0.51956  0.09406  1.0000
  H   H1704     1.0  0.98376  0.58447  0.75149  1.0000
  C   C998      1.0  0.88477  0.51765  0.20232  1.0000
  H   H1705     1.0  0.95404  0.53091  0.15207  1.0000
  H   H1706     1.0  0.86570  0.54563  0.88854  1.0000
  N   N71       1.0  0.98270  0.51824  0.13213  1.0000
  H   H1707     1.0  0.90821  0.51051  0.75896  1.0000
  S   S286      1.0  0.91673  0.50935  0.90685  1.0000
  H   H1708     1.0  0.00170  0.54932  0.18086  1.0000
  H   H1709     1.0  0.99578  0.53232  0.04571  1.0000
  H   H1710     1.0  0.84590  0.53464  0.95229  1.0000
  H   H1711     1.0  0.96472  0.56377  0.81109  1.0000
  N   N72       1.0  0.87124  0.53393  0.94512  1.0000
  C   C999      1.0  0.91220  0.51045  0.82414  1.0000
  H   H1712     1.0  0.86766  0.52568  0.84020  1.0000
  S   S287      1.0  0.90430  0.50622  0.02586  1.0000
  C   C1000     1.0  0.99834  0.53363  0.12884  1.0000
  H   H1713     1.0  0.85155  0.53597  0.02529  1.0000
  C   C1001     1.0  0.99630  0.55288  0.57660  1.0000
  H   H1714     1.0  0.97406  0.51631  0.50985  1.0000
  H   H1715     1.0  0.88503  0.52565  0.99000  1.0000
  H   H1716     1.0  0.99590  0.54485  0.11439  1.0000
  C   C1002     1.0  0.86663  0.52139  0.87432  1.0000
  H   H1717     1.0  0.77473  0.50762  0.41896  1.0000
  H   H1718     1.0  0.84272  0.50860  0.20283  1.0000
  C   C1003     1.0  0.79904  0.51118  0.43735  1.0000
  C   C1004     1.0  0.87016  0.50682  0.51427  1.0000
  H   H1719     1.0  0.85721  0.51715  0.02660  1.0000
  C   C1005     1.0  0.84945  0.52379  0.01214  1.0000
  H   H1720     1.0  0.85331  0.51362  0.88472  1.0000
  C   C1006     1.0  0.86705  0.50998  0.47275  1.0000
  H   H1721     1.0  0.96205  0.50855  0.09577  1.0000
  H   H1722     1.0  0.95972  0.51358  0.47273  1.0000
  C   C1007     1.0  0.86762  0.51206  0.21814  1.0000
  H   H1723     1.0  0.99067  0.60850  0.35451  1.0000
  H   H1724     1.0  0.89386  0.51728  0.22332  1.0000
  C   C1008     1.0  0.96700  0.50709  0.49001  1.0000
  H   H1725     1.0  0.98736  0.50959  0.04615  1.0000
  H   H1726     1.0  0.83605  0.51602  0.02226  1.0000
  S   S288      1.0  0.86161  0.50471  0.27234  1.0000
  H   H1727     1.0  0.00145  0.59071  0.31192  1.0000
  H   H1728     1.0  0.95917  0.50481  0.17183  1.0000
