data_image0
_chemical_formula_structural       FeSH2SHC2FeS2FeS2FeSFeS3FeS2FeCHFeSFeCS2CFeCH3CH2CH3C6H4C4SH5C6H4C6H4C3H2SH2CHNH5CSHC2NC2HC3HFeH2CH7SH2FeC3HC3HCSH3NHNCH5CH3SC2H4CH5SHC2HCHC2H8NCH6SNH2CH2CSH3C3HC2H3FeCH5CHCH4CHNC2HCH2C2H3CH3CH2CHC2H3CH2CH4C2HC2H3CSH12SH3CH3CH3CSHC2H2CH5C2HSFeHCNCHCNHSHFeS2FeS2FeSFeCS2FeS2HCFeCFeS3CHSFeH3C3HC6H4C8H4C6H4C2SCH9SHCH6CH2CH2SC2H3C2HCS2H2CH4SHCHCHFeC2H2C2H2SCH3CH3C2H2CH6CHNHCHCHC2HCH6NC2HSHCH2C3H4FeH2CHSHCH5C3NCH14CH3SH3CH2CH3C3SH2CH5CH5C2N2CHCH5CH3CHFeS2FeS2FeSFeS3FeS2FeS2FeSFeS3CH4FeS2FeSFeSHS2H4C2H2CH2CH2CHCH4C2H2C2SC2H3C6H2CHC6H4CH2CHCH2C6H4C4H2C4H5CHC3H2C2HCHSH2CHCNHC3HC2H2NH2CH3CH3CH6CFeC4HCHCHC2H4CH8SH6CHNCHCH3CH3CH6CH3C2HNHNC8H16CSCHNCH4NCH18C2H4CH3C2HCHC2H4CHCH2FeSHFeS2FeSFeS3H2FeS2FeS2FeSFeS3HFeSHFeS2FeSHS2H7CHCHC2H2C6H5C5H4CH3NCHC6H4C6HCH4CHCNH6CHCHCHC2H4C3HC2HC2HCH3CNH6CFeH2CHC2H2NH5SCH2C3H5C2SCH12NC5HCH9CSHC3SHC6H3CH4C2HCHCH6CHCH3NH2CHC2H2CH9CHCHCHCH3CH4C2H4NFeC2HFeS2FeS2FeSFeHS2FeS2FeS2FeSFeS3CSHCSFeSFeSCHS2H3CH5CH5C3H5CH3C6H6CH2CH7C8H4CFeC3H6CNC8H23NH2SHCH2SHCH2CHCHCH3CHC2H3CNH3C2H3CH3NHCH3CHCH3CH2CHCNH2CH3CHSHSC3HCHFeCH4SCH2CH2FeH2CSC3H3CH5FeCH3C2H3CNH2C2HN2H3C2H2C2HCH2CH2CHSC3H2C2HC3H3C3HC3HCH3C2HCHCFeH2CH10FeH4CFeS2FeSHFeSFeS3FeS2FeS2FeSFeS3CHSCFeSCFeSH2SH2SNCH3NCH3CH2C2HCHCH2C3H2CH3C6H8FeH3CHC6H10C3H3CH5C4H4FeCH3CH5CHCHCFeHNCH2CH2FeSHCH5CHCHCH2CHC2H2C2H2CH2C2SHCH2CHS2HCHCH2FeHSCH2CH2CH3SNC7H18NCNC6SCH9C2HCH2SH3CH2CHNCH4CH2C2SH4CHCH2C2H3CHCSHCSFeCFeSHSCFeHFeSHFeS3FeS2FeS2FeSFeS3FeS2FeSHFeSFeS3H9C9H4C6H5CHSH2C6H4CHCH2CH3C2HCHC6HCH9C3H3C2HSCSNH2C2H2CSC2HFeS2FeH4C4H10NC6H12C2H2CH3NHCH14CH3C2H2CS2H3C2H4SHCHC2H2CHCH2CSCHC3NHC3HCH3C2H2C2H4NC2HCH4FeHCH4C2H5C3H3CH2CH6CHNHFeSFeS2FeCFeS2H2CFeS2FeS2FeSFeS3FeSCFeS2Fe2S3FeHSH2FeSHSHC6H4C6H4CHC2HSH2SH6CH2CHCH3C9H4C4H6C2H2CH2CHCH3FeHNCHN2CHCSCNHCHC4HSCH2CHCHSH2CHC4H5CH4CHCH2CHC2H3CHCH4C3H9CH4CH2CHSCH2C2H6NH2CH3NC6H9CH4C2H3CHCH2CHSCHC2SCH2CH5CH4C2H5CH2C2H4CHFeCH7CH4C2SH2CHCHCH2CH2CH2C2FeS2FeSCFeSFeS2CFeS2Fe2SFeS2C2H3CHCH6C6H4S2HNHSCH6CH3NCHC2H3CHC2H2C2H2C2H2CHC3H2C2H3CH3CHC2H4CH3CNH6CHCH13CH2C2HCHCHCH5SHCH3CH3CSHC3HSNSCFeS2FeCFeS3FeSFe2SHFeSFeS2C7H5C3H3C3HCHSH2SH3C4HC2H5CHC2H5C2HCSHCH8CHCH5CHC2H3NCHCH4CHCH4NC8H9CH10C3H7CH2NHCH4CHC2H5CH2C2H4SCFeSH2C2HCH3CFeS2FeS2FeSFeS3HC2H5CHCSFeH3C2H3C6H4NFeC3HC3HCH3CNC8H18NC4HC3H8CH8NH2CSCSC2H4C2HCHCSFeHC4H3CHNH3CH2CH7SH6CH2CSCHCH4CH3CHCHNH9CH3CHCHSH3NHCHCH2FeHSFeSCHCSFeS2FeS2FeSFeS3HCHC3HC6H4C6H7C3HCHNH3CFeH6CHCH4CHNH4CNSHC3H2CH5CH6CFeC2H7SHCH2SH2CHCHCHCHCH7C2HNHCHC4H2CH4C2HCHCH6C2SC3H3C2H2SHCH3C3H3CH4CSHFeS2FeS2FeSFeS3FeSHFeSHFeSFeS3CH2SCFeSC2H2S2H3NHC5H5SH2C7H4C2H3CHC4H4C6H4NH5CHC2H3CSH2FeH2CH3SH2CHCHCH3CHCH5CH2NCFeHC3H5CH4C3H2SH2CH4C2HCHCFeCHC3H3CHC2SHCHCH2CH2NHCHC2H3CHCH3NH4C3H2C4H2C2H6CH3CH10CH4C2SH2NSHFeS2FeSFeS2CFeSHFeSHFeSFeS3CSCFeSHSHSC8H4C2HC6H4C6H4C6H4NC6H6CSH4SH4CN2CH9CH2C2NHCH2CH3NCH4C2H2FeCH4CHSC2HCHCH3SC2NHCSHFeH6C5H4C3H4FeHC2HFeH3CH3CH2CH3C3H4C2H2NC9H7SCH3CHCH4CH2CH7CH6CH5CHC2HCSCH2CH2SCHCH4C2H3FeH15SH4CHC2H2N2CHCHCFeS2FeS2FeSFeHS2CH2SHC2HC6H4CHCH2C4HSHCH3CNH4C3H10CH4CH4C2H4C2H2SCHCHNCHCHCH2CH2C2H3CH2CH3CH4SH3FeS2FeS2FeCFeS3HCHCH5CHCH6C5HCH2CHCHCHC2SH3SHC2H6SCHC2HCHCHCH2CHCH6CNHCH2CH2CH3NHCH3C3HCH6CH5CH6C2SCHNH2CHCFeS2FeS2FeS3FeHFeS3FeS2FeS2FeSFeHS3HFeS2FeS2FeSFeS3H4SCH2SH2C6H5C2HCH2CHC2HC7H4CHC3HC7H5CHC6H5C6H4NC6H14NC8H22C2FeCH6CHCHCH2CNCHFe2CHFeCHCH2NHC2H4CNCHC2HC2H4CSH4SH3CH4SCHSCH2CFeH2CSCH2CH6NH2CHNC2H4CNHCHCH6CHCH9CHCH2CH2CH8CHFeHC2HCSH2SH2CH2CHCH2CHC2H3FeS2FeS2Fe2S4FeS2FeS2FeSFeS5FeHFeS2FeSFeSFeS3C6H4NHCHC2SH2C6H6CHSH4CHCHC5H3C6H4C5H4C2NH2CHCH2SH5NC8H20NC8H20C2H6C3HSH4SC2H2CH2CHC3HFeCHSCH3CSFeH4SH2CH3CHFeH3CHFe2CNCH6C2FeCHSC2HC2NH4CHCH2SCH6CSCH3CH3FeC2HCH2NHCH2CHCH2CHCH2C2H5C2H3CH3C2HCH4CH4CH2CH2C2H2FeS2FeHFeS3H2CHC2H3CH2CH6CH2C2HSHCHC3HFeCHCSHNC5H2CH10CH5CHCHCHCHC2H5CSCH4SC2H3NCH5CFeS2FeSHFeSFeHS2H4CHC3H2CHC3SHSC3H3C3H2CHC2HNH4CHNCH2C2HCHCHCH4CH3CHCH3NH3C2HC2H2CHC2H3C2HSH4C3H6CH3CSH2CHFeS2FeCSFeHFeHS2CFeS2FeS2FeHFeS3FeSHFeS2FeSFeS3CHC6HCH3NC6H4FeH2C6H4FeHCH9C5H4C6H4SH2CH3NC2HC2HSHCNHSHSCH4C2H2CH4NC7H17CH7CH4CSC5H4CH2CH8C3HC2HCH2NCH2CH3CSH4C2H6C2H3NCS2HNH2CFeC2HC2HCH5CHC4HSC2HFeC2HCH5CH4CH3C2H2C2H7CH7C5H8SH2FeSHFeS2FeSFeS3FeS2FeSCSFeS2FeS2FeSFeS3CFeS2FeS2Fe2S3C6H4C6H4CH2CFeCHCH2CH3CHCNC6H4C6H4C6H5C2H2NHC3HCH6NHCH3CH3SHSH2C2HCNH2NC7H13SHCH4CH2CHCH5CNH3CHCHC2H2CHNC8H23CH2SCH2CHC3H3CH2C2HC2HC2H4CHCH3C2H3C2FeCH3NH5CH5CH7C2HCH5CHCHCH3CH3CH2CH3CH4SCH4SCH7CH4CH3
_chemical_formula_sum              "Fe256 S512 H3072 C1792 N128"
_cell_length_a       89.6433
_cell_length_b       89.5647
_cell_length_c       39.173
_cell_angle_alpha    77.6396
_cell_angle_beta     77.6395
_cell_angle_gamma    77.1007

_space_group_name_H-M_alt    "P 1"
_space_group_IT_number       1

loop_
  _space_group_symop_operation_xyz
  'x, y, z'

loop_
  _atom_site_type_symbol
  _atom_site_label
  _atom_site_symmetry_multiplicity
  _atom_site_fract_x
  _atom_site_fract_y
  _atom_site_fract_z
  _atom_site_occupancy
  Fe  Fe1       1.0  0.18666  0.01796  0.19346  1.0000
  S   S1        1.0  0.16624  0.02295  0.23659  1.0000
  H   H1        1.0  0.10759  0.17575  0.29169  1.0000
  H   H2        1.0  0.02932  0.11954  0.04815  1.0000
  S   S2        1.0  0.01348  0.10671  0.19729  1.0000
  H   H3        1.0  0.19724  0.25764  0.36651  1.0000
  C   C1        1.0  0.20103  0.02434  0.02505  1.0000
  C   C2        1.0  0.05463  0.16482  0.25850  1.0000
  Fe  Fe2       1.0  0.12086  0.11008  0.21177  1.0000
  S   S3        1.0  0.13991  0.12206  0.17878  1.0000
  S   S4        1.0  0.12444  0.08885  0.25389  1.0000
  Fe  Fe3       1.0  0.09484  0.13400  0.18198  1.0000
  S   S5        1.0  0.11213  0.14807  0.14678  1.0000
  S   S6        1.0  0.06909  0.14365  0.17924  1.0000
  Fe  Fe4       1.0  0.12617  0.12513  0.13505  1.0000
  S   S7        1.0  0.13810  0.12057  0.08011  1.0000
  Fe  Fe5       1.0  0.12440  0.14406  0.19379  1.0000
  S   S8        1.0  0.13385  0.16454  0.20324  1.0000
  S   S9        1.0  0.10828  0.11129  0.16711  1.0000
  S   S10       1.0  0.10598  0.13179  0.22979  1.0000
  Fe  Fe6       1.0  0.17642  0.19479  0.33965  1.0000
  S   S11       1.0  0.19833  0.20200  0.30549  1.0000
  S   S12       1.0  0.16067  0.17926  0.33025  1.0000
  Fe  Fe7       1.0  0.18202  0.20634  0.40549  1.0000
  C   C3        1.0  0.22459  0.31040  0.13471  1.0000
  H   H4        1.0  0.17445  0.27396  0.44698  1.0000
  Fe  Fe8       1.0  0.19138  0.22376  0.33001  1.0000
  S   S13       1.0  0.19385  0.24854  0.30325  1.0000
  Fe  Fe9       1.0  0.19849  0.02175  0.11427  1.0000
  C   C4        1.0  0.03791  0.11513  0.06640  1.0000
  S   S14       1.0  0.16855  0.21744  0.36098  1.0000
  S   S15       1.0  0.18824  0.18344  0.38671  1.0000
  C   C5        1.0  0.21779  0.14145  0.33491  1.0000
  Fe  Fe10      1.0  0.99123  0.11508  0.17332  1.0000
  C   C6        1.0  0.21658  0.26474  0.37824  1.0000
  H   H5        1.0  0.10429  0.18195  0.17644  1.0000
  H   H6        1.0  0.05409  0.16398  0.23103  1.0000
  H   H7        1.0  0.02503  0.16367  0.09859  1.0000
  C   C7        1.0  0.05412  0.13467  0.03764  1.0000
  H   H8        1.0  0.06340  0.12538  0.02749  1.0000
  H   H9        1.0  0.17839  0.14021  0.47233  1.0000
  C   C8        1.0  0.18468  0.27361  0.42503  1.0000
  H   H10       1.0  0.04022  0.13355  0.99853  1.0000
  H   H11       1.0  0.04775  0.12015  0.12627  1.0000
  H   H12       1.0  0.04423  0.15426  0.10477  1.0000
  C   C9        1.0  0.15368  0.17521  0.29410  1.0000
  C   C10       1.0  0.15648  0.18344  0.25940  1.0000
  C   C11       1.0  0.15045  0.17993  0.23205  1.0000
  C   C12       1.0  0.14184  0.16790  0.23859  1.0000
  C   C13       1.0  0.13916  0.15956  0.27320  1.0000
  C   C14       1.0  0.14482  0.16337  0.30073  1.0000
  H   H13       1.0  0.16314  0.19265  0.25367  1.0000
  H   H14       1.0  0.15252  0.18657  0.20553  1.0000
  H   H15       1.0  0.13244  0.15041  0.27894  1.0000
  H   H16       1.0  0.14217  0.15712  0.32744  1.0000
  C   C15       1.0  0.12561  0.11992  0.05157  1.0000
  C   C16       1.0  0.10959  0.12492  0.06044  1.0000
  C   C17       1.0  0.09978  0.12454  0.03726  1.0000
  C   C18       1.0  0.05491  0.12277  0.09969  1.0000
  S   S16       1.0  0.18600  0.00420  0.15241  1.0000
  H   H17       1.0  0.10476  0.12923  0.08506  1.0000
  H   H18       1.0  0.08746  0.12869  0.04412  1.0000
  H   H19       1.0  0.06986  0.16556  0.29236  1.0000
  H   H20       1.0  0.18214  0.07731  0.08890  1.0000
  H   H21       1.0  0.02523  0.13624  0.11164  1.0000
  C   C19       1.0  0.02870  0.11722  0.19301  1.0000
  C   C20       1.0  0.02648  0.13343  0.18330  1.0000
  C   C21       1.0  0.03889  0.14129  0.17983  1.0000
  C   C22       1.0  0.05376  0.13308  0.18547  1.0000
  C   C23       1.0  0.05598  0.11687  0.19534  1.0000
  C   C24       1.0  0.04348  0.10903  0.19940  1.0000
  H   H22       1.0  0.01514  0.13993  0.17885  1.0000
  H   H23       1.0  0.03695  0.15383  0.17263  1.0000
  H   H24       1.0  0.06728  0.11037  0.20004  1.0000
  H   H25       1.0  0.04532  0.09651  0.20724  1.0000
  C   C25       1.0  0.15480  0.04162  0.23828  1.0000
  C   C26       1.0  0.14209  0.04303  0.26585  1.0000
  C   C27       1.0  0.13286  0.05757  0.26965  1.0000
  C   C28       1.0  0.13600  0.07091  0.24553  1.0000
  C   C29       1.0  0.14866  0.06964  0.21743  1.0000
  C   C30       1.0  0.15821  0.05496  0.21408  1.0000
  H   H26       1.0  0.13945  0.03283  0.28477  1.0000
  H   H27       1.0  0.12321  0.05849  0.29156  1.0000
  H   H28       1.0  0.15131  0.07998  0.19911  1.0000
  H   H29       1.0  0.16823  0.05398  0.19322  1.0000
  C   C31       1.0  0.16987  0.05702  0.29892  1.0000
  C   C32       1.0  0.18268  0.14016  0.38340  1.0000
  C   C33       1.0  0.11876  0.07990  0.11187  1.0000
  H   H30       1.0  0.04632  0.17509  0.26692  1.0000
  H   H31       1.0  0.18587  0.99935  0.05414  1.0000
  S   S17       1.0  0.18976  0.03169  0.06262  1.0000
  H   H32       1.0  0.07062  0.10551  0.06742  1.0000
  H   H33       1.0  0.19018  0.05208  0.32346  1.0000
  C   C34       1.0  0.20356  0.25503  0.38901  1.0000
  H   H34       1.0  0.18896  0.11142  0.45653  1.0000
  N   N1        1.0  0.19282  0.25700  0.42377  1.0000
  H   H35       1.0  0.02492  0.09674  0.09241  1.0000
  H   H36       1.0  0.08790  0.19796  0.17797  1.0000
  H   H37       1.0  0.20563  0.27720  0.27996  1.0000
  H   H38       1.0  0.11361  0.07578  0.13982  1.0000
  H   H39       1.0  0.14420  0.02865  0.16588  1.0000
  C   C35       1.0  0.14807  0.15619  0.45180  1.0000
  S   S18       1.0  0.99549  0.11832  0.04417  1.0000
  H   H40       1.0  0.06094  0.13212  0.10142  1.0000
  C   C36       1.0  0.13174  0.11438  0.01954  1.0000
  C   C37       1.0  0.20022  0.14050  0.43614  1.0000
  N   N2        1.0  0.14673  0.06403  0.10713  1.0000
  C   C38       1.0  0.14071  0.05284  0.13919  1.0000
  C   C39       1.0  0.13627  0.07970  0.10843  1.0000
  H   H41       1.0  0.19266  0.98588  0.08927  1.0000
  C   C40       1.0  0.14707  0.05777  0.07396  1.0000
  C   C41       1.0  0.23308  0.30073  0.07888  1.0000
  C   C42       1.0  0.16978  0.24943  0.40499  1.0000
  H   H42       1.0  0.16404  0.06582  0.27907  1.0000
  Fe  Fe11      1.0  0.20918  0.19226  0.35411  1.0000
  H   H43       1.0  0.21180  0.16645  0.32454  1.0000
  H   H44       1.0  0.12907  0.05093  0.13746  1.0000
  C   C43       1.0  0.21223  0.25252  0.28001  1.0000
  H   H45       1.0  0.07844  0.10967  0.10176  1.0000
  H   H46       1.0  0.17378  0.24662  0.45738  1.0000
  H   H47       1.0  0.20314  0.08363  0.18631  1.0000
  H   H48       1.0  0.15810  0.04940  0.06794  1.0000
  H   H49       1.0  0.13774  0.05086  0.07791  1.0000
  H   H50       1.0  0.15443  0.03121  0.12096  1.0000
  H   H51       1.0  0.21898  0.27818  0.10841  1.0000
  S   S19       1.0  0.17217  0.20795  0.46389  1.0000
  H   H52       1.0  0.15412  0.15916  0.47063  1.0000
  H   H53       1.0  0.18918  0.04200  0.24641  1.0000
  Fe  Fe12      1.0  0.20967  0.99174  0.16226  1.0000
  C   C44       1.0  0.09563  0.17507  0.28933  1.0000
  C   C45       1.0  0.06758  0.10812  0.09468  1.0000
  C   C46       1.0  0.05750  0.20061  0.22412  1.0000
  H   H54       1.0  0.20928  0.04154  0.23255  1.0000
  C   C47       1.0  0.18607  0.05999  0.29988  1.0000
  C   C48       1.0  0.07117  0.16472  0.26394  1.0000
  C   C49       1.0  0.03564  0.15602  0.08706  1.0000
  H   H55       1.0  0.06042  0.14339  0.04162  1.0000
  C   C50       1.0  0.17499  0.13559  0.35644  1.0000
  S   S20       1.0  0.20946  0.00409  0.20722  1.0000
  H   H56       1.0  0.03688  0.10019  0.11981  1.0000
  H   H57       1.0  0.08799  0.16263  0.20011  1.0000
  H   H58       1.0  0.21165  0.25897  0.44846  1.0000
  N   N3        1.0  0.04456  0.12828  0.07205  1.0000
  H   H59       1.0  0.14742  0.06345  0.01694  1.0000
  N   N4        1.0  0.07946  0.17712  0.24027  1.0000
  C   C51       1.0  0.19845  0.20969  0.48921  1.0000
  H   H60       1.0  0.02214  0.14341  0.06773  1.0000
  H   H61       1.0  0.04711  0.10663  0.05318  1.0000
  H   H62       1.0  0.06580  0.19327  0.27417  1.0000
  H   H63       1.0  0.08777  0.18533  0.29889  1.0000
  H   H64       1.0  0.20310  0.27897  0.17991  1.0000
  C   C52       1.0  0.18127  0.24629  0.43090  1.0000
  H   H65       1.0  0.19255  0.28022  0.43160  1.0000
  H   H66       1.0  0.20936  0.24264  0.38959  1.0000
  H   H67       1.0  0.20494  0.20830  0.46306  1.0000
  S   S21       1.0  0.23645  0.03785  0.16800  1.0000
  C   C53       1.0  0.22917  0.27144  0.25207  1.0000
  C   C54       1.0  0.18436  0.98785  0.07060  1.0000
  H   H68       1.0  0.21671  0.06788  0.20374  1.0000
  H   H69       1.0  0.13896  0.05777  0.16389  1.0000
  H   H70       1.0  0.18189  0.06952  0.23116  1.0000
  H   H71       1.0  0.07102  0.17591  0.19272  1.0000
  C   C55       1.0  0.03127  0.14060  0.08467  1.0000
  H   H72       1.0  0.16394  0.00183  0.09751  1.0000
  H   H73       1.0  0.22527  0.18420  0.23027  1.0000
  H   H74       1.0  0.23666  0.00375  0.99587  1.0000
  H   H75       1.0  0.15339  0.07792  0.03308  1.0000
  H   H76       1.0  0.17201  0.12385  0.36521  1.0000
  S   S22       1.0  0.23249  0.17711  0.35636  1.0000
  H   H77       1.0  0.20451  0.98750  0.00973  1.0000
  C   C56       1.0  0.21512  0.27586  0.16535  1.0000
  C   C57       1.0  0.07079  0.19320  0.24559  1.0000
  H   H78       1.0  0.16171  0.12563  0.46408  1.0000
  C   C58       1.0  0.14518  0.06977  0.03958  1.0000
  H   H79       1.0  0.18591  0.15173  0.37153  1.0000
  C   C59       1.0  0.16808  0.12535  0.43648  1.0000
  C   C60       1.0  0.02930  0.10600  0.10004  1.0000
  H   H80       1.0  0.07813  0.15294  0.26103  1.0000
  H   H81       1.0  0.05226  0.06573  0.02633  1.0000
  H   H82       1.0  0.04005  0.16242  0.06064  1.0000
  H   H83       1.0  0.21678  0.26341  0.16311  1.0000
  H   H84       1.0  0.17562  0.24879  0.37728  1.0000
  H   H85       1.0  0.09293  0.16420  0.30702  1.0000
  H   H86       1.0  0.17026  0.04517  0.29419  1.0000
  H   H87       1.0  0.05054  0.15440  0.27566  1.0000
  N   N5        1.0  0.17325  0.14060  0.42017  1.0000
  C   C61       1.0  0.09533  0.17471  0.25025  1.0000
  H   H88       1.0  0.20182  0.06393  0.18474  1.0000
  H   H89       1.0  0.09060  0.18472  0.14776  1.0000
  H   H90       1.0  0.10250  0.16340  0.24426  1.0000
  H   H91       1.0  0.17494  0.07147  0.05603  1.0000
  H   H92       1.0  0.05213  0.19234  0.21574  1.0000
  H   H93       1.0  0.20976  0.13991  0.31947  1.0000
  S   S23       1.0  0.20395  0.21423  0.37602  1.0000
  N   N6        1.0  0.19809  0.05839  0.26678  1.0000
  H   H94       1.0  0.07902  0.20151  0.23826  1.0000
  H   H95       1.0  0.22173  0.01530  0.04790  1.0000
  C   C62       1.0  0.15088  0.03646  0.14534  1.0000
  H   H96       1.0  0.04800  0.20756  0.24071  1.0000
  H   H97       1.0  0.10195  0.18374  0.23416  1.0000
  C   C63       1.0  0.08203  0.17477  0.20230  1.0000
  S   S24       1.0  0.19682  0.03668  0.15458  1.0000
  H   H98       1.0  0.11267  0.09205  0.10432  1.0000
  H   H99       1.0  0.13721  0.16368  0.01079  1.0000
  H   H100      1.0  0.06151  0.20905  0.20056  1.0000
  C   C64       1.0  0.09174  0.18561  0.17492  1.0000
  C   C65       1.0  0.19977  0.04287  0.25585  1.0000
  C   C66       1.0  0.15894  0.15307  0.41668  1.0000
  H   H101      1.0  0.17081  0.05380  0.11105  1.0000
  C   C67       1.0  0.20434  0.07149  0.20107  1.0000
  C   C68       1.0  0.19304  0.07096  0.23699  1.0000
  H   H102      1.0  0.18416  0.07190  0.30604  1.0000
  H   H103      1.0  0.22324  0.05548  0.25440  1.0000
  H   H104      1.0  0.16254  0.06896  0.13613  1.0000
  Fe  Fe13      1.0  0.21982  0.02230  0.16561  1.0000
  C   C69       1.0  0.10584  0.11909  0.00516  1.0000
  H   H105      1.0  0.16134  0.03664  0.15596  1.0000
  H   H106      1.0  0.14220  0.14625  0.46485  1.0000
  H   H107      1.0  0.20504  0.14782  0.41140  1.0000
  H   H108      1.0  0.20455  0.12811  0.43399  1.0000
  H   H109      1.0  0.16232  0.05804  0.32510  1.0000
  C   C70       1.0  0.21480  0.26794  0.27150  1.0000
  H   H110      1.0  0.15917  0.98651  0.08257  1.0000
  C   C71       1.0  0.04983  0.07745  0.00983  1.0000
  H   H111      1.0  0.23390  0.16757  0.21135  1.0000
  H   H112      1.0  0.13877  0.16637  0.44570  1.0000
  H   H113      1.0  0.19018  0.08270  0.24457  1.0000
  H   H114      1.0  0.20935  0.30406  0.06671  1.0000
  C   C72       1.0  0.17900  0.28327  0.39078  1.0000
  H   H115      1.0  0.16467  0.14428  0.35002  1.0000
  N   N7        1.0  0.22966  0.29578  0.11874  1.0000
  C   C73       1.0  0.18108  0.11085  0.43883  1.0000
  C   C74       1.0  0.22487  0.01000  0.99545  1.0000
  H   H116      1.0  0.20559  0.29376  0.12528  1.0000
  C   C75       1.0  0.21346  0.05976  0.27457  1.0000
  H   H117      1.0  0.20507  0.14286  0.45786  1.0000
  H   H118      1.0  0.22236  0.22874  0.27542  1.0000
  C   C76       1.0  0.21708  0.28612  0.12795  1.0000
  C   C77       1.0  0.20266  0.25167  0.45257  1.0000
  H   H119      1.0  0.15963  0.12323  0.42178  1.0000
  H   H120      1.0  0.18333  0.13528  0.33105  1.0000
  H   H121      1.0  0.21589  0.05207  0.29991  1.0000
  C   C78       1.0  0.12187  0.11388  0.99642  1.0000
  H   H122      1.0  0.18785  0.10890  0.41242  1.0000
  H   H123      1.0  0.01898  0.11347  0.11290  1.0000
  H   H124      1.0  0.16254  0.24025  0.41297  1.0000
  C   C79       1.0  0.16285  0.06527  0.11054  1.0000
  H   H125      1.0  0.19401  0.02804  0.30802  1.0000
  H   H126      1.0  0.23105  0.28330  0.24589  1.0000
  C   C80       1.0  0.21905  0.15644  0.33750  1.0000
  H   H127      1.0  0.13952  0.08829  0.08461  1.0000
  C   C81       1.0  0.16809  0.98948  0.09417  1.0000
  C   C82       1.0  0.21520  0.07618  0.27738  1.0000
  H   H128      1.0  0.20899  0.30375  0.18485  1.0000
  H   H129      1.0  0.17795  0.27651  0.37119  1.0000
  H   H130      1.0  0.13767  0.08468  0.13112  1.0000
  C   C83       1.0  0.22719  0.12849  0.35148  1.0000
  H   H131      1.0  0.06419  0.09780  0.11366  1.0000
  H   H132      1.0  0.16443  0.08831  0.07628  1.0000
  C   C84       1.0  0.23148  0.17200  0.23657  1.0000
  H   H133      1.0  0.20916  0.23954  0.45172  1.0000
  H   H134      1.0  0.18659  0.29184  0.37747  1.0000
  H   H135      1.0  0.19378  0.13175  0.38414  1.0000
  H   H136      1.0  0.21466  0.02788  0.29285  1.0000
  C   C85       1.0  0.20343  0.02850  0.28455  1.0000
  C   C86       1.0  0.22417  0.24064  0.26906  1.0000
  H   H137      1.0  0.18003  0.15785  0.44269  1.0000
  C   C87       1.0  0.18231  0.14501  0.44393  1.0000
  C   C88       1.0  0.21637  0.01643  0.02511  1.0000
  H   H138      1.0  0.15154  0.15030  0.40032  1.0000
  H   H139      1.0  0.11640  0.07274  0.09450  1.0000
  H   H140      1.0  0.22330  0.31172  0.03154  1.0000
  C   C89       1.0  0.17126  0.07635  0.08092  1.0000
  S   S25       1.0  0.22233  0.00874  0.12156  1.0000
  H   H141      1.0  0.22307  0.27668  0.18248  1.0000
  H   H142      1.0  0.22351  0.16535  0.25668  1.0000
  H   H143      1.0  0.04409  0.08560  0.02845  1.0000
  H   H144      1.0  0.16856  0.98207  0.12074  1.0000
  H   H145      1.0  0.17575  0.10041  0.45052  1.0000
  H   H146      1.0  0.16159  0.26063  0.40661  1.0000
  H   H147      1.0  0.13318  0.07659  0.04075  1.0000
  H   H148      1.0  0.16727  0.29027  0.39810  1.0000
  H   H149      1.0  0.20450  0.01785  0.27335  1.0000
  H   H150      1.0  0.16230  0.16435  0.40261  1.0000
  H   H151      1.0  0.21529  0.08417  0.25147  1.0000
  H   H152      1.0  0.14414  0.11040  0.01272  1.0000
  S   S26       1.0  0.22618  0.10988  0.34649  1.0000
  H   H153      1.0  0.20608  0.08128  0.29782  1.0000
  H   H154      1.0  0.12124  0.15799  0.00009  1.0000
  H   H155      1.0  0.18750  0.23404  0.43144  1.0000
  C   C90       1.0  0.17301  0.99368  0.00235  1.0000
  H   H156      1.0  0.21225  0.27711  0.38064  1.0000
  H   H157      1.0  0.16715  0.00241  0.01953  1.0000
  H   H158      1.0  0.22189  0.26436  0.34996  1.0000
  C   C91       1.0  0.19431  0.02594  0.99500  1.0000
  H   H159      1.0  0.22604  0.25976  0.39389  1.0000
  H   H160      1.0  0.03582  0.15211  0.01326  1.0000
  H   H161      1.0  0.22659  0.07538  0.28530  1.0000
  C   C92       1.0  0.04515  0.14218  0.00687  1.0000
  S   S27       1.0  0.98956  0.13625  0.13077  1.0000
  H   H162      1.0  0.02740  0.07592  0.00063  1.0000
  C   C93       1.0  0.21934  0.31015  0.06078  1.0000
  C   C94       1.0  0.21991  0.30838  0.17542  1.0000
  H   H163      1.0  0.23613  0.14115  0.24410  1.0000
  H   H164      1.0  0.22915  0.30117  0.18967  1.0000
  C   C95       1.0  0.23015  0.15844  0.35553  1.0000
  H   H165      1.0  0.06115  0.08049  0.99568  1.0000
  H   H166      1.0  0.18243  0.03197  0.99478  1.0000
  H   H167      1.0  0.21706  0.98134  0.06322  1.0000
  H   H168      1.0  0.14014  0.14586  0.99509  1.0000
  H   H169      1.0  0.02053  0.10353  0.99235  1.0000
  C   C96       1.0  0.19401  0.25212  0.49109  1.0000
  C   C97       1.0  0.13385  0.15802  0.99169  1.0000
  H   H170      1.0  0.19719  0.02014  0.94315  1.0000
  S   S28       1.0  0.15753  0.01865  0.91171  1.0000
  Fe  Fe14      1.0  0.18018  0.00861  0.87988  1.0000
  H   H171      1.0  0.18644  0.24330  0.50057  1.0000
  C   C98       1.0  0.15082  0.14984  0.91014  1.0000
  N   N8        1.0  0.13591  0.16028  0.92327  1.0000
  C   C99       1.0  0.13767  0.16730  0.95373  1.0000
  H   H172      1.0  0.00916  0.10737  0.71842  1.0000
  C   C100      1.0  0.99936  0.15260  0.76973  1.0000
  N   N9        1.0  0.03746  0.09102  0.95474  1.0000
  H   H173      1.0  0.10224  0.16720  0.91584  1.0000
  S   S29       1.0  0.00901  0.09817  0.83862  1.0000
  H   H174      1.0  0.00386  0.15652  0.79000  1.0000
  Fe  Fe15      1.0  0.11199  0.10180  0.85523  1.0000
  S   S30       1.0  0.12418  0.11262  0.88520  1.0000
  S   S31       1.0  0.12308  0.08095  0.82903  1.0000
  Fe  Fe16      1.0  0.08409  0.12837  0.85474  1.0000
  S   S32       1.0  0.09486  0.14189  0.88250  1.0000
  S   S33       1.0  0.05908  0.13777  0.84578  1.0000
  Fe  Fe17      1.0  0.11763  0.13472  0.84691  1.0000
  S   S34       1.0  0.13975  0.14482  0.82388  1.0000
  Fe  Fe18      1.0  0.10070  0.11899  0.91812  1.0000
  C   C101      1.0  0.21752  0.31409  0.81290  1.0000
  S   S35       1.0  0.10629  0.12348  0.81564  1.0000
  S   S36       1.0  0.08905  0.10585  0.89184  1.0000
  Fe  Fe19      1.0  0.18067  0.21495  0.71475  1.0000
  S   S37       1.0  0.18393  0.23558  0.67033  1.0000
  S   S38       1.0  0.15658  0.21067  0.74365  1.0000
  H   H175      1.0  0.00160  0.12835  0.79240  1.0000
  C   C102      1.0  0.13229  0.17322  0.89270  1.0000
  Fe  Fe20      1.0  0.20351  0.23784  0.69621  1.0000
  C   C103      1.0  0.02932  0.14234  0.70339  1.0000
  Fe  Fe21      1.0  0.20120  0.21811  0.64082  1.0000
  S   S39       1.0  0.20810  0.21641  0.58142  1.0000
  S   S40       1.0  0.19879  0.21878  0.74260  1.0000
  S   S41       1.0  0.19683  0.19759  0.68366  1.0000
  C   C104      1.0  0.14526  0.18263  0.87503  1.0000
  H   H176      1.0  0.12189  0.18189  0.90125  1.0000
  S   S42       1.0  0.19853  0.02311  0.86848  1.0000
  Fe  Fe22      1.0  0.20606  0.01451  0.81668  1.0000
  H   H177      1.0  0.21829  0.16927  0.54808  1.0000
  H   H178      1.0  0.06875  0.08082  0.89143  1.0000
  H   H179      1.0  0.01409  0.08958  0.95103  1.0000
  C   C105      1.0  0.19785  0.21352  0.54980  1.0000
  C   C106      1.0  0.18194  0.21320  0.55748  1.0000
  C   C107      1.0  0.20657  0.30910  0.74072  1.0000
  H   H180      1.0  0.17545  0.21460  0.58363  1.0000
  C   C108      1.0  0.14392  0.16314  0.80015  1.0000
  C   C109      1.0  0.15955  0.16453  0.78737  1.0000
  C   C110      1.0  0.16360  0.17891  0.76961  1.0000
  C   C111      1.0  0.15203  0.19216  0.76474  1.0000
  C   C112      1.0  0.13639  0.19078  0.77768  1.0000
  C   C113      1.0  0.13232  0.17634  0.79508  1.0000
  H   H181      1.0  0.16864  0.15442  0.79120  1.0000
  H   H182      1.0  0.17567  0.17978  0.75992  1.0000
  H   H183      1.0  0.12735  0.20095  0.77405  1.0000
  H   H184      1.0  0.12025  0.17549  0.80476  1.0000
  C   C114      1.0  0.12285  0.15124  0.93280  1.0000
  C   C115      1.0  0.02926  0.07533  0.91534  1.0000
  C   C116      1.0  0.04539  0.12642  0.84428  1.0000
  C   C117      1.0  0.02943  0.13278  0.85089  1.0000
  C   C118      1.0  0.01816  0.12422  0.84981  1.0000
  C   C119      1.0  0.02275  0.10929  0.84123  1.0000
  C   C120      1.0  0.03871  0.10293  0.83452  1.0000
  C   C121      1.0  0.04997  0.11141  0.83612  1.0000
  H   H185      1.0  0.02576  0.14438  0.85721  1.0000
  H   H186      1.0  0.00595  0.12923  0.85550  1.0000
  H   H187      1.0  0.04240  0.09141  0.82780  1.0000
  H   H188      1.0  0.06222  0.10641  0.83067  1.0000
  C   C122      1.0  0.14807  0.03608  0.88896  1.0000
  C   C123      1.0  0.14948  0.03850  0.85207  1.0000
  C   C124      1.0  0.14147  0.05220  0.83419  1.0000
  C   C125      1.0  0.13244  0.06378  0.85290  1.0000
  C   C126      1.0  0.13126  0.06154  0.88975  1.0000
  C   C127      1.0  0.13889  0.04758  0.90783  1.0000
  H   H189      1.0  0.15644  0.02963  0.83742  1.0000
  H   H190      1.0  0.14226  0.05379  0.80574  1.0000
  H   H191      1.0  0.12430  0.07044  0.90431  1.0000
  H   H192      1.0  0.13778  0.04571  0.93640  1.0000
  C   C128      1.0  0.03904  0.07715  0.98425  1.0000
  C   C129      1.0  0.19476  0.17243  0.61093  1.0000
  S   S43       1.0  0.21045  0.03399  0.76968  1.0000
  C   C130      1.0  0.02571  0.08959  0.93376  1.0000
  H   H193      1.0  0.12924  0.16856  0.87141  1.0000
  H   H194      1.0  0.16482  0.99362  0.98471  1.0000
  H   H195      1.0  0.14045  0.19307  0.85677  1.0000
  H   H196      1.0  0.16071  0.15618  0.90263  1.0000
  H   H197      1.0  0.03077  0.06413  0.93393  1.0000
  H   H198      1.0  0.05938  0.09896  0.94367  1.0000
  H   H199      1.0  0.04327  0.06605  0.97420  1.0000
  H   H200      1.0  0.00658  0.14844  0.69014  1.0000
  H   H201      1.0  0.23647  0.04953  0.93657  1.0000
  S   S44       1.0  0.21171  0.26025  0.69745  1.0000
  H   H202      1.0  0.17223  0.05749  0.84585  1.0000
  C   C131      1.0  0.10636  0.16095  0.94080  1.0000
  H   H203      1.0  0.99595  0.10903  0.97833  1.0000
  H   H204      1.0  0.21299  0.08875  0.75910  1.0000
  H   H205      1.0  0.02305  0.13035  0.96257  1.0000
  H   H206      1.0  0.03685  0.12365  0.92621  1.0000
  H   H207      1.0  0.17242  0.10731  0.75492  1.0000
  H   H208      1.0  0.19787  0.09091  0.73447  1.0000
  C   C132      1.0  0.23136  0.27317  0.72302  1.0000
  H   H209      1.0  0.16634  0.12781  0.92130  1.0000
  H   H210      1.0  0.16752  0.06623  0.88430  1.0000
  C   C133      1.0  0.20031  0.09286  0.75946  1.0000
  H   H211      1.0  0.99108  0.12894  0.67844  1.0000
  H   H212      1.0  0.03566  0.10810  0.71810  1.0000
  S   S45       1.0  0.22272  0.99365  0.83838  1.0000
  C   C134      1.0  0.16741  0.10356  0.78306  1.0000
  C   C135      1.0  0.15629  0.13503  0.93592  1.0000
  H   H213      1.0  0.12299  0.14497  0.91097  1.0000
  H   H214      1.0  0.19147  0.16080  0.61854  1.0000
  H   H215      1.0  0.18629  0.06634  0.85746  1.0000
  C   C136      1.0  0.23395  0.16743  0.72131  1.0000
  C   C137      1.0  0.05273  0.09321  0.93093  1.0000
  H   H216      1.0  0.17079  0.11128  0.79783  1.0000
  C   C138      1.0  0.21037  0.17235  0.62176  1.0000
  S   S46       1.0  0.23546  0.18593  0.72615  1.0000
  S   S47       1.0  0.18623  0.00139  0.82612  1.0000
  H   H217      1.0  0.21842  0.25577  0.82145  1.0000
  H   H218      1.0  0.12428  0.14199  0.95622  1.0000
  C   C139      1.0  0.22339  0.14781  0.60292  1.0000
  H   H219      1.0  0.05065  0.10144  0.90611  1.0000
  H   H220      1.0  0.23498  0.12521  0.58990  1.0000
  H   H221      1.0  0.14986  0.14605  0.88556  1.0000
  H   H222      1.0  0.20966  0.29918  0.76194  1.0000
  S   S48       1.0  0.22830  0.00181  0.93038  1.0000
  H   H223      1.0  0.12662  0.10945  0.97194  1.0000
  C   C140      1.0  0.22609  0.17294  0.56206  1.0000
  H   H224      1.0  0.15483  0.17585  0.85825  1.0000
  C   C141      1.0  0.06401  0.07845  0.92031  1.0000
  H   H225      1.0  0.14972  0.16944  0.95025  1.0000
  Fe  Fe23      1.0  0.21506  0.20300  0.70805  1.0000
  C   C142      1.0  0.98829  0.13283  0.73368  1.0000
  C   C143      1.0  0.21939  0.16329  0.72602  1.0000
  H   H226      1.0  0.03767  0.13271  0.71555  1.0000
  H   H227      1.0  0.19457  0.08754  0.81557  1.0000
  C   C144      1.0  0.23360  0.26995  0.78523  1.0000
  C   C145      1.0  0.22970  0.05469  0.73730  1.0000
  H   H228      1.0  0.20958  0.16704  0.65044  1.0000
  H   H229      1.0  0.23175  0.18561  0.64255  1.0000
  S   S49       1.0  0.19469  0.98730  0.90632  1.0000
  C   C146      1.0  0.00695  0.13546  0.76785  1.0000
  H   H230      1.0  0.05899  0.06787  0.92490  1.0000
  H   H231      1.0  0.19474  0.17692  0.58227  1.0000
  H   H232      1.0  0.20710  0.14553  0.72345  1.0000
  C   C147      1.0  0.22586  0.05108  0.83502  1.0000
  H   H233      1.0  0.21946  0.05344  0.86142  1.0000
  H   H234      1.0  0.01927  0.13407  0.77058  1.0000
  H   H235      1.0  0.19633  0.07141  0.79420  1.0000
  C   C148      1.0  0.22007  0.26362  0.73173  1.0000
  C   C149      1.0  0.21836  0.14863  0.72048  1.0000
  H   H236      1.0  0.23615  0.30480  0.77406  1.0000
  H   H237      1.0  0.03515  0.14644  0.67602  1.0000
  C   C150      1.0  0.18248  0.20965  0.49667  1.0000
  H   H238      1.0  0.00184  0.16047  0.74407  1.0000
  H   H239      1.0  0.17298  0.08994  0.72428  1.0000
  H   H240      1.0  0.02419  0.09974  0.91209  1.0000
  H   H241      1.0  0.14340  0.10682  0.81316  1.0000
  H   H242      1.0  0.14736  0.12766  0.94626  1.0000
  H   H243      1.0  0.01679  0.13006  0.68081  1.0000
  C   C151      1.0  0.16902  0.07574  0.77836  1.0000
  H   H244      1.0  0.21909  0.06320  0.73624  1.0000
  N   N10       1.0  0.00539  0.12965  0.73562  1.0000
  H   H245      1.0  0.05340  0.14673  0.98349  1.0000
  C   C152      1.0  0.02680  0.12080  0.94684  1.0000
  H   H246      1.0  0.21837  0.21185  0.50931  1.0000
  C   C153      1.0  0.01401  0.13756  0.70149  1.0000
  H   H247      1.0  0.18570  0.07106  0.73022  1.0000
  C   C154      1.0  0.02797  0.10608  0.74423  1.0000
  C   C155      1.0  0.14962  0.10794  0.78535  1.0000
  H   H248      1.0  0.15427  0.08371  0.83964  1.0000
  C   C156      1.0  0.17379  0.07769  0.73772  1.0000
  H   H249      1.0  0.20893  0.17135  0.73411  1.0000
  H   H250      1.0  0.18544  0.18038  0.62556  1.0000
  H   H251      1.0  0.14521  0.10110  0.77051  1.0000
  H   H252      1.0  0.14651  0.12038  0.77327  1.0000
  H   H253      1.0  0.01677  0.12107  0.93422  1.0000
  H   H254      1.0  0.16553  0.07312  0.72699  1.0000
  N   N11       1.0  0.17377  0.08672  0.79657  1.0000
  C   C157      1.0  0.01079  0.11222  0.74091  1.0000
  C   C158      1.0  0.16700  0.08333  0.83563  1.0000
  H   H255      1.0  0.15628  0.07591  0.78523  1.0000
  S   S50       1.0  0.22086  0.22199  0.66335  1.0000
  H   H256      1.0  0.17410  0.06347  0.78839  1.0000
  C   C159      1.0  0.17383  0.06742  0.85644  1.0000
  H   H257      1.0  0.03935  0.07585  0.89339  1.0000
  H   H258      1.0  0.13011  0.17899  0.95407  1.0000
  C   C160      1.0  0.20272  0.01929  0.96560  1.0000
  C   C161      1.0  0.20605  0.21166  0.51556  1.0000
  C   C162      1.0  0.19127  0.08404  0.79294  1.0000
  H   H259      1.0  0.23017  0.30794  0.71634  1.0000
  H   H260      1.0  0.19807  0.10555  0.75978  1.0000
  H   H261      1.0  0.20672  0.25013  0.77458  1.0000
  H   H262      1.0  0.16837  0.09244  0.84955  1.0000
  Fe  Fe24      1.0  0.21347  0.00138  0.89103  1.0000
  H   H263      1.0  0.22706  0.03920  0.64562  1.0000
  H   H264      1.0  0.16196  0.21130  0.53717  1.0000
  C   C163      1.0  0.21797  0.01118  0.96586  1.0000
  H   H265      1.0  0.01920  0.07555  0.90275  1.0000
  S   S51       1.0  0.09291  0.11874  0.97728  1.0000
  H   H266      1.0  0.21072  0.18480  0.62011  1.0000
  C   C164      1.0  0.22213  0.26063  0.79395  1.0000
  H   H267      1.0  0.22263  0.30484  0.83323  1.0000
  H   H268      1.0  0.21301  0.14712  0.59254  1.0000
  H   H269      1.0  0.02718  0.15217  0.71795  1.0000
  H   H270      1.0  0.07422  0.07579  0.93391  1.0000
  H   H271      1.0  0.16064  0.13783  0.95780  1.0000
  C   C165      1.0  0.03105  0.10525  0.97200  1.0000
  C   C166      1.0  0.22891  0.03916  0.75265  1.0000
  C   C167      1.0  0.17432  0.21132  0.53102  1.0000
  N   N12       1.0  0.22487  0.16451  0.60003  1.0000
  C   C168      1.0  0.21550  0.25736  0.76741  1.0000
  H   H272      1.0  0.09813  0.15305  0.95457  1.0000
  H   H273      1.0  0.22165  0.14205  0.63136  1.0000
  H   H274      1.0  0.18717  0.26379  0.49461  1.0000
  H   H275      1.0  0.14992  0.18670  0.89471  1.0000
  H   H276      1.0  0.03173  0.11085  0.76412  1.0000
  H   H277      1.0  0.03955  0.10727  0.98667  1.0000
  H   H278      1.0  0.22279  0.04068  0.82926  1.0000
  H   H279      1.0  0.22190  0.18565  0.56159  1.0000
  H   H280      1.0  0.22808  0.05923  0.63058  1.0000
  H   H281      1.0  0.02968  0.09327  0.75327  1.0000
  H   H282      1.0  0.22174  0.06108  0.81495  1.0000
  H   H283      1.0  0.23633  0.06126  0.89368  1.0000
  H   H284      1.0  0.20742  0.31023  0.80801  1.0000
  H   H285      1.0  0.00362  0.10653  0.76501  1.0000
  C   C169      1.0  0.23191  0.13812  0.71056  1.0000
  H   H286      1.0  0.20369  0.30391  0.72012  1.0000
  H   H287      1.0  0.10573  0.16948  0.95800  1.0000
  H   H288      1.0  0.23154  0.03368  0.89920  1.0000
  S   S52       1.0  0.23080  0.12048  0.70008  1.0000
  H   H289      1.0  0.20270  0.24913  0.50909  1.0000
  H   H290      1.0  0.18341  0.99747  0.98483  1.0000
  H   H291      1.0  0.23496  0.27806  0.69550  1.0000
  C   C170      1.0  0.23522  0.04753  0.63692  1.0000
  H   H292      1.0  0.23597  0.08660  0.55345  1.0000
  H   H293      1.0  0.23088  0.06777  0.56485  1.0000
  C   C171      1.0  0.23192  0.60684  0.05695  1.0000
  H   H294      1.0  0.20768  0.60956  0.02448  1.0000
  H   H295      1.0  0.21424  0.31785  0.12455  1.0000
  H   H296      1.0  0.21909  0.63844  0.00914  1.0000
  C   C172      1.0  0.21233  0.64485  0.27548  1.0000
  C   C173      1.0  0.21977  0.63959  0.30495  1.0000
  C   C174      1.0  0.20511  0.62154  0.00982  1.0000
  S   S53       1.0  0.21886  0.63628  0.23714  1.0000
  H   H297      1.0  0.23395  0.31752  0.12675  1.0000
  H   H298      1.0  0.19713  0.62852  0.02894  1.0000
  C   C175      1.0  0.21939  0.62939  0.99329  1.0000
  H   H299      1.0  0.22063  0.61426  0.06552  1.0000
  H   H300      1.0  0.23029  0.59542  0.05330  1.0000
  H   H301      1.0  0.22949  0.62999  0.30458  1.0000
  H   H302      1.0  0.22830  0.59630  0.99841  1.0000
  H   H303      1.0  0.21991  0.64201  0.35844  1.0000
  C   C176      1.0  0.21425  0.64634  0.33556  1.0000
  H   H304      1.0  0.21556  0.32203  0.06725  1.0000
  H   H305      1.0  0.21756  0.32000  0.18328  1.0000
  H   H306      1.0  0.20728  0.34616  0.73001  1.0000
  H   H307      1.0  0.22170  0.36041  0.75224  1.0000
  H   H308      1.0  0.22259  0.34679  0.79328  1.0000
  C   C177      1.0  0.22041  0.31736  0.72401  1.0000
  C   C178      1.0  0.22955  0.60552  0.94294  1.0000
  N   N13       1.0  0.22500  0.32674  0.74652  1.0000
  N   N14       1.0  0.23517  0.61892  0.98983  1.0000
  C   C179      1.0  0.21168  0.33982  0.75474  1.0000
  H   H309      1.0  0.20154  0.33540  0.77226  1.0000
  C   C180      1.0  0.21546  0.35210  0.77233  1.0000
  H   H310      1.0  0.21771  0.32485  0.69861  1.0000
  H   H311      1.0  0.21340  0.32470  0.82506  1.0000
  H   H312      1.0  0.21722  0.63593  0.96663  1.0000
  H   H313      1.0  0.19590  0.31706  0.75052  1.0000
  H   H314      1.0  0.22802  0.59396  0.93967  1.0000
  C   C181      1.0  0.23015  0.31653  0.77955  1.0000
  H   H315      1.0  0.20448  0.35897  0.78466  1.0000
  H   H316      1.0  0.23474  0.34257  0.70128  1.0000
  H   H317      1.0  0.21828  0.61358  0.94167  1.0000
  C   C182      1.0  0.23527  0.60386  0.97827  1.0000
  H   H318      1.0  0.19832  0.62165  0.98911  1.0000
  Fe  Fe25      1.0  0.07027  0.78260  0.16210  1.0000
  S   S54       1.0  0.08842  0.76757  0.12817  1.0000
  S   S55       1.0  0.04639  0.77667  0.18757  1.0000
  Fe  Fe26      1.0  0.09228  0.80535  0.15810  1.0000
  S   S56       1.0  0.11150  0.79210  0.12385  1.0000
  S   S57       1.0  0.09527  0.82785  0.17162  1.0000
  Fe  Fe27      1.0  0.09314  0.79035  0.09493  1.0000
  S   S58       1.0  0.09670  0.79792  0.03563  1.0000
  Fe  Fe28      1.0  0.10508  0.77075  0.16067  1.0000
  S   S59       1.0  0.12619  0.75346  0.17604  1.0000
  S   S60       1.0  0.07405  0.80523  0.12666  1.0000
  S   S61       1.0  0.08676  0.78409  0.19727  1.0000
  Fe  Fe29      1.0  0.20450  0.86295  0.19057  1.0000
  S   S62       1.0  0.17950  0.87323  0.20864  1.0000
  S   S63       1.0  0.21816  0.85577  0.23596  1.0000
  Fe  Fe30      1.0  0.19950  0.86839  0.11386  1.0000
  S   S64       1.0  0.17430  0.87906  0.12684  1.0000
  S   S65       1.0  0.21012  0.86590  0.05732  1.0000
  Fe  Fe31      1.0  0.18275  0.89196  0.16045  1.0000
  S   S66       1.0  0.17397  0.91789  0.16181  1.0000
  Fe  Fe32      1.0  0.17376  0.85927  0.17327  1.0000
  S   S67       1.0  0.15875  0.84058  0.19243  1.0000
  S   S68       1.0  0.20804  0.88247  0.14445  1.0000
  S   S69       1.0  0.19870  0.84791  0.15819  1.0000
  C   C183      1.0  0.21789  0.69244  0.24718  1.0000
  H   H319      1.0  0.12165  0.70106  0.30771  1.0000
  H   H320      1.0  0.20955  0.78108  0.26368  1.0000
  H   H321      1.0  0.04423  0.78310  0.11203  1.0000
  H   H322      1.0  0.21735  0.88864  0.21146  1.0000
  Fe  Fe33      1.0  0.15554  0.71788  0.35109  1.0000
  S   S70       1.0  0.17715  0.70716  0.31698  1.0000
  S   S71       1.0  0.13172  0.72458  0.33588  1.0000
  Fe  Fe34      1.0  0.17246  0.71885  0.41008  1.0000
  S   S72       1.0  0.19529  0.70810  0.38087  1.0000
  Fe  Fe35      1.0  0.18815  0.72417  0.33276  1.0000
  S   S73       1.0  0.20560  0.73737  0.29679  1.0000
  H   H323      1.0  0.21112  0.89539  0.30212  1.0000
  S   S74       1.0  0.16623  0.73623  0.36234  1.0000
  S   S75       1.0  0.15981  0.70126  0.40175  1.0000
  H   H324      1.0  0.01663  0.76749  0.21182  1.0000
  H   H325      1.0  0.02335  0.78156  0.08094  1.0000
  H   H326      1.0  0.22320  0.78715  0.30190  1.0000
  H   H327      1.0  0.17490  0.92054  0.03108  1.0000
  C   C184      1.0  0.20804  0.74366  0.36055  1.0000
  C   C185      1.0  0.21536  0.74875  0.38296  1.0000
  H   H328      1.0  0.05790  0.77166  0.02111  1.0000
  H   H329      1.0  0.21052  0.74794  0.41093  1.0000
  C   C186      1.0  0.19939  0.65702  0.27673  1.0000
  H   H330      1.0  0.19744  0.73928  0.37143  1.0000
  H   H331      1.0  0.09409  0.81318  0.27736  1.0000
  C   C187      1.0  0.23383  0.83989  0.23934  1.0000
  H   H332      1.0  0.19539  0.95858  0.09387  1.0000
  H   H333      1.0  0.21501  0.70507  0.24801  1.0000
  C   C188      1.0  0.00809  0.77346  0.12863  1.0000
  H   H334      1.0  0.18773  0.82061  0.22369  1.0000
  C   C189      1.0  0.17767  0.85338  0.99676  1.0000
  H   H335      1.0  0.15922  0.66083  0.29242  1.0000
  H   H336      1.0  0.23404  0.71339  0.26382  1.0000
  H   H337      1.0  0.23457  0.84154  0.29303  1.0000
  H   H338      1.0  0.22847  0.77291  0.46928  1.0000
  C   C190      1.0  0.11537  0.83724  0.00434  1.0000
  C   C191      1.0  0.16607  0.69230  0.23987  1.0000
  H   H339      1.0  0.18261  0.78094  0.35254  1.0000
  H   H340      1.0  0.99649  0.83394  0.09331  1.0000
  C   C192      1.0  0.19801  0.85988  0.03502  1.0000
  C   C193      1.0  0.18818  0.95981  0.07332  1.0000
  S   S76       1.0  0.21751  0.96583  0.15950  1.0000
  C   C194      1.0  0.17316  0.85374  0.03313  1.0000
  C   C195      1.0  0.18331  0.85695  0.05224  1.0000
  H   H341      1.0  0.01121  0.77046  0.03649  1.0000
  H   H342      1.0  0.16177  0.85167  0.04655  1.0000
  H   H343      1.0  0.17971  0.85720  0.08025  1.0000
  C   C196      1.0  0.18615  0.93132  0.15995  1.0000
  C   C197      1.0  0.17955  0.94584  0.17014  1.0000
  C   C198      1.0  0.18893  0.95664  0.16976  1.0000
  C   C199      1.0  0.20505  0.95301  0.15908  1.0000
  C   C200      1.0  0.21160  0.93862  0.14815  1.0000
  C   C201      1.0  0.20221  0.92788  0.14837  1.0000
  H   H344      1.0  0.16712  0.94867  0.17894  1.0000
  H   H345      1.0  0.18371  0.96764  0.17831  1.0000
  C   C202      1.0  0.11479  0.69994  0.23899  1.0000
  H   H346      1.0  0.20740  0.91695  0.13952  1.0000
  C   C203      1.0  0.13030  0.73399  0.29209  1.0000
  C   C204      1.0  0.14361  0.73527  0.26626  1.0000
  C   C205      1.0  0.14217  0.74123  0.23068  1.0000
  C   C206      1.0  0.12745  0.74670  0.22104  1.0000
  C   C207      1.0  0.11414  0.74612  0.24714  1.0000
  C   C208      1.0  0.11558  0.73953  0.28251  1.0000
  H   H347      1.0  0.15501  0.73122  0.27344  1.0000
  H   H348      1.0  0.15250  0.74166  0.21053  1.0000
  H   H349      1.0  0.10275  0.75022  0.23984  1.0000
  H   H350      1.0  0.10524  0.73858  0.30242  1.0000
  C   C209      1.0  0.20573  0.79364  0.25326  1.0000
  H   H351      1.0  0.22413  0.69034  0.22046  1.0000
  H   H352      1.0  0.19357  0.66108  0.25404  1.0000
  C   C210      1.0  0.20432  0.97580  0.02628  1.0000
  H   H353      1.0  0.20317  0.77931  0.34395  1.0000
  C   C211      1.0  0.21704  0.89061  0.27761  1.0000
  H   H354      1.0  0.09700  0.76460  0.04968  1.0000
  H   H355      1.0  0.00755  0.73833  0.03014  1.0000
  C   C212      1.0  0.11360  0.83264  0.16982  1.0000
  C   C213      1.0  0.12755  0.82242  0.16106  1.0000
  C   C214      1.0  0.14176  0.82581  0.16429  1.0000
  C   C215      1.0  0.14215  0.83946  0.17611  1.0000
  C   C216      1.0  0.12830  0.85008  0.18280  1.0000
  C   C217      1.0  0.11411  0.84669  0.17957  1.0000
  H   H356      1.0  0.12736  0.81159  0.15336  1.0000
  H   H357      1.0  0.15237  0.81741  0.15960  1.0000
  H   H358      1.0  0.12836  0.86043  0.19276  1.0000
  H   H359      1.0  0.10339  0.85467  0.18636  1.0000
  C   C218      1.0  0.01812  0.77053  0.18320  1.0000
  C   C219      1.0  0.03192  0.77540  0.16408  1.0000
  C   C220      1.0  0.03371  0.77930  0.12707  1.0000
  C   C221      1.0  0.02183  0.77840  0.10952  1.0000
  H   H360      1.0  0.18455  0.83859  0.23891  1.0000
  H   H361      1.0  0.11166  0.82628  0.00338  1.0000
  C   C222      1.0  0.19414  0.66408  0.30702  1.0000
  C   C223      1.0  0.20015  0.82039  0.26704  1.0000
  C   C224      1.0  0.21879  0.79987  0.29586  1.0000
  C   C225      1.0  0.09395  0.76948  0.02380  1.0000
  H   H362      1.0  0.21840  0.68319  0.30179  1.0000
  H   H363      1.0  0.21935  0.96069  0.06339  1.0000
  H   H364      1.0  0.16241  0.89972  0.01841  1.0000
  H   H365      1.0  0.04162  0.74064  0.99799  1.0000
  H   H366      1.0  0.13466  0.80886  0.00456  1.0000
  C   C226      1.0  0.20771  0.69887  0.47370  1.0000
  H   H367      1.0  0.18086  0.88828  0.00861  1.0000
  C   C227      1.0  0.13152  0.70032  0.24258  1.0000
  C   C228      1.0  0.19047  0.79917  0.31053  1.0000
  C   C229      1.0  0.23063  0.67834  0.48703  1.0000
  H   H368      1.0  0.21030  0.72181  0.44473  1.0000
  H   H369      1.0  0.23356  0.65596  0.44797  1.0000
  C   C230      1.0  0.98789  0.83338  0.07718  1.0000
  C   C231      1.0  0.13379  0.68213  0.34016  1.0000
  H   H370      1.0  0.14026  0.67006  0.34122  1.0000
  C   C232      1.0  0.01651  0.75985  0.02465  1.0000
  H   H371      1.0  0.21874  0.68305  0.42075  1.0000
  S   S77       1.0  0.19521  0.66720  0.37496  1.0000
  H   H372      1.0  0.98907  0.84299  0.05410  1.0000
  H   H373      1.0  0.15901  0.68424  0.29520  1.0000
  C   C233      1.0  0.19357  0.94522  0.05572  1.0000
  H   H374      1.0  0.11567  0.85832  0.09381  1.0000
  C   C234      1.0  0.15352  0.69214  0.27365  1.0000
  N   N15       1.0  0.12106  0.83609  0.03854  1.0000
  H   H375      1.0  0.22104  0.70700  0.42070  1.0000
  C   C235      1.0  0.10897  0.83071  0.06915  1.0000
  C   C236      1.0  0.13612  0.82455  0.04004  1.0000
  C   C237      1.0  0.12380  0.85185  0.04076  1.0000
  H   H376      1.0  0.05887  0.75419  0.00538  1.0000
  C   C238      1.0  0.09299  0.84166  0.07337  1.0000
  C   C239      1.0  0.13632  0.80836  0.03201  1.0000
  H   H377      1.0  0.22810  0.80449  0.27538  1.0000
  H   H378      1.0  0.17819  0.90192  0.05876  1.0000
  N   N16       1.0  0.21450  0.68171  0.47826  1.0000
  H   H379      1.0  0.11321  0.82844  0.09479  1.0000
  H   H380      1.0  0.10655  0.81943  0.06657  1.0000
  C   C240      1.0  0.09209  0.75965  0.00202  1.0000
  H   H381      1.0  0.22856  0.87067  0.31064  1.0000
  H   H382      1.0  0.20945  0.88314  0.27330  1.0000
  H   H383      1.0  0.19351  0.90739  0.02452  1.0000
  C   C241      1.0  0.12718  0.68875  0.30554  1.0000
  H   H384      1.0  0.22513  0.91789  0.27758  1.0000
  H   H385      1.0  0.11366  0.86097  0.03418  1.0000
  H   H386      1.0  0.08558  0.83682  0.09799  1.0000
  C   C242      1.0  0.22414  0.89754  0.21200  1.0000
  H   H387      1.0  0.08683  0.84232  0.05122  1.0000
  H   H388      1.0  0.15125  0.70376  0.28146  1.0000
  H   H389      1.0  0.22919  0.66987  0.34798  1.0000
  H   H390      1.0  0.14785  0.80093  0.03481  1.0000
  H   H391      1.0  0.21528  0.81956  0.32432  1.0000
  H   H392      1.0  0.99332  0.75444  0.04465  1.0000
  C   C243      1.0  0.22879  0.75499  0.36919  1.0000
  Fe  Fe36      1.0  0.18233  0.69199  0.36820  1.0000
  C   C244      1.0  0.14075  0.67246  0.25984  1.0000
  C   C245      1.0  0.12667  0.85359  0.07719  1.0000
  C   C246      1.0  0.05073  0.76351  0.01817  1.0000
  C   C247      1.0  0.20320  0.91417  0.24560  1.0000
  H   H393      1.0  0.13872  0.69958  0.21585  1.0000
  C   C248      1.0  0.20275  0.85888  0.99896  1.0000
  H   H394      1.0  0.17625  0.95922  0.08855  1.0000
  C   C249      1.0  0.18977  0.90642  0.24336  1.0000
  H   H395      1.0  0.11389  0.68889  0.23187  1.0000
  C   C250      1.0  0.21423  0.74463  0.32434  1.0000
  C   C251      1.0  0.17469  0.90057  0.00639  1.0000
  H   H396      1.0  0.19943  0.91992  0.26943  1.0000
  H   H397      1.0  0.20367  0.92380  0.22242  1.0000
  H   H398      1.0  0.09374  0.85347  0.07632  1.0000
  H   H399      1.0  0.19243  0.93475  0.07659  1.0000
  C   C252      1.0  0.14970  0.65829  0.28206  1.0000
  H   H400      1.0  0.21035  0.80182  0.35255  1.0000
  H   H401      1.0  0.99579  0.76570  0.18068  1.0000
  H   H402      1.0  0.12931  0.66940  0.26051  1.0000
  H   H403      1.0  0.17931  0.91559  0.23977  1.0000
  H   H404      1.0  0.19245  0.90043  0.22020  1.0000
  H   H405      1.0  0.18643  0.89828  0.26806  1.0000
  H   H406      1.0  0.22137  0.90692  0.18941  1.0000
  H   H407      1.0  0.20133  0.67717  0.44239  1.0000
  S   S78       1.0  0.99345  0.77298  0.10483  1.0000
  H   H408      1.0  0.21460  0.65054  0.46237  1.0000
  H   H409      1.0  0.10627  0.70221  0.26325  1.0000
  H   H410      1.0  0.13133  0.71216  0.24731  1.0000
  H   H411      1.0  0.99914  0.75403  0.99878  1.0000
  H   H412      1.0  0.19344  0.77381  0.31374  1.0000
  H   H413      1.0  0.13419  0.86238  0.07295  1.0000
  C   C253      1.0  0.21832  0.80669  0.32916  1.0000
  H   H414      1.0  0.16268  0.70198  0.21839  1.0000
  N   N17       1.0  0.20377  0.80325  0.28171  1.0000
  C   C254      1.0  0.21370  0.67588  0.44536  1.0000
  H   H415      1.0  0.18756  0.80717  0.33015  1.0000
  C   C255      1.0  0.21799  0.97243  0.04673  1.0000
  H   H416      1.0  0.18431  0.67354  0.30775  1.0000
  H   H417      1.0  0.15560  0.64955  0.26483  1.0000
  H   H418      1.0  0.17971  0.80074  0.29933  1.0000
  C   C256      1.0  0.18071  0.90825  0.03114  1.0000
  H   H419      1.0  0.20667  0.68846  0.25108  1.0000
  H   H420      1.0  0.99360  0.80260  0.16412  1.0000
  H   H421      1.0  0.22990  0.67065  0.27250  1.0000
  C   C257      1.0  0.00629  0.76950  0.16560  1.0000
  H   H422      1.0  0.18152  0.96934  0.00397  1.0000
  H   H423      1.0  0.19792  0.82744  0.28840  1.0000
  H   H424      1.0  0.12754  0.80237  0.05086  1.0000
  H   H425      1.0  0.13397  0.85494  0.02066  1.0000
  H   H426      1.0  0.08611  0.80545  0.24873  1.0000
  H   H427      1.0  0.08983  0.79380  0.29005  1.0000
  C   C258      1.0  0.22696  0.68300  0.27665  1.0000
  H   H428      1.0  0.11744  0.68272  0.30665  1.0000
  H   H429      1.0  0.11214  0.82716  0.25187  1.0000
  H   H430      1.0  0.22403  0.93580  0.13932  1.0000
  C   C259      1.0  0.00351  0.75112  0.02418  1.0000
  C   C260      1.0  0.21752  0.70994  0.44764  1.0000
  H   H431      1.0  0.17503  0.82353  0.26529  1.0000
  N   N18       1.0  0.13844  0.68806  0.27088  1.0000
  H   H432      1.0  0.23011  0.80354  0.33631  1.0000
  N   N19       1.0  0.12420  0.79317  0.26729  1.0000
  C   C261      1.0  0.13654  0.78009  0.25443  1.0000
  C   C262      1.0  0.11983  0.78881  0.30702  1.0000
  C   C263      1.0  0.13145  0.80749  0.25897  1.0000
  C   C264      1.0  0.11061  0.79556  0.24831  1.0000
  C   C265      1.0  0.14337  0.78264  0.21434  1.0000
  C   C266      1.0  0.11471  0.77289  0.32042  1.0000
  C   C267      1.0  0.12100  0.82253  0.26928  1.0000
  C   C268      1.0  0.09440  0.80240  0.26765  1.0000
  H   H433      1.0  0.14642  0.77742  0.26922  1.0000
  H   H434      1.0  0.13183  0.76920  0.25967  1.0000
  H   H435      1.0  0.11035  0.79766  0.31817  1.0000
  H   H436      1.0  0.12979  0.78854  0.32014  1.0000
  H   H437      1.0  0.14195  0.80527  0.27158  1.0000
  H   H438      1.0  0.13561  0.81055  0.23016  1.0000
  H   H439      1.0  0.11272  0.80321  0.22202  1.0000
  H   H440      1.0  0.10936  0.78439  0.24204  1.0000
  H   H441      1.0  0.13421  0.78598  0.19760  1.0000
  H   H442      1.0  0.15115  0.79129  0.20709  1.0000
  H   H443      1.0  0.15065  0.77157  0.20745  1.0000
  H   H444      1.0  0.10698  0.77073  0.30411  1.0000
  H   H445      1.0  0.12498  0.76328  0.32081  1.0000
  H   H446      1.0  0.10835  0.77237  0.34817  1.0000
  H   H447      1.0  0.12827  0.83160  0.26445  1.0000
  H   H448      1.0  0.11552  0.82121  0.29763  1.0000
  C   C269      1.0  0.19279  0.78233  0.33104  1.0000
  S   S79       1.0  0.17287  0.72868  0.45842  1.0000
  C   C270      1.0  0.18605  0.82580  0.24783  1.0000
  H   H449      1.0  0.11128  0.70943  0.21716  1.0000
  N   N20       1.0  0.21894  0.90368  0.24646  1.0000
  C   C271      1.0  0.20151  0.65868  0.33657  1.0000
  H   H450      1.0  0.22778  0.71076  0.45820  1.0000
  H   H451      1.0  0.13263  0.84282  0.09217  1.0000
  H   H452      1.0  0.19443  0.79437  0.24489  1.0000
  H   H453      1.0  0.17690  0.69431  0.24615  1.0000
  N   N21       1.0  0.18844  0.97517  0.04854  1.0000
  C   C272      1.0  0.09248  0.78551  0.01136  1.0000
  H   H454      1.0  0.14595  0.82923  0.02157  1.0000
  H   H455      1.0  0.12400  0.68214  0.36301  1.0000
  H   H456      1.0  0.13937  0.82242  0.06675  1.0000
  H   H457      1.0  0.14130  0.68963  0.34455  1.0000
  H   H458      1.0  0.21029  0.82415  0.24810  1.0000
  H   H459      1.0  0.09350  0.74722  0.01138  1.0000
  H   H460      1.0  0.14638  0.67281  0.23149  1.0000
  H   H461      1.0  0.04544  0.75864  0.04536  1.0000
  H   H462      1.0  0.22895  0.97289  0.02719  1.0000
  H   H463      1.0  0.02323  0.75238  0.04487  1.0000
  H   H464      1.0  0.20720  0.96772  0.00685  1.0000
  H   H465      1.0  0.23627  0.92415  0.19599  1.0000
  H   H466      1.0  0.16899  0.68104  0.23028  1.0000
  H   H467      1.0  0.22199  0.93683  0.22242  1.0000
  H   H468      1.0  0.18627  0.94515  0.03626  1.0000
  H   H469      1.0  0.20597  0.94391  0.04294  1.0000
  H   H470      1.0  0.22523  0.70581  0.30696  1.0000
  H   H471      1.0  0.21444  0.80965  0.20513  1.0000
  C   C273      1.0  0.21769  0.79764  0.21950  1.0000
  C   C274      1.0  0.22730  0.75146  0.31026  1.0000
  H   H472      1.0  0.16590  0.97363  0.03836  1.0000
  H   H473      1.0  0.99138  0.82247  0.06633  1.0000
  H   H474      1.0  0.10475  0.84637  0.00256  1.0000
  H   H475      1.0  0.22157  0.65650  0.41668  1.0000
  C   C275      1.0  0.17701  0.97720  0.02389  1.0000
  H   H476      1.0  0.14166  0.65275  0.30436  1.0000
  H   H477      1.0  0.19633  0.70100  0.46474  1.0000
  H   H478      1.0  0.03231  0.78274  0.00790  1.0000
  C   C276      1.0  0.03852  0.77257  0.99518  1.0000
  C   C277      1.0  0.22139  0.65875  0.44359  1.0000
  H   H479      1.0  0.23189  0.75263  0.28212  1.0000
  C   C278      1.0  0.23189  0.87925  0.28665  1.0000
  H   H480      1.0  0.21815  0.78970  0.20090  1.0000
  C   C279      1.0  0.22968  0.91337  0.25220  1.0000
  C   C280      1.0  0.23243  0.92745  0.22262  1.0000
  H   H481      1.0  0.16164  0.69965  0.48875  1.0000
  H   H482      1.0  0.99614  0.78364  0.99302  1.0000
  H   H483      1.0  0.20713  0.76277  0.49025  1.0000
  H   H484      1.0  0.23598  0.83510  0.18677  1.0000
  C   C281      1.0  0.23648  0.70479  0.28802  1.0000
  H   H485      1.0  0.22959  0.79589  0.22534  1.0000
  C   C282      1.0  0.23448  0.75673  0.33267  1.0000
  H   H486      1.0  0.23483  0.68716  0.35397  1.0000
  H   H487      1.0  0.98691  0.82312  0.15400  1.0000
  Fe  Fe37      1.0  0.17080  0.85540  0.91332  1.0000
  S   S80       1.0  0.15239  0.86848  0.88138  1.0000
  H   H488      1.0  0.22122  0.79415  0.66428  1.0000
  Fe  Fe38      1.0  0.19540  0.85134  0.84762  1.0000
  S   S81       1.0  0.17904  0.86418  0.81080  1.0000
  S   S82       1.0  0.22057  0.84068  0.83128  1.0000
  Fe  Fe39      1.0  0.17141  0.88117  0.84918  1.0000
  S   S83       1.0  0.16719  0.90763  0.83330  1.0000
  Fe  Fe40      1.0  0.16172  0.85031  0.84650  1.0000
  S   S84       1.0  0.15052  0.83542  0.82258  1.0000
  S   S85       1.0  0.18902  0.86918  0.88352  1.0000
  S   S86       1.0  0.17882  0.83638  0.88099  1.0000
  H   H489      1.0  0.12699  0.73261  0.67364  1.0000
  H   H490      1.0  0.99583  0.81173  0.76553  1.0000
  Fe  Fe41      1.0  0.07618  0.80074  0.84912  1.0000
  S   S87       1.0  0.09561  0.78019  0.84920  1.0000
  S   S88       1.0  0.08084  0.82372  0.85641  1.0000
  Fe  Fe42      1.0  0.05147  0.78075  0.85054  1.0000
  S   S89       1.0  0.06962  0.75876  0.85109  1.0000
  S   S90       1.0  0.02519  0.78075  0.86426  1.0000
  Fe  Fe43      1.0  0.07901  0.76769  0.89008  1.0000
  S   S91       1.0  0.08680  0.75359  0.94026  1.0000
  Fe  Fe44      1.0  0.08459  0.77343  0.80997  1.0000
  S   S92       1.0  0.09973  0.76628  0.75980  1.0000
  S   S93       1.0  0.06003  0.78857  0.89269  1.0000
  S   S94       1.0  0.06590  0.79508  0.80666  1.0000
  H   H491      1.0  0.13539  0.71850  0.60511  1.0000
  Fe  Fe45      1.0  0.20000  0.71729  0.66083  1.0000
  S   S95       1.0  0.20106  0.70615  0.71743  1.0000
  H   H492      1.0  0.10772  0.73355  0.72093  1.0000
  Fe  Fe46      1.0  0.18026  0.69581  0.65070  1.0000
  S   S96       1.0  0.17991  0.68257  0.70647  1.0000
  S   S97       1.0  0.16801  0.68874  0.61353  1.0000
  Fe  Fe47      1.0  0.17563  0.70632  0.72137  1.0000
  S   S98       1.0  0.15831  0.71181  0.77038  1.0000
  H   H493      1.0  0.20901  0.85042  0.76390  1.0000
  S   S99       1.0  0.17425  0.71946  0.66616  1.0000
  S   S100      1.0  0.20595  0.69483  0.64043  1.0000
  H   H494      1.0  0.23512  0.87588  0.80397  1.0000
  H   H495      1.0  0.12182  0.80137  0.87691  1.0000
  H   H496      1.0  0.11577  0.71712  0.75159  1.0000
  H   H497      1.0  0.20167  0.68851  0.54949  1.0000
  H   H498      1.0  0.13453  0.69441  0.64176  1.0000
  H   H499      1.0  0.13883  0.71278  0.71243  1.0000
  H   H500      1.0  0.20321  0.73842  0.70662  1.0000
  C   C283      1.0  0.21491  0.74072  0.69864  1.0000
  H   H501      1.0  0.20444  0.89057  0.97928  1.0000
  C   C284      1.0  0.20572  0.89943  0.95496  1.0000
  H   H502      1.0  0.12733  0.75685  0.94603  1.0000
  C   C285      1.0  0.17449  0.71403  0.56290  1.0000
  C   C286      1.0  0.16886  0.70011  0.57075  1.0000
  H   H503      1.0  0.22827  0.69168  0.80260  1.0000
  H   H504      1.0  0.20080  0.89223  0.80788  1.0000
  C   C287      1.0  0.11678  0.75224  0.76414  1.0000
  C   C288      1.0  0.11855  0.74225  0.79634  1.0000
  C   C289      1.0  0.13156  0.73014  0.79812  1.0000
  C   C290      1.0  0.14293  0.72803  0.76788  1.0000
  C   C291      1.0  0.14147  0.73844  0.73607  1.0000
  C   C292      1.0  0.12837  0.75042  0.73416  1.0000
  H   H505      1.0  0.10965  0.74355  0.81957  1.0000
  H   H506      1.0  0.13263  0.72216  0.82285  1.0000
  H   H507      1.0  0.15026  0.73713  0.71279  1.0000
  H   H508      1.0  0.12710  0.75821  0.70928  1.0000
  H   H509      1.0  0.99035  0.73067  0.70625  1.0000
  C   C293      1.0  0.00651  0.76781  0.79076  1.0000
  C   C294      1.0  0.01705  0.77222  0.80717  1.0000
  C   C295      1.0  0.01309  0.77386  0.84290  1.0000
  C   C296      1.0  0.99859  0.77080  0.86208  1.0000
  C   C297      1.0  0.19261  0.85563  0.97987  1.0000
  H   H510      1.0  0.00962  0.76682  0.76299  1.0000
  H   H511      1.0  0.02811  0.77463  0.79201  1.0000
  H   H512      1.0  0.18217  0.88664  0.94930  1.0000
  H   H513      1.0  0.11038  0.71249  0.61827  1.0000
  C   C298      1.0  0.20442  0.67615  0.54640  1.0000
  H   H514      1.0  0.19262  0.78660  0.82234  1.0000
  H   H515      1.0  0.13834  0.73660  0.61192  1.0000
  H   H516      1.0  0.08735  0.80410  0.96811  1.0000
  N   N22       1.0  0.21612  0.89844  0.75812  1.0000
  C   C299      1.0  0.18897  0.89978  0.74303  1.0000
  H   H517      1.0  0.16867  0.78866  0.91207  1.0000
  C   C300      1.0  0.13084  0.83313  0.83135  1.0000
  C   C301      1.0  0.12659  0.82305  0.81363  1.0000
  C   C302      1.0  0.11130  0.82019  0.82092  1.0000
  C   C303      1.0  0.10007  0.82740  0.84602  1.0000
  C   C304      1.0  0.10422  0.83778  0.86315  1.0000
  C   C305      1.0  0.11956  0.84060  0.85597  1.0000
  H   H518      1.0  0.13518  0.81736  0.79425  1.0000
  H   H519      1.0  0.10818  0.81241  0.80709  1.0000
  H   H520      1.0  0.09555  0.84353  0.88232  1.0000
  H   H521      1.0  0.12265  0.84847  0.86960  1.0000
  C   C306      1.0  0.17840  0.92061  0.83946  1.0000
  C   C307      1.0  0.19259  0.91529  0.85149  1.0000
  C   C308      1.0  0.20156  0.92598  0.85391  1.0000
  C   C309      1.0  0.19620  0.94211  0.84580  1.0000
  C   C310      1.0  0.18181  0.94746  0.83473  1.0000
  C   C311      1.0  0.17306  0.93674  0.83119  1.0000
  H   H522      1.0  0.19672  0.90296  0.85886  1.0000
  C   C312      1.0  0.12467  0.72457  0.65810  1.0000
  H   H523      1.0  0.17755  0.95983  0.82823  1.0000
  H   H524      1.0  0.16208  0.94101  0.82194  1.0000
  H   H525      1.0  0.20981  0.66857  0.77878  1.0000
  H   H526      1.0  0.19884  0.74990  0.52709  1.0000
  C   C313      1.0  0.13697  0.70347  0.70001  1.0000
  H   H527      1.0  0.08430  0.78685  0.92981  1.0000
  C   C314      1.0  0.03521  0.74848  0.97759  1.0000
  N   N23       1.0  0.17590  0.90860  0.96815  1.0000
  H   H528      1.0  0.12530  0.76701  0.88965  1.0000
  H   H529      1.0  0.21861  0.91551  0.78706  1.0000
  H   H530      1.0  0.17888  0.90849  0.73472  1.0000
  H   H531      1.0  0.14786  0.70076  0.68078  1.0000
  H   H532      1.0  0.14571  0.76062  0.87900  1.0000
  H   H533      1.0  0.13798  0.83281  0.96797  1.0000
  C   C315      1.0  0.20137  0.90846  0.74712  1.0000
  H   H534      1.0  0.10581  0.69927  0.72232  1.0000
  C   C316      1.0  0.08861  0.76587  0.96801  1.0000
  H   H535      1.0  0.20516  0.70324  0.49915  1.0000
  C   C317      1.0  0.22023  0.75523  0.53494  1.0000
  H   H536      1.0  0.18819  0.76996  0.81285  1.0000
  C   C318      1.0  0.16177  0.93215  0.92847  1.0000
  C   C319      1.0  0.12425  0.79458  0.90283  1.0000
  H   H537      1.0  0.21317  0.76481  0.54871  1.0000
  H   H538      1.0  0.20393  0.91617  0.72112  1.0000
  H   H539      1.0  0.17575  0.90254  0.91742  1.0000
  H   H540      1.0  0.13499  0.75941  0.98240  1.0000
  C   C320      1.0  0.00604  0.78743  0.97321  1.0000
  C   C321      1.0  0.22233  0.74413  0.72337  1.0000
  C   C322      1.0  0.16409  0.69502  0.54401  1.0000
  H   H541      1.0  0.22586  0.89769  0.70225  1.0000
  C   C323      1.0  0.22032  0.84305  0.75967  1.0000
  C   C324      1.0  0.12352  0.80674  0.92593  1.0000
  H   H542      1.0  0.02626  0.77828  0.93833  1.0000
  C   C325      1.0  0.16370  0.92325  0.96615  1.0000
  C   C326      1.0  0.22463  0.65355  0.81419  1.0000
  H   H543      1.0  0.22475  0.89078  0.82989  1.0000
  C   C327      1.0  0.22835  0.83691  0.78806  1.0000
  H   H544      1.0  0.09536  0.72197  0.75186  1.0000
  H   H545      1.0  0.19639  0.85485  0.95214  1.0000
  H   H546      1.0  0.12161  0.84134  0.94673  1.0000
  C   C328      1.0  0.22699  0.83954  0.72567  1.0000
  N   N24       1.0  0.13907  0.78277  0.89779  1.0000
  H   H547      1.0  0.18156  0.81295  0.79971  1.0000
  H   H548      1.0  0.19242  0.91849  0.92550  1.0000
  H   H549      1.0  0.14644  0.78123  0.94821  1.0000
  H   H550      1.0  0.19319  0.89232  0.72246  1.0000
  H   H551      1.0  0.11389  0.78899  0.91294  1.0000
  H   H552      1.0  0.21575  0.67065  0.55471  1.0000
  C   C329      1.0  0.99200  0.76479  0.80994  1.0000
  Fe  Fe48      1.0  0.20529  0.68363  0.69773  1.0000
  H   H553      1.0  0.99541  0.77200  0.88973  1.0000
  H   H554      1.0  0.22288  0.80895  0.77073  1.0000
  C   C330      1.0  0.08677  0.78192  0.95610  1.0000
  H   H555      1.0  0.22467  0.78305  0.50457  1.0000
  C   C331      1.0  0.14332  0.77376  0.93265  1.0000
  C   C332      1.0  0.04648  0.75014  0.94188  1.0000
  H   H556      1.0  0.21266  0.92173  0.86259  1.0000
  H   H557      1.0  0.23563  0.78378  0.55230  1.0000
  N   N25       1.0  0.23603  0.75882  0.51694  1.0000
  H   H558      1.0  0.22756  0.78392  0.72400  1.0000
  H   H559      1.0  0.12154  0.68571  0.67677  1.0000
  H   H560      1.0  0.19548  0.67042  0.56573  1.0000
  H   H561      1.0  0.20903  0.87656  0.78495  1.0000
  H   H562      1.0  0.20677  0.66087  0.51024  1.0000
  S   S101      1.0  0.16423  0.85060  0.97296  1.0000
  C   C333      1.0  0.01815  0.77344  0.96171  1.0000
  H   H563      1.0  0.13205  0.76822  0.82704  1.0000
  H   H564      1.0  0.15844  0.92507  0.91231  1.0000
  C   C334      1.0  0.22248  0.74067  0.66344  1.0000
  C   C335      1.0  0.23051  0.92162  0.73353  1.0000
  C   C336      1.0  0.10813  0.71078  0.70723  1.0000
  H   H565      1.0  0.19162  0.67719  0.50464  1.0000
  H   H566      1.0  0.22488  0.77379  0.80099  1.0000
  H   H567      1.0  0.00123  0.79441  0.94960  1.0000
  H   H568      1.0  0.17894  0.83043  0.76811  1.0000
  H   H569      1.0  0.18440  0.89288  0.76851  1.0000
  C   C337      1.0  0.21003  0.75240  0.51058  1.0000
  C   C338      1.0  0.18874  0.78238  0.80183  1.0000
  S   S102      1.0  0.21363  0.73585  0.63261  1.0000
  C   C339      1.0  0.17072  0.71767  0.50162  1.0000
  H   H570      1.0  0.19275  0.78299  0.74622  1.0000
  H   H571      1.0  0.15225  0.94242  0.93068  1.0000
  H   H572      1.0  0.23463  0.78682  0.81274  1.0000
  H   H573      1.0  0.17821  0.71802  0.58333  1.0000
  H   H574      1.0  0.20683  0.78405  0.69183  1.0000
  H   H575      1.0  0.19354  0.92220  0.96662  1.0000
  H   H576      1.0  0.21762  0.88165  0.72464  1.0000
  H   H577      1.0  0.11116  0.81138  0.93589  1.0000
  H   H578      1.0  0.22144  0.74469  0.55605  1.0000
  H   H579      1.0  0.15509  0.88659  0.98276  1.0000
  H   H580      1.0  0.01216  0.76640  0.95068  1.0000
  H   H581      1.0  0.17233  0.93672  0.91402  1.0000
  N   N26       1.0  0.20781  0.79726  0.75420  1.0000
  C   C340      1.0  0.21911  0.79504  0.72023  1.0000
  C   C341      1.0  0.21701  0.79879  0.78091  1.0000
  C   C342      1.0  0.19620  0.81211  0.74631  1.0000
  C   C343      1.0  0.19990  0.78336  0.76589  1.0000
  C   C344      1.0  0.21190  0.79464  0.68801  1.0000
  H   H582      1.0  0.05498  0.75743  0.94130  1.0000
  C   C345      1.0  0.18778  0.82045  0.77769  1.0000
  H   H583      1.0  0.12018  0.77421  0.96574  1.0000
  H   H584      1.0  0.04503  0.77768  0.96941  1.0000
  H   H585      1.0  0.19557  0.91632  0.76664  1.0000
  H   H586      1.0  0.20952  0.80135  0.80617  1.0000
  H   H587      1.0  0.16626  0.93168  0.98023  1.0000
  H   H588      1.0  0.20200  0.82100  0.72670  1.0000
  H   H589      1.0  0.18700  0.81003  0.73373  1.0000
  H   H590      1.0  0.20785  0.89366  0.93145  1.0000
  H   H591      1.0  0.20846  0.77223  0.76576  1.0000
  C   C346      1.0  0.16127  0.79774  0.89567  1.0000
  S   S103      1.0  0.22589  0.66431  0.70726  1.0000
  H   H592      1.0  0.20317  0.80520  0.68135  1.0000
  C   C347      1.0  0.17353  0.89768  0.94625  1.0000
  C   C348      1.0  0.15233  0.79041  0.87602  1.0000
  C   C349      1.0  0.20395  0.67368  0.50874  1.0000
  S   S104      1.0  0.20820  0.95491  0.84893  1.0000
  H   H593      1.0  0.19584  0.82546  0.78797  1.0000
  C   C350      1.0  0.13640  0.77121  0.87761  1.0000
  C   C351      1.0  0.13570  0.77712  0.83777  1.0000
  C   C352      1.0  0.13063  0.76563  0.95770  1.0000
  C   C353      1.0  0.22540  0.90923  0.76528  1.0000
  C   C354      1.0  0.21171  0.88708  0.79151  1.0000
  C   C355      1.0  0.10689  0.72146  0.73422  1.0000
  H   H594      1.0  0.13672  0.67835  0.71789  1.0000
  H   H595      1.0  0.21645  0.74422  0.75050  1.0000
  H   H596      1.0  0.16138  0.78175  0.86277  1.0000
  C   C356      1.0  0.12692  0.84134  0.96991  1.0000
  H   H597      1.0  0.12946  0.85315  0.96706  1.0000
  H   H598      1.0  0.11231  0.69215  0.61931  1.0000
  H   H599      1.0  0.09860  0.70100  0.65282  1.0000
  H   H600      1.0  0.14681  0.68650  0.74174  1.0000
  C   C357      1.0  0.13637  0.68882  0.72904  1.0000
  C   C358      1.0  0.11029  0.70113  0.63630  1.0000
  H   H601      1.0  0.09813  0.71578  0.69307  1.0000
  C   C359      1.0  0.13764  0.72443  0.62507  1.0000
  H   H602      1.0  0.15370  0.80591  0.91236  1.0000
  C   C360      1.0  0.22053  0.66026  0.78073  1.0000
  H   H603      1.0  0.17685  0.78876  0.79844  1.0000
  H   H604      1.0  0.12713  0.78801  0.83318  1.0000
  H   H605      1.0  0.21541  0.74217  0.49753  1.0000
  H   H606      1.0  0.12891  0.81665  0.91026  1.0000
  H   H607      1.0  0.02662  0.74188  0.97426  1.0000
  H   H608      1.0  0.15395  0.76472  0.92787  1.0000
  C   C361      1.0  0.17526  0.72285  0.52852  1.0000
  H   H609      1.0  0.14916  0.71896  0.63206  1.0000
  C   C362      1.0  0.19163  0.91297  0.95384  1.0000
  H   H610      1.0  0.15974  0.68425  0.54999  1.0000
  H   H611      1.0  0.16919  0.80452  0.87568  1.0000
  H   H612      1.0  0.05317  0.73848  0.93741  1.0000
  N   N27       1.0  0.12319  0.70896  0.68118  1.0000
  H   H613      1.0  0.11356  0.73045  0.64884  1.0000
  H   H614      1.0  0.14822  0.79965  0.85425  1.0000
  C   C363      1.0  0.23027  0.65607  0.74993  1.0000
  H   H615      1.0  0.12625  0.69033  0.75071  1.0000
  C   C364      1.0  0.12310  0.69702  0.65938  1.0000
  C   C365      1.0  0.22358  0.88130  0.81700  1.0000
  H   H616      1.0  0.04013  0.75505  0.91936  1.0000
  H   H617      1.0  0.21622  0.90397  0.95548  1.0000
  C   C366      1.0  0.16518  0.70370  0.50937  1.0000
  H   H618      1.0  0.14720  0.77887  0.82194  1.0000
  H   H619      1.0  0.12865  0.80186  0.95010  1.0000
  H   H620      1.0  0.22619  0.80439  0.71201  1.0000
  H   H621      1.0  0.22076  0.84424  0.70377  1.0000
  H   H622      1.0  0.22719  0.69243  0.75678  1.0000
  H   H623      1.0  0.22632  0.76968  0.58602  1.0000
  H   H624      1.0  0.17956  0.73364  0.52262  1.0000
  H   H625      1.0  0.21935  0.87226  0.83876  1.0000
  H   H626      1.0  0.21970  0.70932  0.77714  1.0000
  C   C367      1.0  0.22921  0.69900  0.77577  1.0000
  H   H627      1.0  0.15715  0.88499  0.93740  1.0000
  C   C368      1.0  0.15741  0.89301  0.95520  1.0000
  H   H628      1.0  0.14792  0.90311  0.95062  1.0000
  C   C369      1.0  0.22960  0.78465  0.79108  1.0000
  H   H629      1.0  0.23359  0.66594  0.49987  1.0000
  C   C370      1.0  0.22461  0.88980  0.72842  1.0000
  H   H630      1.0  0.22048  0.93043  0.72538  1.0000
  H   H631      1.0  0.23618  0.90284  0.77509  1.0000
  H   H632      1.0  0.21699  0.65673  0.83795  1.0000
  C   C371      1.0  0.98820  0.76611  0.84587  1.0000
  H   H633      1.0  0.15209  0.92080  0.98021  1.0000
  H   H634      1.0  0.01127  0.79518  0.98383  1.0000
  H   H635      1.0  0.23096  0.68520  0.50742  1.0000
  H   H636      1.0  0.21422  0.86082  0.98566  1.0000
  C   C372      1.0  0.08869  0.79170  0.97770  1.0000
  C   C373      1.0  0.98961  0.81958  0.78460  1.0000
  H   H637      1.0  0.23652  0.69901  0.69395  1.0000
  H   H638      1.0  0.99004  0.71183  0.76173  1.0000
  H   H639      1.0  0.99895  0.82261  0.79505  1.0000
  H   H640      1.0  0.99364  0.73746  0.63899  1.0000
  N   N28       1.0  0.02709  0.76355  0.98977  1.0000
  Fe  Fe49      1.0  0.20242  0.98092  0.85189  1.0000
  C   C374      1.0  0.23358  0.77414  0.49182  1.0000
  C   C375      1.0  0.27187  0.29038  0.01226  1.0000
  H   H641      1.0  0.37360  0.29688  0.15967  1.0000
  Fe  Fe50      1.0  0.26965  0.06782  0.30927  1.0000
  S   S105      1.0  0.25791  0.07249  0.36383  1.0000
  S   S106      1.0  0.26568  0.04536  0.29707  1.0000
  Fe  Fe51      1.0  0.28254  0.09836  0.28988  1.0000
  S   S107      1.0  0.27132  0.10527  0.34267  1.0000
  S   S108      1.0  0.29244  0.11717  0.24712  1.0000
  Fe  Fe52      1.0  0.27955  0.08047  0.36668  1.0000
  S   S109      1.0  0.29086  0.07355  0.41628  1.0000
  Fe  Fe53      1.0  0.25064  0.09671  0.33600  1.0000
  H   H642      1.0  0.29174  0.23626  0.05677  1.0000
  S   S110      1.0  0.29233  0.07380  0.31400  1.0000
  S   S111      1.0  0.26088  0.09174  0.28137  1.0000
  Fe  Fe54      1.0  0.36078  0.16210  0.16862  1.0000
  S   S112      1.0  0.34725  0.17071  0.12407  1.0000
  S   S113      1.0  0.35790  0.13926  0.20611  1.0000
  Fe  Fe55      1.0  0.37855  0.18955  0.14791  1.0000
  S   S114      1.0  0.36636  0.19975  0.10095  1.0000
  S   S115      1.0  0.39464  0.20517  0.15405  1.0000
  Fe  Fe56      1.0  0.34503  0.19402  0.13864  1.0000
  S   S116      1.0  0.32197  0.20999  0.14483  1.0000
  Fe  Fe57      1.0  0.36978  0.17553  0.09009  1.0000
  S   S117      1.0  0.37901  0.16871  0.03547  1.0000
  S   S118      1.0  0.35668  0.18527  0.18612  1.0000
  S   S119      1.0  0.38385  0.16545  0.13391  1.0000
  C   C376      1.0  0.36717  0.12490  0.01661  1.0000
  S   S120      1.0  0.28550  0.28415  0.14018  1.0000
  H   H643      1.0  0.41901  0.30995  0.41116  1.0000
  C   C377      1.0  0.36856  0.17105  0.00024  1.0000
  S   S121      1.0  0.28877  0.28821  0.21940  1.0000
  Fe  Fe58      1.0  0.30329  0.28979  0.16533  1.0000
  S   S122      1.0  0.32800  0.27713  0.15799  1.0000
  Fe  Fe59      1.0  0.27000  0.28468  0.19363  1.0000
  S   S123      1.0  0.25875  0.26320  0.21285  1.0000
  C   C378      1.0  0.31569  0.27975  0.05606  1.0000
  H   H644      1.0  0.32412  0.23208  0.07646  1.0000
  S   S124      1.0  0.41195  0.25729  0.31670  1.0000
  S   S125      1.0  0.41025  0.29457  0.25172  1.0000
  H   H645      1.0  0.33801  0.09326  0.31924  1.0000
  H   H646      1.0  0.32451  0.13285  0.10518  1.0000
  H   H647      1.0  0.39661  0.28807  0.33657  1.0000
  C   C379      1.0  0.31372  0.10004  0.34595  1.0000
  H   H648      1.0  0.27456  0.14554  0.20835  1.0000
  H   H649      1.0  0.38150  0.12317  0.14843  1.0000
  H   H650      1.0  0.24719  0.14641  0.29589  1.0000
  H   H651      1.0  0.33494  0.10267  0.13301  1.0000
  H   H652      1.0  0.35814  0.24972  0.02684  1.0000
  C   C380      1.0  0.23954  0.14551  0.37220  1.0000
  H   H653      1.0  0.32520  0.08081  0.31840  1.0000
  H   H654      1.0  0.34796  0.23594  0.05672  1.0000
  H   H655      1.0  0.44662  0.21575  0.21932  1.0000
  H   H656      1.0  0.38908  0.28040  0.40198  1.0000
  H   H657      1.0  0.30478  0.10770  0.44891  1.0000
  C   C381      1.0  0.40208  0.20817  0.19018  1.0000
  C   C382      1.0  0.40146  0.19793  0.22267  1.0000
  C   C383      1.0  0.40749  0.20092  0.25051  1.0000
  H   H658      1.0  0.44839  0.23635  0.16984  1.0000
  H   H659      1.0  0.36084  0.13607  0.00354  1.0000
  H   H660      1.0  0.39651  0.18762  0.22619  1.0000
  H   H661      1.0  0.40710  0.19282  0.27539  1.0000
  H   H662      1.0  0.36363  0.10240  0.09035  1.0000
  C   C384      1.0  0.44037  0.27888  0.47719  1.0000
  H   H663      1.0  0.48174  0.20533  0.14933  1.0000
  H   H664      1.0  0.33200  0.07948  0.35853  1.0000
  H   H665      1.0  0.38992  0.12049  0.10418  1.0000
  C   C385      1.0  0.32408  0.22821  0.15044  1.0000
  C   C386      1.0  0.31134  0.23797  0.16659  1.0000
  C   C387      1.0  0.31275  0.25281  0.17000  1.0000
  C   C388      1.0  0.32670  0.25816  0.15597  1.0000
  C   C389      1.0  0.33944  0.24842  0.13976  1.0000
  C   C390      1.0  0.33822  0.23334  0.13769  1.0000
  H   H666      1.0  0.30040  0.23403  0.17678  1.0000
  H   H667      1.0  0.30299  0.26004  0.18362  1.0000
  H   H668      1.0  0.35017  0.25259  0.12840  1.0000
  H   H669      1.0  0.34809  0.22591  0.12514  1.0000
  H   H670      1.0  0.33882  0.11290  0.34449  1.0000
  H   H671      1.0  0.37695  0.13734  0.04476  1.0000
  C   C391      1.0  0.23789  0.13051  0.37059  1.0000
  H   H672      1.0  0.31830  0.25727  0.09014  1.0000
  H   H673      1.0  0.28311  0.15185  0.25650  1.0000
  C   C392      1.0  0.45430  0.18722  0.26046  1.0000
  H   H674      1.0  0.35275  0.09895  0.14867  1.0000
  H   H675      1.0  0.25015  0.18326  0.23938  1.0000
  H   H676      1.0  0.48106  0.28737  0.36150  1.0000
  H   H677      1.0  0.28122  0.16450  0.30583  1.0000
  H   H678      1.0  0.45017  0.19502  0.28028  1.0000
  H   H679      1.0  0.30109  0.22072  0.08624  1.0000
  H   H680      1.0  0.24206  0.12497  0.27660  1.0000
  C   C393      1.0  0.35243  0.17602  0.00455  1.0000
  C   C394      1.0  0.24481  0.28701  0.12979  1.0000
  C   C395      1.0  0.33972  0.13312  0.21730  1.0000
  C   C396      1.0  0.33845  0.11852  0.23868  1.0000
  C   C397      1.0  0.32412  0.11336  0.24787  1.0000
  C   C398      1.0  0.31089  0.12281  0.23605  1.0000
  C   C399      1.0  0.31228  0.13726  0.21411  1.0000
  C   C400      1.0  0.32656  0.14244  0.20501  1.0000
  H   H681      1.0  0.34865  0.11112  0.24781  1.0000
  H   H682      1.0  0.32338  0.10192  0.26327  1.0000
  H   H683      1.0  0.30227  0.14455  0.20408  1.0000
  H   H684      1.0  0.32735  0.15369  0.18857  1.0000
  C   C401      1.0  0.25113  0.27104  0.11802  1.0000
  Fe  Fe60      1.0  0.42905  0.23891  0.29076  1.0000
  C   C402      1.0  0.39025  0.29671  0.35361  1.0000
  C   C403      1.0  0.25698  0.04378  0.26159  1.0000
  C   C404      1.0  0.25652  0.05523  0.23112  1.0000
  H   H685      1.0  0.34430  0.25600  0.06339  1.0000
  H   H686      1.0  0.41924  0.23500  0.21062  1.0000
  H   H687      1.0  0.26132  0.06551  0.22909  1.0000
  H   H688      1.0  0.38789  0.28519  0.18436  1.0000
  H   H689      1.0  0.34161  0.13867  0.04931  1.0000
  H   H690      1.0  0.46282  0.25087  0.45719  1.0000
  C   C405      1.0  0.24093  0.25957  0.24016  1.0000
  N   N29       1.0  0.35764  0.23312  0.24741  1.0000
  C   C406      1.0  0.35949  0.21784  0.23493  1.0000
  C   C407      1.0  0.35582  0.24583  0.21564  1.0000
  C   C408      1.0  0.34291  0.23468  0.27458  1.0000
  C   C409      1.0  0.37165  0.23284  0.26335  1.0000
  C   C410      1.0  0.36047  0.20310  0.26386  1.0000
  C   C411      1.0  0.36951  0.24512  0.18416  1.0000
  C   C412      1.0  0.33783  0.24999  0.28932  1.0000
  C   C413      1.0  0.37557  0.24869  0.26458  1.0000
  H   H691      1.0  0.34980  0.21797  0.22100  1.0000
  H   H692      1.0  0.37025  0.21586  0.21500  1.0000
  H   H693      1.0  0.35382  0.25756  0.22231  1.0000
  H   H694      1.0  0.34515  0.24568  0.20569  1.0000
  H   H695      1.0  0.33298  0.23319  0.26338  1.0000
  H   H696      1.0  0.34392  0.22535  0.29826  1.0000
  H   H697      1.0  0.37064  0.22602  0.29083  1.0000
  H   H698      1.0  0.38220  0.22658  0.24802  1.0000
  H   H699      1.0  0.34902  0.20219  0.28100  1.0000
  H   H700      1.0  0.36399  0.19268  0.25086  1.0000
  H   H701      1.0  0.36937  0.20237  0.28022  1.0000
  H   H702      1.0  0.36980  0.23566  0.16962  1.0000
  H   H703      1.0  0.36799  0.25616  0.16483  1.0000
  H   H704      1.0  0.38086  0.24368  0.19244  1.0000
  H   H705      1.0  0.32660  0.24961  0.30791  1.0000
  H   H706      1.0  0.33562  0.26031  0.26844  1.0000
  H   H707      1.0  0.34619  0.25133  0.30509  1.0000
  H   H708      1.0  0.37976  0.24779  0.28983  1.0000
  H   H709      1.0  0.36587  0.25871  0.26333  1.0000
  H   H710      1.0  0.38553  0.25130  0.24333  1.0000
  H   H711      1.0  0.29088  0.11214  0.39194  1.0000
  H   H712      1.0  0.24480  0.12050  0.38438  1.0000
  H   H713      1.0  0.45625  0.17532  0.27636  1.0000
  N   N30       1.0  0.47086  0.20717  0.22283  1.0000
  H   H714      1.0  0.34791  0.28649  0.25986  1.0000
  H   H715      1.0  0.44492  0.18833  0.24505  1.0000
  S   S126      1.0  0.26041  0.31034  0.18082  1.0000
  H   H716      1.0  0.34042  0.11782  0.14732  1.0000
  C   C414      1.0  0.39414  0.29107  0.39127  1.0000
  H   H717      1.0  0.31838  0.28323  0.07935  1.0000
  H   H718      1.0  0.36412  0.30309  0.28823  1.0000
  S   S127      1.0  0.48333  0.24709  0.28374  1.0000
  H   H719      1.0  0.27676  0.17224  0.24399  1.0000
  C   C415      1.0  0.46895  0.21566  0.25336  1.0000
  H   H720      1.0  0.31036  0.10703  0.32081  1.0000
  H   H721      1.0  0.24739  0.23492  0.23998  1.0000
  C   C416      1.0  0.25033  0.05312  0.20265  1.0000
  H   H722      1.0  0.25571  0.15244  0.19887  1.0000
  C   C417      1.0  0.32959  0.13280  0.36900  1.0000
  H   H723      1.0  0.33862  0.12798  0.38594  1.0000
  C   C418      1.0  0.46961  0.19032  0.23572  1.0000
  H   H724      1.0  0.24422  0.28492  0.15881  1.0000
  H   H725      1.0  0.29584  0.23955  0.09785  1.0000
  H   H726      1.0  0.45733  0.20740  0.18264  1.0000
  C   C419      1.0  0.27005  0.16376  0.29895  1.0000
  H   H727      1.0  0.34981  0.15175  0.06470  1.0000
  C   C420      1.0  0.32821  0.08782  0.33529  1.0000
  C   C421      1.0  0.24427  0.02847  0.23546  1.0000
  H   H728      1.0  0.40691  0.28692  0.38880  1.0000
  H   H729      1.0  0.31886  0.13825  0.38502  1.0000
  H   H730      1.0  0.30209  0.06745  0.48219  1.0000
  C   C422      1.0  0.42612  0.25938  0.47332  1.0000
  N   N31       1.0  0.35306  0.30725  0.22225  1.0000
  H   H731      1.0  0.24231  0.30794  0.07133  1.0000
  H   H732      1.0  0.30515  0.28788  0.04846  1.0000
  H   H733      1.0  0.29454  0.26035  0.02518  1.0000
  C   C423      1.0  0.31737  0.10646  0.43746  1.0000
  C   C424      1.0  0.32103  0.09985  0.40268  1.0000
  H   H734      1.0  0.26559  0.15399  0.31780  1.0000
  H   H735      1.0  0.37769  0.29776  0.35360  1.0000
  H   H736      1.0  0.28123  0.13788  0.36111  1.0000
  C   C425      1.0  0.34362  0.29459  0.23674  1.0000
  H   H737      1.0  0.27243  0.16670  0.15547  1.0000
  H   H738      1.0  0.34567  0.11112  0.07622  1.0000
  H   H739      1.0  0.46893  0.23085  0.15705  1.0000
  N   N32       1.0  0.38849  0.30273  0.41602  1.0000
  H   H740      1.0  0.36548  0.31248  0.47532  1.0000
  C   C426      1.0  0.27290  0.29683  0.04129  1.0000
  H   H741      1.0  0.41975  0.25017  0.48632  1.0000
  H   H742      1.0  0.26201  0.17485  0.30304  1.0000
  H   H743      1.0  0.47040  0.18445  0.21290  1.0000
  C   C427      1.0  0.24619  0.17203  0.25093  1.0000
  H   H744      1.0  0.26116  0.18029  0.18267  1.0000
  C   C428      1.0  0.28476  0.08279  0.45407  1.0000
  H   H745      1.0  0.37435  0.28458  0.48135  1.0000
  H   H746      1.0  0.38986  0.27166  0.45820  1.0000
  H   H747      1.0  0.24794  0.14709  0.38660  1.0000
  C   C429      1.0  0.45815  0.21475  0.20156  1.0000
  H   H748      1.0  0.36029  0.11560  0.02083  1.0000
  H   H749      1.0  0.33287  0.14441  0.12626  1.0000
  C   C430      1.0  0.45936  0.23118  0.18026  1.0000
  H   H750      1.0  0.25123  0.02143  0.28693  1.0000
  C   C431      1.0  0.23836  0.24418  0.24895  1.0000
  N   N33       1.0  0.31767  0.25277  0.03815  1.0000
  H   H751      1.0  0.47227  0.22730  0.24375  1.0000
  H   H752      1.0  0.29914  0.12635  0.40197  1.0000
  C   C432      1.0  0.38709  0.28159  0.47266  1.0000
  H   H753      1.0  0.29245  0.12741  0.32742  1.0000
  H   H754      1.0  0.47032  0.23528  0.41693  1.0000
  H   H755      1.0  0.25034  0.06190  0.17890  1.0000
  C   C433      1.0  0.24633  0.13413  0.25519  1.0000
  H   H756      1.0  0.37704  0.10791  0.13170  1.0000
  S   S128      1.0  0.44194  0.25577  0.25098  1.0000
  H   H757      1.0  0.46750  0.26762  0.38585  1.0000
  S   S129      1.0  0.42048  0.25396  0.41152  1.0000
  C   C434      1.0  0.36523  0.13172  0.11163  1.0000
  C   C435      1.0  0.27263  0.09566  0.45540  1.0000
  C   C436      1.0  0.25471  0.14367  0.27085  1.0000
  H   H758      1.0  0.48124  0.28056  0.28068  1.0000
  C   C437      1.0  0.40871  0.22144  0.18604  1.0000
  H   H759      1.0  0.33345  0.14251  0.34854  1.0000
  Fe  Fe61      1.0  0.45682  0.25410  0.29215  1.0000
  C   C438      1.0  0.27016  0.16957  0.18257  1.0000
  H   H760      1.0  0.30726  0.24779  0.99763  1.0000
  H   H761      1.0  0.28126  0.17180  0.18676  1.0000
  H   H762      1.0  0.39388  0.30788  0.34092  1.0000
  H   H763      1.0  0.25401  0.29420  0.11953  1.0000
  S   S130      1.0  0.44152  0.27396  0.31718  1.0000
  C   C439      1.0  0.31286  0.26285  0.06645  1.0000
  H   H764      1.0  0.32118  0.11766  0.43434  1.0000
  H   H765      1.0  0.32086  0.29119  0.26770  1.0000
  C   C440      1.0  0.44245  0.28323  0.44011  1.0000
  H   H766      1.0  0.44871  0.29252  0.42718  1.0000
  H   H767      1.0  0.23965  0.01810  0.23727  1.0000
  Fe  Fe62      1.0  0.42564  0.27411  0.27941  1.0000
  H   H768      1.0  0.38126  0.11686  0.05692  1.0000
  H   H769      1.0  0.45641  0.24666  0.39126  1.0000
  C   C441      1.0  0.41388  0.21432  0.24652  1.0000
  S   S131      1.0  0.42127  0.21746  0.28254  1.0000
  C   C442      1.0  0.30678  0.25759  0.01152  1.0000
  C   C443      1.0  0.35346  0.11204  0.09403  1.0000
  C   C444      1.0  0.25082  0.03040  0.26358  1.0000
  H   H770      1.0  0.40681  0.29175  0.44633  1.0000
  H   H771      1.0  0.27379  0.28951  0.06679  1.0000
  H   H772      1.0  0.24198  0.17301  0.27937  1.0000
  C   C445      1.0  0.32714  0.12025  0.35038  1.0000
  H   H773      1.0  0.40928  0.22942  0.16097  1.0000
  H   H774      1.0  0.34602  0.17905  0.02960  1.0000
  H   H775      1.0  0.25450  0.12800  0.23477  1.0000
  H   H776      1.0  0.25474  0.27206  0.08889  1.0000
  H   H777      1.0  0.26504  0.13536  0.27933  1.0000
  Fe  Fe63      1.0  0.42896  0.25570  0.35235  1.0000
  C   C446      1.0  0.41438  0.22464  0.21414  1.0000
  H   H778      1.0  0.26646  0.09999  0.43330  1.0000
  H   H779      1.0  0.33384  0.09571  0.39707  1.0000
  H   H780      1.0  0.32571  0.28153  0.03473  1.0000
  C   C447      1.0  0.37162  0.12675  0.05123  1.0000
  C   C448      1.0  0.26850  0.10302  0.48538  1.0000
  H   H781      1.0  0.47534  0.27357  0.43407  1.0000
  H   H782      1.0  0.32354  0.09806  0.45750  1.0000
  H   H783      1.0  0.32456  0.12590  0.32346  1.0000
  C   C449      1.0  0.34565  0.14046  0.07277  1.0000
  N   N34       1.0  0.31543  0.11032  0.37032  1.0000
  H   H784      1.0  0.36913  0.14311  0.10204  1.0000
  H   H785      1.0  0.34322  0.30380  0.29946  1.0000
  C   C450      1.0  0.29954  0.11989  0.38054  1.0000
  C   C451      1.0  0.37920  0.11998  0.12438  1.0000
  H   H786      1.0  0.34503  0.28698  0.21679  1.0000
  N   N35       1.0  0.35873  0.12753  0.08318  1.0000
  N   N36       1.0  0.25932  0.15828  0.24743  1.0000
  H   H787      1.0  0.48050  0.23947  0.47239  1.0000
  H   H788      1.0  0.43819  0.27899  0.39115  1.0000
  H   H789      1.0  0.46100  0.23908  0.19674  1.0000
  C   C452      1.0  0.42846  0.26352  0.43621  1.0000
  C   C453      1.0  0.29321  0.13230  0.35053  1.0000
  H   H790      1.0  0.35636  0.13361  0.13546  1.0000
  H   H791      1.0  0.32275  0.15332  0.09058  1.0000
  C   C454      1.0  0.43658  0.27552  0.41965  1.0000
  C   C455      1.0  0.29261  0.07733  0.48312  1.0000
  H   H792      1.0  0.31593  0.08910  0.40966  1.0000
  C   C456      1.0  0.34504  0.10798  0.13288  1.0000
  H   H793      1.0  0.37349  0.29218  0.24017  1.0000
  H   H794      1.0  0.26167  0.26541  0.12982  1.0000
  C   C457      1.0  0.26478  0.15570  0.20958  1.0000
  H   H795      1.0  0.30414  0.09353  0.35823  1.0000
  H   H796      1.0  0.30023  0.14161  0.34140  1.0000
  C   C458      1.0  0.24414  0.03977  0.20466  1.0000
  H   H797      1.0  0.45656  0.21826  0.26629  1.0000
  S   S132      1.0  0.44504  0.23576  0.33000  1.0000
  C   C459      1.0  0.33075  0.14268  0.10073  1.0000
  C   C460      1.0  0.27292  0.16148  0.25995  1.0000
  C   C461      1.0  0.30026  0.23332  0.07503  1.0000
  H   H798      1.0  0.30020  0.26380  0.07716  1.0000
  H   H799      1.0  0.32093  0.22813  0.03645  1.0000
  C   C462      1.0  0.33425  0.25267  0.01936  1.0000
  C   C463      1.0  0.31659  0.23623  0.05596  1.0000
  H   H800      1.0  0.36932  0.27985  0.19178  1.0000
  C   C464      1.0  0.48672  0.20805  0.20066  1.0000
  C   C465      1.0  0.39401  0.29572  0.45078  1.0000
  C   C466      1.0  0.27214  0.31286  0.03757  1.0000
  H   H801      1.0  0.27165  0.27812  0.01585  1.0000
  H   H802      1.0  0.34809  0.30843  0.16970  1.0000
  H   H803      1.0  0.36585  0.29602  0.42861  1.0000
  C   C467      1.0  0.37524  0.28994  0.18610  1.0000
  C   C468      1.0  0.32584  0.30003  0.24647  1.0000
  C   C469      1.0  0.47379  0.25131  0.46529  1.0000
  H   H804      1.0  0.47962  0.18360  0.24848  1.0000
  C   C470      1.0  0.47850  0.20739  0.28278  1.0000
  C   C471      1.0  0.34667  0.24829  0.04344  1.0000
  C   C472      1.0  0.47684  0.25731  0.38213  1.0000
  H   H805      1.0  0.24277  0.26301  0.12763  1.0000
  C   C473      1.0  0.48326  0.26208  0.43721  1.0000
  H   H806      1.0  0.32013  0.30164  0.22301  1.0000
  H   H807      1.0  0.48127  0.25884  0.35305  1.0000
  H   H808      1.0  0.47488  0.19630  0.29687  1.0000
  C   C474      1.0  0.35253  0.31054  0.28656  1.0000
  C   C475      1.0  0.37100  0.30674  0.42105  1.0000
  H   H809      1.0  0.41685  0.30864  0.36696  1.0000
  C   C476      1.0  0.37006  0.29989  0.21570  1.0000
  H   H810      1.0  0.47641  0.21496  0.30302  1.0000
  C   C477      1.0  0.46909  0.24280  0.39105  1.0000
  Fe  Fe64      1.0  0.27721  0.30980  0.12874  1.0000
  H   H811      1.0  0.25915  0.11302  0.48603  1.0000
  H   H812      1.0  0.42931  0.30703  0.28614  1.0000
  C   C478      1.0  0.40733  0.31198  0.26827  1.0000
  H   H813      1.0  0.36715  0.31283  0.39561  1.0000
  H   H814      1.0  0.32249  0.31094  0.25738  1.0000
  H   H815      1.0  0.47330  0.23569  0.36967  1.0000
  H   H816      1.0  0.37756  0.30885  0.20931  1.0000
  H   H817      1.0  0.39178  0.30459  0.46820  1.0000
  H   H818      1.0  0.33587  0.26409  0.00295  1.0000
  H   H819      1.0  0.33746  0.24447  0.00004  1.0000
  H   H820      1.0  0.30936  0.28221  0.99188  1.0000
  H   H821      1.0  0.37796  0.12177  0.99746  1.0000
  H   H822      1.0  0.23767  0.29049  0.06539  1.0000
  Fe  Fe65      1.0  0.28066  0.31386  0.20265  1.0000
  H   H823      1.0  0.47030  0.25628  0.49015  1.0000
  H   H824      1.0  0.24109  0.21494  0.78013  1.0000
  H   H825      1.0  0.37765  0.13711  0.76759  1.0000
  H   H826      1.0  0.27847  0.13193  0.73373  1.0000
  C   C479      1.0  0.24744  0.15684  0.71178  1.0000
  Fe  Fe66      1.0  0.27649  0.07895  0.67944  1.0000
  S   S133      1.0  0.29514  0.08858  0.63663  1.0000
  S   S134      1.0  0.27629  0.05380  0.70622  1.0000
  Fe  Fe67      1.0  0.25495  0.10963  0.67777  1.0000
  S   S135      1.0  0.27124  0.12189  0.63548  1.0000
  H   H827      1.0  0.33205  0.18064  0.98014  1.0000
  Fe  Fe68      1.0  0.27523  0.10130  0.60829  1.0000
  S   S136      1.0  0.27060  0.10750  0.55121  1.0000
  Fe  Fe69      1.0  0.28996  0.10871  0.66680  1.0000
  S   S137      1.0  0.30634  0.12472  0.66967  1.0000
  S   S138      1.0  0.25736  0.09019  0.64878  1.0000
  S   S139      1.0  0.27298  0.09795  0.71143  1.0000
  Fe  Fe70      1.0  0.35032  0.17412  0.84993  1.0000
  S   S140      1.0  0.35664  0.19529  0.81179  1.0000
  S   S141      1.0  0.34198  0.17423  0.90934  1.0000
  Fe  Fe71      1.0  0.35067  0.15696  0.78869  1.0000
  S   S142      1.0  0.35756  0.17668  0.74626  1.0000
  S   S143      1.0  0.34567  0.13423  0.77957  1.0000
  Fe  Fe72      1.0  0.37391  0.17879  0.78054  1.0000
  S   S144      1.0  0.39847  0.18386  0.76112  1.0000
  Fe  Fe73      1.0  0.33994  0.19175  0.78041  1.0000
  S   S145      1.0  0.32344  0.21077  0.75288  1.0000
  S   S146      1.0  0.36875  0.15747  0.82087  1.0000
  S   S147      1.0  0.33196  0.17209  0.82062  1.0000
  C   C480      1.0  0.27826  0.03082  0.55992  1.0000
  H   H828      1.0  0.25076  0.16073  0.54633  1.0000
  S   S148      1.0  0.24204  0.27290  0.81992  1.0000
  C   C481      1.0  0.37668  0.16729  0.96732  1.0000
  Fe  Fe74      1.0  0.26025  0.28660  0.82383  1.0000
  S   S149      1.0  0.27850  0.29578  0.78066  1.0000
  C   C482      1.0  0.39587  0.16500  0.68087  1.0000
  Fe  Fe75      1.0  0.29498  0.28617  0.81897  1.0000
  S   S150      1.0  0.31939  0.27398  0.80267  1.0000
  H   H829      1.0  0.25453  0.05276  0.90958  1.0000
  H   H830      1.0  0.24473  0.16493  0.82119  1.0000
  S   S151      1.0  0.27748  0.27494  0.85992  1.0000
  H   H831      1.0  0.28240  0.22236  0.82665  1.0000
  H   H832      1.0  0.24860  0.04855  0.80351  1.0000
  S   S152      1.0  0.26954  0.29060  0.94344  1.0000
  N   N37       1.0  0.39287  0.13732  0.71652  1.0000
  C   C483      1.0  0.28765  0.21575  0.72019  1.0000
  H   H833      1.0  0.36951  0.11791  0.72477  1.0000
  H   H834      1.0  0.24080  0.04697  0.65996  1.0000
  H   H835      1.0  0.47055  0.30058  0.64475  1.0000
  N   N38       1.0  0.26748  0.23120  0.76481  1.0000
  C   C484      1.0  0.27765  0.03636  0.81409  1.0000
  H   H836      1.0  0.31194  0.31205  0.75820  1.0000
  H   H837      1.0  0.37571  0.27203  0.70394  1.0000
  H   H838      1.0  0.29795  0.22145  0.71075  1.0000
  C   C485      1.0  0.32407  0.31396  0.75429  1.0000
  H   H839      1.0  0.41184  0.12111  0.77034  1.0000
  H   H840      1.0  0.25117  0.02155  0.81742  1.0000
  C   C486      1.0  0.27120  0.23069  0.82903  1.0000
  C   C487      1.0  0.25454  0.23204  0.74504  1.0000
  H   H841      1.0  0.26605  0.13478  0.77479  1.0000
  C   C488      1.0  0.40080  0.12891  0.77879  1.0000
  H   H842      1.0  0.27340  0.24273  0.82493  1.0000
  C   C489      1.0  0.24644  0.14212  0.70689  1.0000
  H   H843      1.0  0.29976  0.15905  0.84185  1.0000
  H   H844      1.0  0.45817  0.30018  0.74413  1.0000
  C   C490      1.0  0.40354  0.19959  0.72742  1.0000
  C   C491      1.0  0.41668  0.20571  0.72761  1.0000
  C   C492      1.0  0.42140  0.21778  0.70043  1.0000
  H   H845      1.0  0.31240  0.14094  0.84583  1.0000
  H   H846      1.0  0.27701  0.05565  0.54256  1.0000
  C   C493      1.0  0.39519  0.20562  0.69960  1.0000
  H   H847      1.0  0.42329  0.20107  0.74888  1.0000
  H   H848      1.0  0.43150  0.22239  0.70099  1.0000
  H   H849      1.0  0.38510  0.20102  0.69894  1.0000
  C   C494      1.0  0.32117  0.22825  0.76820  1.0000
  C   C495      1.0  0.32499  0.22826  0.80096  1.0000
  C   C496      1.0  0.32400  0.24237  0.81206  1.0000
  C   C497      1.0  0.31884  0.25645  0.79077  1.0000
  C   C498      1.0  0.31444  0.25645  0.75858  1.0000
  C   C499      1.0  0.31577  0.24233  0.74713  1.0000
  H   H850      1.0  0.32863  0.21742  0.81790  1.0000
  H   H851      1.0  0.32727  0.24236  0.83711  1.0000
  H   H852      1.0  0.31052  0.26735  0.74203  1.0000
  H   H853      1.0  0.31285  0.24234  0.72173  1.0000
  H   H854      1.0  0.25807  0.23484  0.71589  1.0000
  H   H855      1.0  0.38011  0.14601  0.67235  1.0000
  H   H856      1.0  0.26535  0.25537  0.76886  1.0000
  H   H857      1.0  0.40201  0.13536  0.64465  1.0000
  Fe  Fe76      1.0  0.44597  0.27976  0.56125  1.0000
  H   H858      1.0  0.28390  0.24596  0.69834  1.0000
  H   H859      1.0  0.25692  0.13403  0.69934  1.0000
  H   H860      1.0  0.25863  0.16022  0.70688  1.0000
  C   C500      1.0  0.27349  0.24631  0.75502  1.0000
  H   H861      1.0  0.47807  0.27903  0.71979  1.0000
  C   C501      1.0  0.31735  0.12687  0.70062  1.0000
  C   C502      1.0  0.31993  0.11566  0.73072  1.0000
  C   C503      1.0  0.32884  0.11798  0.75421  1.0000
  C   C504      1.0  0.33489  0.13171  0.74856  1.0000
  C   C505      1.0  0.33219  0.14298  0.71866  1.0000
  C   C506      1.0  0.32367  0.14046  0.69465  1.0000
  H   H862      1.0  0.31525  0.10511  0.73562  1.0000
  H   H863      1.0  0.33090  0.10914  0.77718  1.0000
  H   H864      1.0  0.33679  0.15357  0.71379  1.0000
  H   H865      1.0  0.32177  0.14921  0.67144  1.0000
  H   H866      1.0  0.25645  0.17778  0.79240  1.0000
  H   H867      1.0  0.32035  0.26880  0.96261  1.0000
  H   H868      1.0  0.45140  0.31028  0.65413  1.0000
  H   H869      1.0  0.30796  0.14032  0.79031  1.0000
  H   H870      1.0  0.28461  0.24489  0.76458  1.0000
  H   H871      1.0  0.24973  0.23784  0.80903  1.0000
  C   C507      1.0  0.41169  0.13021  0.65939  1.0000
  C   C508      1.0  0.35266  0.17328  0.94339  1.0000
  C   C509      1.0  0.36882  0.16852  0.93894  1.0000
  H   H872      1.0  0.40183  0.16043  0.65649  1.0000
  H   H873      1.0  0.37523  0.16559  0.91379  1.0000
  H   H874      1.0  0.40927  0.15132  0.72000  1.0000
  C   C510      1.0  0.27631  0.09755  0.51448  1.0000
  H   H875      1.0  0.25981  0.00450  0.89003  1.0000
  H   H876      1.0  0.29472  0.08048  0.53508  1.0000
  H   H877      1.0  0.42034  0.13802  0.65257  1.0000
  H   H878      1.0  0.27319  0.03793  0.62855  1.0000
  H   H879      1.0  0.36858  0.14677  0.71446  1.0000
  C   C511      1.0  0.26886  0.04760  0.55612  1.0000
  C   C512      1.0  0.25795  0.04836  0.72405  1.0000
  C   C513      1.0  0.25716  0.03275  0.73887  1.0000
  C   C514      1.0  0.28450  0.05753  0.60530  1.0000
  H   H880      1.0  0.24964  0.15934  0.60281  1.0000
  H   H881      1.0  0.26776  0.02415  0.73911  1.0000
  H   H882      1.0  0.24221  0.01611  0.76440  1.0000
  H   H883      1.0  0.26514  0.22816  0.85692  1.0000
  Fe  Fe77      1.0  0.46520  0.26869  0.62023  1.0000
  C   C515      1.0  0.40020  0.21729  0.67188  1.0000
  H   H884      1.0  0.41717  0.11924  0.64917  1.0000
  H   H885      1.0  0.43048  0.26353  0.52236  1.0000
  H   H886      1.0  0.29156  0.20321  0.71872  1.0000
  C   C516      1.0  0.26027  0.00594  0.86106  1.0000
  H   H887      1.0  0.28660  0.02859  0.57841  1.0000
  H   H888      1.0  0.27953  0.22010  0.70119  1.0000
  H   H889      1.0  0.28993  0.03092  0.81593  1.0000
  H   H890      1.0  0.25310  0.16116  0.77777  1.0000
  H   H891      1.0  0.28167  0.26404  0.71250  1.0000
  C   C517      1.0  0.41325  0.22353  0.67217  1.0000
  H   H892      1.0  0.39612  0.12374  0.80637  1.0000
  C   C518      1.0  0.30949  0.27158  0.98174  1.0000
  H   H893      1.0  0.26494  0.25830  0.70562  1.0000
  C   C519      1.0  0.28047  0.21757  0.75894  1.0000
  Fe  Fe78      1.0  0.27223  0.29703  0.88267  1.0000
  H   H894      1.0  0.41698  0.12585  0.71141  1.0000
  N   N39       1.0  0.25118  0.03574  0.85610  1.0000
  C   C520      1.0  0.46356  0.31134  0.65388  1.0000
  H   H895      1.0  0.30745  0.18353  0.75758  1.0000
  H   H896      1.0  0.38259  0.11670  0.68264  1.0000
  C   C521      1.0  0.38863  0.13025  0.75513  1.0000
  H   H897      1.0  0.31455  0.16378  0.77456  1.0000
  H   H898      1.0  0.26149  0.07668  0.57024  1.0000
  Fe  Fe79      1.0  0.43349  0.28962  0.63342  1.0000
  S   S153      1.0  0.45727  0.25596  0.58521  1.0000
  H   H899      1.0  0.29992  0.27439  0.96615  1.0000
  C   C522      1.0  0.35506  0.31238  0.70044  1.0000
  H   H900      1.0  0.38916  0.16344  0.96368  1.0000
  H   H901      1.0  0.28589  0.12404  0.77362  1.0000
  H   H902      1.0  0.35535  0.30402  0.72580  1.0000
  H   H903      1.0  0.30696  0.16891  0.73347  1.0000
  H   H904      1.0  0.29217  0.14213  0.86654  1.0000
  C   C523      1.0  0.24082  0.07394  0.55571  1.0000
  H   H905      1.0  0.27246  0.00564  0.84717  1.0000
  C   C524      1.0  0.38613  0.26277  0.70230  1.0000
  H   H906      1.0  0.25200  0.18047  0.62654  1.0000
  C   C525      1.0  0.24271  0.02817  0.75329  1.0000
  H   H907      1.0  0.29029  0.21805  0.77157  1.0000
  H   H908      1.0  0.25258  0.03042  0.61322  1.0000
  C   C526      1.0  0.26803  0.03681  0.85184  1.0000
  H   H909      1.0  0.39233  0.27742  0.49707  1.0000
  C   C527      1.0  0.37864  0.13947  0.69987  1.0000
  C   C528      1.0  0.28841  0.08464  0.51322  1.0000
  H   H910      1.0  0.26117  0.04834  0.53675  1.0000
  H   H911      1.0  0.38968  0.15875  0.73680  1.0000
  C   C529      1.0  0.27098  0.29964  0.97860  1.0000
  C   C530      1.0  0.46634  0.28219  0.71242  1.0000
  H   H912      1.0  0.25726  0.21756  0.81364  1.0000
  H   H913      1.0  0.24666  0.07203  0.52860  1.0000
  C   C531      1.0  0.37343  0.12440  0.69807  1.0000
  H   H914      1.0  0.27406  0.02780  0.87127  1.0000
  H   H915      1.0  0.40139  0.17479  0.68198  1.0000
  C   C532      1.0  0.25531  0.16539  0.80044  1.0000
  C   C533      1.0  0.34454  0.17696  0.97641  1.0000
  S   S154      1.0  0.45524  0.29245  0.59357  1.0000
  H   H916      1.0  0.36324  0.12752  0.68430  1.0000
  C   C534      1.0  0.24942  0.02084  0.84654  1.0000
  H   H917      1.0  0.28519  0.02889  0.53356  1.0000
  H   H918      1.0  0.24503  0.24180  0.75135  1.0000
  C   C535      1.0  0.26064  0.22916  0.80397  1.0000
  H   H919      1.0  0.33165  0.30233  0.75652  1.0000
  S   S155      1.0  0.41941  0.30676  0.66842  1.0000
  S   S156      1.0  0.44386  0.26648  0.66267  1.0000
  H   H920      1.0  0.27692  0.20640  0.77298  1.0000
  C   C536      1.0  0.39717  0.15286  0.71509  1.0000
  H   H921      1.0  0.26910  0.04795  0.85845  1.0000
  C   C537      1.0  0.24413  0.05933  0.72360  1.0000
  H   H922      1.0  0.27725  0.04828  0.79819  1.0000
  H   H923      1.0  0.39387  0.22158  0.65005  1.0000
  Fe  Fe80      1.0  0.43495  0.25601  0.62544  1.0000
  H   H924      1.0  0.40311  0.14042  0.78017  1.0000
  S   S157      1.0  0.41854  0.23854  0.63672  1.0000
  C   C538      1.0  0.40650  0.12638  0.69993  1.0000
  H   H925      1.0  0.38629  0.11831  0.75809  1.0000
  H   H926      1.0  0.38809  0.25853  0.67673  1.0000
  C   C539      1.0  0.24283  0.05084  0.90873  1.0000
  H   H927      1.0  0.45919  0.27415  0.73080  1.0000
  H   H928      1.0  0.27374  0.02926  0.79906  1.0000
  C   C540      1.0  0.27610  0.25382  0.71547  1.0000
  H   H929      1.0  0.38352  0.17003  0.67887  1.0000
  H   H930      1.0  0.39624  0.26836  0.70052  1.0000
  H   H931      1.0  0.44621  0.30024  0.71325  1.0000
  S   S158      1.0  0.42328  0.27925  0.59868  1.0000
  N   N40       1.0  0.37072  0.24606  0.75536  1.0000
  C   C541      1.0  0.37248  0.22926  0.77366  1.0000
  C   C542      1.0  0.35822  0.24879  0.73316  1.0000
  C   C543      1.0  0.36533  0.25589  0.78410  1.0000
  C   C544      1.0  0.38624  0.24893  0.73375  1.0000
  C   C545      1.0  0.38421  0.22391  0.79952  1.0000
  C   C546      1.0  0.36129  0.23854  0.70447  1.0000
  C   C547      1.0  0.36163  0.27361  0.77199  1.0000
  H   H932      1.0  0.36103  0.22670  0.78875  1.0000
  H   H933      1.0  0.37636  0.22127  0.75405  1.0000
  H   H934      1.0  0.35567  0.26098  0.71955  1.0000
  H   H935      1.0  0.34708  0.24677  0.75050  1.0000
  H   H936      1.0  0.35466  0.25251  0.80194  1.0000
  H   H937      1.0  0.37423  0.25394  0.80124  1.0000
  H   H938      1.0  0.39392  0.25048  0.75113  1.0000
  H   H939      1.0  0.39237  0.23848  0.72204  1.0000
  H   H940      1.0  0.38569  0.21106  0.80775  1.0000
  H   H941      1.0  0.39589  0.22646  0.78701  1.0000
  H   H942      1.0  0.37993  0.22888  0.82421  1.0000
  H   H943      1.0  0.35252  0.24311  0.68676  1.0000
  H   H944      1.0  0.37291  0.23860  0.68777  1.0000
  H   H945      1.0  0.35986  0.22641  0.71629  1.0000
  H   H946      1.0  0.35232  0.27719  0.75573  1.0000
  H   H947      1.0  0.37222  0.27827  0.75826  1.0000
  H   H948      1.0  0.35710  0.27915  0.79592  1.0000
  H   H949      1.0  0.40460  0.11414  0.70687  1.0000
  N   N41       1.0  0.46600  0.31173  0.69055  1.0000
  C   C548      1.0  0.45853  0.29913  0.71610  1.0000
  N   N42       1.0  0.28480  0.15449  0.79064  1.0000
  C   C549      1.0  0.28409  0.14951  0.75672  1.0000
  C   C550      1.0  0.28886  0.17052  0.78120  1.0000
  C   C551      1.0  0.26946  0.15512  0.81567  1.0000
  C   C552      1.0  0.29683  0.14279  0.80876  1.0000
  C   C553      1.0  0.27823  0.13419  0.76069  1.0000
  C   C554      1.0  0.30542  0.17150  0.76058  1.0000
  S   S159      1.0  0.29116  0.30748  0.84323  1.0000
  C   C555      1.0  0.30026  0.14654  0.84271  1.0000
  H   H950      1.0  0.27681  0.15876  0.74034  1.0000
  H   H951      1.0  0.29578  0.14798  0.73986  1.0000
  H   H952      1.0  0.28706  0.17598  0.80508  1.0000
  H   H953      1.0  0.28087  0.17852  0.76422  1.0000
  H   H954      1.0  0.26676  0.14324  0.82579  1.0000
  H   H955      1.0  0.27002  0.15956  0.83975  1.0000
  H   H956      1.0  0.29327  0.13125  0.81696  1.0000
  H   H957      1.0  0.25650  0.99566  0.85631  1.0000
  H   H958      1.0  0.24450  0.07141  0.71278  1.0000
  C   C556      1.0  0.24718  0.04274  0.60455  1.0000
  C   C557      1.0  0.26962  0.05047  0.61758  1.0000
  H   H959      1.0  0.37704  0.30375  0.66803  1.0000
  C   C558      1.0  0.48310  0.30819  0.69273  1.0000
  H   H960      1.0  0.23757  0.14078  0.55368  1.0000
  H   H961      1.0  0.46712  0.27990  0.68539  1.0000
  S   S160      1.0  0.44867  0.28816  0.50182  1.0000
  H   H962      1.0  0.24066  0.04238  0.58363  1.0000
  H   H963      1.0  0.29060  0.05557  0.62820  1.0000
  H   H964      1.0  0.35059  0.30629  0.68386  1.0000
  C   C559      1.0  0.25236  0.06958  0.58191  1.0000
  H   H965      1.0  0.24730  0.28303  0.74224  1.0000
  H   H966      1.0  0.26301  0.05579  0.64084  1.0000
  C   C560      1.0  0.24032  0.18122  0.62022  1.0000
  H   H967      1.0  0.24633  0.07406  0.60659  1.0000
  N   N43       1.0  0.25951  0.05259  0.59000  1.0000
  C   C561      1.0  0.24729  0.21734  0.75243  1.0000
  H   H968      1.0  0.24829  0.13714  0.59004  1.0000
  H   H969      1.0  0.28190  0.07025  0.59602  1.0000
  H   H970      1.0  0.24978  0.02616  0.91221  1.0000
  H   H971      1.0  0.29279  0.05197  0.58428  1.0000
  C   C562      1.0  0.43213  0.26697  0.49378  1.0000
  H   H972      1.0  0.27055  0.02210  0.56826  1.0000
  H   H973      1.0  0.25599  0.20697  0.74586  1.0000
  C   C563      1.0  0.37224  0.31308  0.68424  1.0000
  C   C564      1.0  0.24356  0.04935  0.83178  1.0000
  S   S161      1.0  0.25377  0.30816  0.84888  1.0000
  H   H974      1.0  0.24599  0.06050  0.83547  1.0000
  H   H975      1.0  0.23841  0.21927  0.73520  1.0000
  H   H976      1.0  0.37935  0.31118  0.70532  1.0000
  H   H977      1.0  0.24762  0.18178  0.53781  1.0000
  C   C565      1.0  0.24363  0.03588  0.89439  1.0000
  H   H978      1.0  0.48474  0.30440  0.72094  1.0000
  C   C566      1.0  0.24247  0.17147  0.53880  1.0000
  H   H979      1.0  0.24131  0.17173  0.51099  1.0000
  H   H980      1.0  0.23920  0.18982  0.59552  1.0000
  C   C567      1.0  0.23828  0.27611  0.74951  1.0000
  C   C568      1.0  0.23840  0.16491  0.61685  1.0000
  H   H981      1.0  0.25646  0.31265  0.73081  1.0000
  H   H982      1.0  0.23732  0.01874  0.85609  1.0000
  H   H983      1.0  0.23730  0.15791  0.64404  1.0000
  C   C569      1.0  0.23697  0.13740  0.58281  1.0000
  H   H984      1.0  0.31797  0.63888  0.09856  1.0000
  C   C570      1.0  0.28393  0.60874  0.01643  1.0000
  S   S162      1.0  0.25965  0.61814  0.26774  1.0000
  H   H985      1.0  0.34373  0.63073  0.11028  1.0000
  C   C571      1.0  0.38558  0.35557  0.43449  1.0000
  S   S163      1.0  0.25731  0.60915  0.19151  1.0000
  Fe  Fe81      1.0  0.24471  0.62702  0.22580  1.0000
  C   C572      1.0  0.28364  0.58139  0.37978  1.0000
  Fe  Fe82      1.0  0.27360  0.60173  0.23152  1.0000
  S   S164      1.0  0.28174  0.57669  0.25635  1.0000
  H   H986      1.0  0.28945  0.55796  0.34228  1.0000
  S   S165      1.0  0.28975  0.61788  0.20222  1.0000
  C   C573      1.0  0.33415  0.44834  0.48794  1.0000
  Fe  Fe83      1.0  0.44886  0.62110  0.42732  1.0000
  H   H987      1.0  0.30407  0.53336  0.39983  1.0000
  Fe  Fe84      1.0  0.45283  0.62270  0.34776  1.0000
  S   S166      1.0  0.46554  0.59788  0.35032  1.0000
  H   H988      1.0  0.27104  0.59918  0.34341  1.0000
  Fe  Fe85      1.0  0.44713  0.59275  0.39814  1.0000
  S   S167      1.0  0.43154  0.57486  0.41940  1.0000
  S   S168      1.0  0.43371  0.61723  0.39266  1.0000
  S   S169      1.0  0.46694  0.62904  0.38199  1.0000
  Fe  Fe86      1.0  0.34320  0.36816  0.37914  1.0000
  S   S170      1.0  0.36185  0.38251  0.36454  1.0000
  S   S171      1.0  0.33799  0.35734  0.43685  1.0000
  Fe  Fe87      1.0  0.34083  0.36895  0.30183  1.0000
  S   S172      1.0  0.35961  0.38342  0.28207  1.0000
  S   S173      1.0  0.33357  0.36186  0.25584  1.0000
  Fe  Fe88      1.0  0.37201  0.36725  0.32360  1.0000
  S   S174      1.0  0.43728  0.63202  0.47518  1.0000
  Fe  Fe89      1.0  0.34762  0.39743  0.32499  1.0000
  S   S175      1.0  0.34240  0.42407  0.31267  1.0000
  S   S176      1.0  0.35427  0.35193  0.34058  1.0000
  S   S177      1.0  0.32785  0.38402  0.34230  1.0000
  Fe  Fe90      1.0  0.35825  0.53180  0.32066  1.0000
  S   S178      1.0  0.37955  0.51287  0.31626  1.0000
  S   S179      1.0  0.35205  0.55070  0.27449  1.0000
  Fe  Fe91      1.0  0.35376  0.52594  0.40081  1.0000
  S   S180      1.0  0.37484  0.50707  0.40285  1.0000
  H   H989      1.0  0.48501  0.59906  0.47526  1.0000
  Fe  Fe92      1.0  0.38656  0.52277  0.35733  1.0000
  S   S181      1.0  0.41130  0.52709  0.34750  1.0000
  Fe  Fe93      1.0  0.36603  0.49849  0.36202  1.0000
  S   S182      1.0  0.36777  0.47200  0.37596  1.0000
  S   S183      1.0  0.36618  0.54236  0.35902  1.0000
  S   S184      1.0  0.34405  0.51672  0.36301  1.0000
  H   H990      1.0  0.29616  0.53034  0.36441  1.0000
  H   H991      1.0  0.30621  0.56884  0.46297  1.0000
  H   H992      1.0  0.34409  0.60033  0.19490  1.0000
  H   H993      1.0  0.31785  0.62049  0.12708  1.0000
  H   H994      1.0  0.29167  0.58347  0.44422  1.0000
  H   H995      1.0  0.31177  0.58354  0.35807  1.0000
  H   H996      1.0  0.40717  0.36441  0.46235  1.0000
  H   H997      1.0  0.27815  0.58987  0.05826  1.0000
  H   H998      1.0  0.32041  0.62930  0.25449  1.0000
  C   C574      1.0  0.43185  0.63972  0.27916  1.0000
  C   C575      1.0  0.39029  0.33614  0.28107  1.0000
  C   C576      1.0  0.39488  0.31746  0.40094  1.0000
  C   C577      1.0  0.34965  0.43726  0.33033  1.0000
  C   C578      1.0  0.35980  0.43208  0.35478  1.0000
  C   C579      1.0  0.36530  0.44290  0.36810  1.0000
  C   C580      1.0  0.36075  0.45902  0.35720  1.0000
  C   C581      1.0  0.35059  0.46422  0.33274  1.0000
  C   C582      1.0  0.34507  0.45339  0.31944  1.0000
  H   H999      1.0  0.36349  0.41974  0.36309  1.0000
  H   H1000     1.0  0.37329  0.43878  0.38661  1.0000
  H   H1001     1.0  0.34696  0.47657  0.32407  1.0000
  H   H1002     1.0  0.33724  0.45755  0.30050  1.0000
  C   C583      1.0  0.42582  0.56258  0.39684  1.0000
  C   C584      1.0  0.43556  0.55652  0.36808  1.0000
  C   C585      1.0  0.43102  0.54554  0.35335  1.0000
  C   C586      1.0  0.41654  0.54097  0.36645  1.0000
  C   C587      1.0  0.40664  0.54741  0.39445  1.0000
  C   C588      1.0  0.41138  0.55799  0.40989  1.0000
  H   H1003     1.0  0.44681  0.55980  0.35816  1.0000
  H   H1004     1.0  0.43879  0.54051  0.33182  1.0000
  H   H1005     1.0  0.39550  0.54396  0.40466  1.0000
  H   H1006     1.0  0.40387  0.56269  0.43212  1.0000
  H   H1007     1.0  0.27948  0.55276  0.38614  1.0000
  C   C589      1.0  0.42080  0.63049  0.29639  1.0000
  H   H1008     1.0  0.25329  0.60810  0.02040  1.0000
  S   S185      1.0  0.38757  0.64378  0.23418  1.0000
  H   H1009     1.0  0.42266  0.62241  0.32057  1.0000
  H   H1010     1.0  0.32403  0.42695  0.25801  1.0000
  C   C590      1.0  0.30140  0.56964  0.26061  1.0000
  C   C591      1.0  0.31239  0.57939  0.25064  1.0000
  C   C592      1.0  0.32791  0.57341  0.25491  1.0000
  C   C593      1.0  0.33248  0.55776  0.26981  1.0000
  C   C594      1.0  0.32149  0.54804  0.28008  1.0000
  C   C595      1.0  0.30604  0.55395  0.27522  1.0000
  H   H1011     1.0  0.30893  0.59149  0.23963  1.0000
  H   H1012     1.0  0.33639  0.58092  0.24700  1.0000
  H   H1013     1.0  0.32500  0.53589  0.29093  1.0000
  H   H1014     1.0  0.29763  0.54631  0.28268  1.0000
  C   C596      1.0  0.28221  0.62487  0.07219  1.0000
  H   H1015     1.0  0.28740  0.55866  0.43701  1.0000
  C   C597      1.0  0.33002  0.62342  0.23601  1.0000
  H   H1016     1.0  0.35208  0.33484  0.14383  1.0000
  H   H1017     1.0  0.38291  0.51068  0.48128  1.0000
  C   C598      1.0  0.41841  0.31507  0.28479  1.0000
  H   H1018     1.0  0.39863  0.62490  0.29616  1.0000
  H   H1019     1.0  0.40001  0.59673  0.32590  1.0000
  H   H1020     1.0  0.23843  0.60440  0.07933  1.0000
  C   C599      1.0  0.33299  0.38680  0.45153  1.0000
  C   C600      1.0  0.39343  0.32269  0.26583  1.0000
  H   H1021     1.0  0.36935  0.32479  0.16036  1.0000
  C   C601      1.0  0.40726  0.63181  0.28236  1.0000
  H   H1022     1.0  0.29730  0.41346  0.30794  1.0000
  C   C602      1.0  0.31726  0.41748  0.26559  1.0000
  C   C603      1.0  0.36394  0.54299  0.45822  1.0000
  C   C604      1.0  0.28671  0.62396  0.00869  1.0000
  C   C605      1.0  0.37551  0.39476  0.46818  1.0000
  C   C606      1.0  0.30703  0.34884  0.28350  1.0000
  C   C607      1.0  0.31816  0.35277  0.25384  1.0000
  H   H1023     1.0  0.38084  0.34774  0.45834  1.0000
  C   C608      1.0  0.24145  0.61532  0.02405  1.0000
  H   H1024     1.0  0.28648  0.33860  0.30325  1.0000
  H   H1025     1.0  0.30749  0.35156  0.30882  1.0000
  H   H1026     1.0  0.29349  0.40397  0.26181  1.0000
  H   H1027     1.0  0.34394  0.47434  0.44023  1.0000
  H   H1028     1.0  0.48170  0.62394  0.30028  1.0000
  H   H1029     1.0  0.33930  0.32598  0.24910  1.0000
  H   H1030     1.0  0.33505  0.56055  0.34166  1.0000
  H   H1031     1.0  0.28895  0.58942  0.32148  1.0000
  H   H1032     1.0  0.33202  0.56741  0.38199  1.0000
  C   C609      1.0  0.28032  0.60165  0.05207  1.0000
  C   C610      1.0  0.32672  0.56144  0.36686  1.0000
  C   C611      1.0  0.31917  0.63260  0.12584  1.0000
  H   H1033     1.0  0.40691  0.49458  0.45486  1.0000
  H   H1034     1.0  0.41230  0.59685  0.46425  1.0000
  H   H1035     1.0  0.33250  0.39086  0.42364  1.0000
  C   C612      1.0  0.29450  0.33760  0.24769  1.0000
  C   C613      1.0  0.29107  0.55455  0.37043  1.0000
  H   H1036     1.0  0.38244  0.58833  0.37831  1.0000
  S   S186      1.0  0.25863  0.64500  0.19573  1.0000
  C   C614      1.0  0.30570  0.34148  0.21813  1.0000
  S   S187      1.0  0.39710  0.35538  0.31940  1.0000
  N   N44       1.0  0.29643  0.56718  0.38210  1.0000
  H   H1037     1.0  0.41874  0.50436  0.47187  1.0000
  H   H1038     1.0  0.36314  0.45239  0.44792  1.0000
  C   C615      1.0  0.35081  0.31820  0.24808  1.0000
  C   C616      1.0  0.37290  0.54787  0.47739  1.0000
  H   H1039     1.0  0.41578  0.32705  0.37865  1.0000
  H   H1040     1.0  0.37277  0.41826  0.43823  1.0000
  C   C617      1.0  0.33814  0.60730  0.17284  1.0000
  S   S188      1.0  0.27095  0.32184  0.07471  1.0000
  C   C618      1.0  0.34461  0.59904  0.14033  1.0000
  C   C619      1.0  0.34779  0.31630  0.18845  1.0000
  H   H1041     1.0  0.32574  0.60596  0.18140  1.0000
  Fe  Fe94      1.0  0.47839  0.60387  0.38802  1.0000
  S   S189      1.0  0.27923  0.32854  0.24463  1.0000
  S   S190      1.0  0.44887  0.63870  0.29605  1.0000
  Fe  Fe95      1.0  0.27267  0.62660  0.16466  1.0000
  H   H1042     1.0  0.36784  0.62639  0.11533  1.0000
  H   H1043     1.0  0.35302  0.58825  0.14782  1.0000
  H   H1044     1.0  0.35061  0.60594  0.11674  1.0000
  H   H1045     1.0  0.33508  0.59523  0.13230  1.0000
  C   C620      1.0  0.33025  0.40470  0.21460  1.0000
  C   C621      1.0  0.30626  0.42478  0.20908  1.0000
  C   C622      1.0  0.34270  0.41498  0.20105  1.0000
  C   C623      1.0  0.31020  0.44120  0.20362  1.0000
  H   H1046     1.0  0.33551  0.39420  0.23208  1.0000
  H   H1047     1.0  0.32886  0.40059  0.19083  1.0000
  H   H1048     1.0  0.30804  0.42150  0.18241  1.0000
  H   H1049     1.0  0.29399  0.38311  0.23254  1.0000
  H   H1050     1.0  0.34552  0.41966  0.22244  1.0000
  H   H1051     1.0  0.33948  0.42441  0.17900  1.0000
  H   H1052     1.0  0.35367  0.40769  0.18993  1.0000
  H   H1053     1.0  0.30919  0.44718  0.17603  1.0000
  H   H1054     1.0  0.32200  0.44153  0.20723  1.0000
  H   H1055     1.0  0.30149  0.44849  0.22100  1.0000
  N   N45       1.0  0.39930  0.58058  0.29227  1.0000
  C   C624      1.0  0.41639  0.57541  0.27859  1.0000
  C   C625      1.0  0.39138  0.56703  0.29527  1.0000
  C   C626      1.0  0.39325  0.59448  0.26628  1.0000
  C   C627      1.0  0.39266  0.56092  0.26063  1.0000
  C   C628      1.0  0.38225  0.58366  0.35434  1.0000
  C   C629      1.0  0.37580  0.60146  0.27393  1.0000
  H   H1056     1.0  0.42084  0.56378  0.29358  1.0000
  H   H1057     1.0  0.41838  0.57391  0.25039  1.0000
  H   H1058     1.0  0.37879  0.56969  0.30605  1.0000
  H   H1059     1.0  0.39614  0.55705  0.31473  1.0000
  H   H1060     1.0  0.39623  0.59217  0.23857  1.0000
  H   H1061     1.0  0.38606  0.55127  0.26649  1.0000
  H   H1062     1.0  0.38746  0.56997  0.24021  1.0000
  H   H1063     1.0  0.40481  0.55589  0.24999  1.0000
  H   H1064     1.0  0.37199  0.59041  0.34304  1.0000
  H   H1065     1.0  0.37348  0.60974  0.29274  1.0000
  H   H1066     1.0  0.36831  0.59263  0.28376  1.0000
  H   H1067     1.0  0.37210  0.60792  0.24868  1.0000
  C   C630      1.0  0.31731  0.34920  0.22112  1.0000
  C   C631      1.0  0.32817  0.63129  0.19763  1.0000
  H   H1068     1.0  0.35023  0.31934  0.44994  1.0000
  H   H1069     1.0  0.31072  0.39009  0.26743  1.0000
  C   C632      1.0  0.35681  0.32929  0.16847  1.0000
  H   H1070     1.0  0.31599  0.63138  0.19598  1.0000
  H   H1071     1.0  0.30519  0.33882  0.19278  1.0000
  H   H1072     1.0  0.29350  0.42625  0.21917  1.0000
  N   N46       1.0  0.33935  0.62419  0.16807  1.0000
  H   H1073     1.0  0.29642  0.39965  0.19851  1.0000
  C   C633      1.0  0.28594  0.63195  0.03653  1.0000
  H   H1074     1.0  0.24268  0.62610  0.03207  1.0000
  H   H1075     1.0  0.30736  0.55172  0.42479  1.0000
  H   H1076     1.0  0.33493  0.45458  0.42968  1.0000
  H   H1077     1.0  0.42441  0.59808  0.26403  1.0000
  H   H1078     1.0  0.43938  0.58133  0.26874  1.0000
  H   H1079     1.0  0.40672  0.57693  0.34303  1.0000
  H   H1080     1.0  0.37998  0.43241  0.48034  1.0000
  H   H1081     1.0  0.31149  0.58037  0.42056  1.0000
  H   H1082     1.0  0.42412  0.33119  0.31162  1.0000
  H   H1083     1.0  0.36711  0.37543  0.43836  1.0000
  H   H1084     1.0  0.32576  0.35235  0.19791  1.0000
  H   H1085     1.0  0.30928  0.63831  0.14372  1.0000
  H   H1086     1.0  0.36848  0.54159  0.43107  1.0000
  H   H1087     1.0  0.39202  0.32518  0.42100  1.0000
  C   C634      1.0  0.42730  0.58637  0.28005  1.0000
  H   H1088     1.0  0.34304  0.49869  0.45708  1.0000
  H   H1089     1.0  0.34703  0.43616  0.44407  1.0000
  H   H1090     1.0  0.33200  0.63758  0.02559  1.0000
  C   C635      1.0  0.41266  0.31538  0.38892  1.0000
  C   C636      1.0  0.39775  0.58477  0.32844  1.0000
  H   H1091     1.0  0.38085  0.57136  0.36374  1.0000
  H   H1092     1.0  0.27292  0.57911  0.39899  1.0000
  C   C637      1.0  0.29824  0.56222  0.42057  1.0000
  S   S191      1.0  0.29650  0.31557  0.14966  1.0000
  S   S192      1.0  0.33842  0.53305  0.45042  1.0000
  H   H1093     1.0  0.40700  0.51474  0.43989  1.0000
  H   H1094     1.0  0.32635  0.54941  0.38079  1.0000
  H   H1095     1.0  0.38932  0.32442  0.37824  1.0000
  C   C638      1.0  0.33999  0.47465  0.46908  1.0000
  C   C639      1.0  0.40470  0.64232  0.25104  1.0000
  H   H1096     1.0  0.37944  0.34425  0.27939  1.0000
  H   H1097     1.0  0.38431  0.55015  0.46497  1.0000
  H   H1098     1.0  0.29361  0.43147  0.27672  1.0000
  H   H1099     1.0  0.35857  0.61948  0.19666  1.0000
  S   S193      1.0  0.46113  0.59633  0.43597  1.0000
  H   H1100     1.0  0.30556  0.42960  0.30929  1.0000
  C   C640      1.0  0.30184  0.53850  0.37263  1.0000
  H   H1101     1.0  0.38504  0.37937  0.41136  1.0000
  C   C641      1.0  0.33112  0.39756  0.47405  1.0000
  C   C642      1.0  0.29516  0.34144  0.28029  1.0000
  H   H1102     1.0  0.39844  0.35242  0.42882  1.0000
  H   H1103     1.0  0.34097  0.62478  0.24280  1.0000
  C   C643      1.0  0.31106  0.57128  0.35798  1.0000
  H   H1104     1.0  0.42751  0.58747  0.30762  1.0000
  C   C644      1.0  0.33523  0.37088  0.46517  1.0000
  H   H1105     1.0  0.32898  0.61100  0.24152  1.0000
  H   H1106     1.0  0.36900  0.46054  0.47884  1.0000
  C   C645      1.0  0.35537  0.62594  0.17093  1.0000
  S   S194      1.0  0.28149  0.63526  0.10632  1.0000
  C   C646      1.0  0.30518  0.39934  0.24754  1.0000
  H   H1107     1.0  0.35529  0.33860  0.18430  1.0000
  C   C647      1.0  0.27935  0.60970  0.07984  1.0000
  C   C648      1.0  0.40125  0.33913  0.29810  1.0000
  C   C649      1.0  0.27109  0.32217  0.00399  1.0000
  N   N47       1.0  0.31476  0.41200  0.23380  1.0000
  H   H1108     1.0  0.31275  0.38408  0.20701  1.0000
  C   C650      1.0  0.40743  0.50539  0.46367  1.0000
  C   C651      1.0  0.36900  0.62022  0.14258  1.0000
  C   C652      1.0  0.33265  0.64162  0.99661  1.0000
  H   H1109     1.0  0.33501  0.64624  0.13267  1.0000
  C   C653      1.0  0.33591  0.44417  0.45086  1.0000
  H   H1110     1.0  0.37981  0.62272  0.14788  1.0000
  H   H1111     1.0  0.48342  0.64149  0.26967  1.0000
  H   H1112     1.0  0.27652  0.60412  0.10716  1.0000
  C   C654      1.0  0.30204  0.39127  0.21934  1.0000
  C   C655      1.0  0.40127  0.37674  0.46214  1.0000
  H   H1113     1.0  0.32450  0.40796  0.28152  1.0000
  H   H1114     1.0  0.37090  0.60745  0.14423  1.0000
  C   C656      1.0  0.33504  0.63371  0.13359  1.0000
  C   C657      1.0  0.30242  0.42333  0.29100  1.0000
  H   H1115     1.0  0.31290  0.53897  0.35373  1.0000
  H   H1116     1.0  0.39927  0.60424  0.26472  1.0000
  H   H1117     1.0  0.48594  0.64410  0.49119  1.0000
  H   H1118     1.0  0.32924  0.40986  0.46332  1.0000
  N   N48       1.0  0.38387  0.37815  0.46786  1.0000
  C   C658      1.0  0.34632  0.48807  0.47657  1.0000
  C   C659      1.0  0.41426  0.60383  0.48255  1.0000
  H   H1119     1.0  0.35557  0.63839  0.17054  1.0000
  C   C660      1.0  0.37995  0.37292  0.43723  1.0000
  H   H1120     1.0  0.38133  0.35338  0.41168  1.0000
  H   H1121     1.0  0.32645  0.43799  0.45093  1.0000
  H   H1122     1.0  0.36617  0.32920  0.43979  1.0000
  H   H1123     1.0  0.36272  0.39528  0.47336  1.0000
  Fe  Fe96      1.0  0.27443  0.63489  0.23517  1.0000
  H   H1124     1.0  0.35920  0.32632  0.23911  1.0000
  C   C661      1.0  0.30213  0.57458  0.43762  1.0000
  H   H1125     1.0  0.35135  0.31986  0.30221  1.0000
  H   H1126     1.0  0.37529  0.40410  0.41124  1.0000
  H   H1127     1.0  0.33536  0.32200  0.19394  1.0000
  H   H1128     1.0  0.47507  0.62579  0.23964  1.0000
  C   C662      1.0  0.27887  0.58767  0.34295  1.0000
  C   C663      1.0  0.36303  0.31751  0.44825  1.0000
  H   H1129     1.0  0.31071  0.57080  0.33002  1.0000
  H   H1130     1.0  0.27217  0.58002  0.33608  1.0000
  H   H1131     1.0  0.28705  0.59131  0.38725  1.0000
  H   H1132     1.0  0.40948  0.61617  0.47253  1.0000
  H   H1133     1.0  0.39177  0.40725  0.42721  1.0000
  C   C664      1.0  0.41546  0.32875  0.29919  1.0000
  C   C665      1.0  0.34923  0.53984  0.47426  1.0000
  C   C666      1.0  0.37927  0.40654  0.43403  1.0000
  H   H1134     1.0  0.46867  0.63845  0.45541  1.0000
  H   H1135     1.0  0.40561  0.38308  0.43543  1.0000
  H   H1136     1.0  0.28816  0.64371  0.03045  1.0000
  C   C667      1.0  0.46476  0.63858  0.48346  1.0000
  H   H1137     1.0  0.32903  0.64367  0.19518  1.0000
  H   H1138     1.0  0.42051  0.38130  0.48136  1.0000
  C   C668      1.0  0.36139  0.45264  0.47683  1.0000
  H   H1139     1.0  0.42688  0.60291  0.48102  1.0000
  H   H1140     1.0  0.27043  0.33459  0.00079  1.0000
  H   H1141     1.0  0.38495  0.32047  0.25271  1.0000
  H   H1142     1.0  0.35916  0.48568  0.47329  1.0000
  H   H1143     1.0  0.32714  0.47824  0.47193  1.0000
  H   H1144     1.0  0.35953  0.64641  0.03529  1.0000
  C   C669      1.0  0.40771  0.38239  0.48952  1.0000
  H   H1145     1.0  0.37777  0.39952  0.49009  1.0000
  N   N49       1.0  0.34463  0.45885  0.49095  1.0000
  H   H1146     1.0  0.40297  0.39480  0.49119  1.0000
  Fe  Fe97      1.0  0.28658  0.60676  0.92331  1.0000
  S   S195      1.0  0.28109  0.63089  0.89225  1.0000
  Fe  Fe98      1.0  0.29300  0.59164  0.85682  1.0000
  S   S196      1.0  0.28738  0.61446  0.82062  1.0000
  S   S197      1.0  0.30369  0.56787  0.84253  1.0000
  Fe  Fe99      1.0  0.30130  0.62289  0.85130  1.0000
  C   C670      1.0  0.42103  0.55459  0.53638  1.0000
  Fe  Fe100     1.0  0.26750  0.62066  0.86406  1.0000
  S   S198      1.0  0.30823  0.59979  0.88480  1.0000
  S   S199      1.0  0.27167  0.59689  0.89775  1.0000
  H   H1147     1.0  0.36538  0.57177  0.84358  1.0000
  H   H1148     1.0  0.30390  0.37350  0.68280  1.0000
  C   C671      1.0  0.46985  0.63949  0.81891  1.0000
  Fe  Fe101     1.0  0.35168  0.54667  0.66468  1.0000
  S   S200      1.0  0.36943  0.53313  0.69770  1.0000
  S   S201      1.0  0.32663  0.55659  0.68398  1.0000
  Fe  Fe102     1.0  0.37480  0.54614  0.59589  1.0000
  S   S202      1.0  0.39451  0.53271  0.62326  1.0000
  S   S203      1.0  0.38000  0.55347  0.53687  1.0000
  Fe  Fe103     1.0  0.37684  0.51829  0.65474  1.0000
  S   S204      1.0  0.38315  0.49185  0.66383  1.0000
  Fe  Fe104     1.0  0.38534  0.54883  0.66289  1.0000
  S   S205      1.0  0.39734  0.56356  0.68526  1.0000
  S   S206      1.0  0.35788  0.53077  0.62440  1.0000
  S   S207      1.0  0.36686  0.56327  0.63284  1.0000
  Fe  Fe105     1.0  0.33815  0.38938  0.66782  1.0000
  S   S208      1.0  0.35938  0.39920  0.66790  1.0000
  C   C672      1.0  0.36115  0.34271  0.72808  1.0000
  Fe  Fe106     1.0  0.33959  0.40042  0.58812  1.0000
  S   S209      1.0  0.36087  0.41038  0.58273  1.0000
  S   S210      1.0  0.33026  0.40650  0.53673  1.0000
  Fe  Fe107     1.0  0.36936  0.38851  0.61891  1.0000
  Fe  Fe108     1.0  0.34905  0.42039  0.63148  1.0000
  S   S211      1.0  0.34536  0.44692  0.62569  1.0000
  S   S212      1.0  0.34889  0.37764  0.62052  1.0000
  S   S213      1.0  0.32707  0.41135  0.63540  1.0000
  Fe  Fe109     1.0  0.46707  0.61994  0.69774  1.0000
  H   H1149     1.0  0.38138  0.38162  0.53930  1.0000
  S   S214      1.0  0.45189  0.62374  0.75017  1.0000
  H   H1150     1.0  0.42213  0.59439  0.59829  1.0000
  H   H1151     1.0  0.43170  0.63481  0.80972  1.0000
  Fe  Fe110     1.0  0.47371  0.59590  0.64980  1.0000
  S   S215      1.0  0.46646  0.57644  0.63198  1.0000
  H   H1152     1.0  0.41406  0.35098  0.56987  1.0000
  S   S216      1.0  0.45809  0.61920  0.64884  1.0000
  H   H1153     1.0  0.35482  0.55668  0.84411  1.0000
  C   C673      1.0  0.41650  0.56714  0.66917  1.0000
  C   C674      1.0  0.42721  0.55843  0.64585  1.0000
  C   C675      1.0  0.44245  0.56143  0.63453  1.0000
  C   C676      1.0  0.44712  0.57315  0.64634  1.0000
  C   C677      1.0  0.43635  0.58198  0.66929  1.0000
  C   C678      1.0  0.42115  0.57894  0.68071  1.0000
  H   H1154     1.0  0.42384  0.54920  0.63710  1.0000
  H   H1155     1.0  0.45073  0.55449  0.61694  1.0000
  H   H1156     1.0  0.43982  0.59098  0.67867  1.0000
  H   H1157     1.0  0.41299  0.58568  0.69887  1.0000
  C   C679      1.0  0.37241  0.47946  0.65361  1.0000
  C   C680      1.0  0.35898  0.48538  0.63868  1.0000
  C   C681      1.0  0.35089  0.47521  0.63040  1.0000
  C   C682      1.0  0.35606  0.45901  0.63705  1.0000
  C   C683      1.0  0.36949  0.45306  0.65196  1.0000
  C   C684      1.0  0.37761  0.46326  0.66018  1.0000
  H   H1158     1.0  0.35487  0.49779  0.63326  1.0000
  H   H1159     1.0  0.34054  0.47992  0.61877  1.0000
  H   H1160     1.0  0.37360  0.44062  0.65721  1.0000
  H   H1161     1.0  0.38799  0.45855  0.67173  1.0000
  C   C685      1.0  0.39346  0.50985  0.49270  1.0000
  H   H1162     1.0  0.39371  0.57274  0.57023  1.0000
  C   C686      1.0  0.36752  0.54905  0.51307  1.0000
  C   C687      1.0  0.35272  0.54606  0.52923  1.0000
  H   H1163     1.0  0.45891  0.32746  0.60554  1.0000
  S   S217      1.0  0.48233  0.64411  0.56610  1.0000
  H   H1164     1.0  0.34835  0.54726  0.55662  1.0000
  H   H1165     1.0  0.35269  0.48470  0.73205  1.0000
  S   S218      1.0  0.39390  0.37625  0.60052  1.0000
  H   H1166     1.0  0.25684  0.64013  0.98973  1.0000
  H   H1167     1.0  0.38157  0.59807  0.57965  1.0000
  H   H1168     1.0  0.39373  0.59846  0.51829  1.0000
  H   H1169     1.0  0.24276  0.34063  0.74009  1.0000
  H   H1170     1.0  0.39313  0.62220  0.71757  1.0000
  H   H1171     1.0  0.33845  0.51994  0.72313  1.0000
  C   C688      1.0  0.45470  0.63890  0.55615  1.0000
  H   H1172     1.0  0.46430  0.64402  0.84380  1.0000
  H   H1173     1.0  0.32378  0.48859  0.77621  1.0000
  C   C689      1.0  0.41047  0.34671  0.59777  1.0000
  H   H1174     1.0  0.36162  0.38272  0.53602  1.0000
  C   C690      1.0  0.44476  0.63632  0.53573  1.0000
  H   H1175     1.0  0.34771  0.49623  0.76720  1.0000
  H   H1176     1.0  0.40846  0.57116  0.59508  1.0000
  H   H1177     1.0  0.43317  0.63450  0.54812  1.0000
  C   C691      1.0  0.40202  0.57930  0.57514  1.0000
  C   C692      1.0  0.35082  0.49658  0.73813  1.0000
  C   C693      1.0  0.33877  0.50814  0.71791  1.0000
  C   C694      1.0  0.31023  0.56540  0.79803  1.0000
  C   C695      1.0  0.30315  0.57499  0.77055  1.0000
  C   C696      1.0  0.30835  0.57227  0.73552  1.0000
  C   C697      1.0  0.32103  0.56039  0.72764  1.0000
  C   C698      1.0  0.32846  0.55118  0.75495  1.0000
  C   C699      1.0  0.32278  0.55338  0.79016  1.0000
  H   H1178     1.0  0.29339  0.58419  0.77644  1.0000
  H   H1179     1.0  0.30250  0.57939  0.71448  1.0000
  H   H1180     1.0  0.33831  0.54210  0.74913  1.0000
  H   H1181     1.0  0.32826  0.54591  0.81139  1.0000
  C   C700      1.0  0.41201  0.32582  0.64863  1.0000
  C   C701      1.0  0.33759  0.62901  0.86641  1.0000
  C   C702      1.0  0.34991  0.63088  0.88115  1.0000
  C   C703      1.0  0.23846  0.33397  0.72444  1.0000
  H   H1182     1.0  0.24214  0.63054  0.93591  1.0000
  H   H1183     1.0  0.46077  0.60000  0.51530  1.0000
  H   H1184     1.0  0.33225  0.61888  0.87644  1.0000
  H   H1185     1.0  0.35404  0.62219  0.90256  1.0000
  H   H1186     1.0  0.41743  0.51209  0.56745  1.0000
  H   H1187     1.0  0.35366  0.51125  0.56461  1.0000
  C   C704      1.0  0.28964  0.35842  0.71995  1.0000
  C   C705      1.0  0.30202  0.36673  0.70923  1.0000
  H   H1188     1.0  0.24728  0.59676  0.97546  1.0000
  H   H1189     1.0  0.28198  0.35895  0.70164  1.0000
  C   C706      1.0  0.32788  0.32419  0.71759  1.0000
  H   H1190     1.0  0.33238  0.63139  0.98507  1.0000
  H   H1191     1.0  0.42330  0.63567  0.68786  1.0000
  C   C707      1.0  0.35676  0.64406  0.86830  1.0000
  H   H1192     1.0  0.40591  0.49144  0.57144  1.0000
  C   C708      1.0  0.32661  0.46634  0.54816  1.0000
  H   H1193     1.0  0.36025  0.56543  0.73533  1.0000
  H   H1194     1.0  0.46926  0.58897  0.55244  1.0000
  H   H1195     1.0  0.46421  0.62976  0.81822  1.0000
  Fe  Fe111     1.0  0.47940  0.62865  0.61948  1.0000
  H   H1196     1.0  0.40028  0.64325  0.81241  1.0000
  N   N50       1.0  0.39284  0.49912  0.52820  1.0000
  C   C709      1.0  0.39929  0.63224  0.71149  1.0000
  H   H1197     1.0  0.35748  0.63780  0.98388  1.0000
  N   N51       1.0  0.41303  0.58386  0.54124  1.0000
  N   N52       1.0  0.39644  0.63984  0.74373  1.0000
  C   C710      1.0  0.40577  0.59902  0.52064  1.0000
  H   H1198     1.0  0.33760  0.34121  0.74871  1.0000
  C   C711      1.0  0.46743  0.32494  0.62385  1.0000
  S   S219      1.0  0.24336  0.63462  0.85936  1.0000
  C   C712      1.0  0.39156  0.59260  0.59348  1.0000
  N   N53       1.0  0.34426  0.32742  0.70686  1.0000
  H   H1199     1.0  0.46404  0.33670  0.68761  1.0000
  C   C713      1.0  0.27078  0.31558  0.97449  1.0000
  H   H1200     1.0  0.40452  0.60889  0.53459  1.0000
  C   C714      1.0  0.45832  0.32694  0.70271  1.0000
  C   C715      1.0  0.33571  0.36575  0.50145  1.0000
  C   C716      1.0  0.37813  0.36771  0.50175  1.0000
  C   C717      1.0  0.46960  0.64160  0.54023  1.0000
  H   H1201     1.0  0.41706  0.62103  0.67283  1.0000
  S   S220      1.0  0.31773  0.63796  0.81780  1.0000
  C   C718      1.0  0.30907  0.35763  0.76735  1.0000
  H   H1202     1.0  0.26284  0.32878  0.70023  1.0000
  H   H1203     1.0  0.38670  0.58770  0.62111  1.0000
  C   C719      1.0  0.43429  0.64483  0.79010  1.0000
  H   H1204     1.0  0.39767  0.60178  0.59508  1.0000
  C   C720      1.0  0.31632  0.51226  0.78734  1.0000
  H   H1205     1.0  0.34890  0.32488  0.63338  1.0000
  S   S221      1.0  0.28418  0.59821  0.98285  1.0000
  H   H1206     1.0  0.32455  0.31970  0.77636  1.0000
  H   H1207     1.0  0.43706  0.58665  0.52400  1.0000
  C   C721      1.0  0.34448  0.33983  0.67401  1.0000
  H   H1208     1.0  0.31641  0.35745  0.78612  1.0000
  C   C722      1.0  0.37311  0.37489  0.53581  1.0000
  C   C723      1.0  0.34349  0.54162  0.50965  1.0000
  C   C724      1.0  0.34081  0.33538  0.64120  1.0000
  C   C725      1.0  0.40726  0.49780  0.54352  1.0000
  H   H1209     1.0  0.38803  0.35885  0.67204  1.0000
  H   H1210     1.0  0.41276  0.55081  0.56037  1.0000
  H   H1211     1.0  0.38702  0.35702  0.50719  1.0000
  H   H1212     1.0  0.35581  0.34372  0.66543  1.0000
  H   H1213     1.0  0.33600  0.35054  0.67977  1.0000
  C   C726      1.0  0.39571  0.35114  0.65528  1.0000
  H   H1214     1.0  0.34221  0.34506  0.61838  1.0000
  H   H1215     1.0  0.38040  0.64440  0.96275  1.0000
  H   H1216     1.0  0.28947  0.62953  0.98135  1.0000
  H   H1217     1.0  0.30606  0.53438  0.66353  1.0000
  C   C727      1.0  0.41623  0.33124  0.61236  1.0000
  H   H1218     1.0  0.34772  0.57004  0.87369  1.0000
  C   C728      1.0  0.24634  0.62729  0.96171  1.0000
  H   H1219     1.0  0.37217  0.33634  0.71546  1.0000
  H   H1220     1.0  0.25785  0.61951  0.95665  1.0000
  C   C729      1.0  0.29706  0.34895  0.77763  1.0000
  H   H1221     1.0  0.43367  0.32415  0.71839  1.0000
  C   C730      1.0  0.34304  0.45970  0.52961  1.0000
  C   C731      1.0  0.42860  0.58463  0.54902  1.0000
  H   H1222     1.0  0.32761  0.47244  0.56924  1.0000
  H   H1223     1.0  0.43664  0.34373  0.70880  1.0000
  H   H1224     1.0  0.30996  0.47617  0.69404  1.0000
  C   C732      1.0  0.31179  0.36640  0.73301  1.0000
  H   H1225     1.0  0.29933  0.51674  0.71994  1.0000
  C   C733      1.0  0.40010  0.35666  0.61912  1.0000
  H   H1226     1.0  0.25101  0.31816  0.68715  1.0000
  H   H1227     1.0  0.31734  0.50645  0.81502  1.0000
  H   H1228     1.0  0.35157  0.46609  0.53414  1.0000
  H   H1229     1.0  0.39346  0.52191  0.49560  1.0000
  C   C734      1.0  0.41193  0.51338  0.54385  1.0000
  C   C735      1.0  0.41648  0.62618  0.69660  1.0000
  C   C736      1.0  0.37891  0.50573  0.55344  1.0000
  H   H1230     1.0  0.25894  0.63028  0.78800  1.0000
  H   H1231     1.0  0.36767  0.36351  0.49930  1.0000
  H   H1232     1.0  0.33207  0.53925  0.52216  1.0000
  H   H1233     1.0  0.42412  0.32362  0.59569  1.0000
  H   H1234     1.0  0.37419  0.63445  0.77215  1.0000
  H   H1235     1.0  0.32004  0.45680  0.56063  1.0000
  H   H1236     1.0  0.42468  0.60887  0.55789  1.0000
  H   H1237     1.0  0.34610  0.44787  0.54536  1.0000
  H   H1238     1.0  0.48393  0.57994  0.49907  1.0000
  C   C737      1.0  0.36286  0.50484  0.54632  1.0000
  H   H1239     1.0  0.37201  0.36545  0.55927  1.0000
  H   H1240     1.0  0.42168  0.54680  0.51731  1.0000
  H   H1241     1.0  0.40482  0.57184  0.50840  1.0000
  H   H1242     1.0  0.37958  0.50003  0.58139  1.0000
  C   C738      1.0  0.24829  0.63866  0.78616  1.0000
  H   H1243     1.0  0.31966  0.47501  0.53023  1.0000
  H   H1244     1.0  0.45957  0.32636  0.73069  1.0000
  C   C739      1.0  0.37919  0.64465  0.75644  1.0000
  H   H1245     1.0  0.41737  0.49078  0.52849  1.0000
  S   S222      1.0  0.27145  0.33917  0.76706  1.0000
  C   C740      1.0  0.38999  0.47096  0.55758  1.0000
  H   H1246     1.0  0.34383  0.50879  0.68923  1.0000
  H   H1247     1.0  0.45070  0.63916  0.58407  1.0000
  C   C741      1.0  0.39173  0.48319  0.52329  1.0000
  C   C742      1.0  0.41563  0.57152  0.51853  1.0000
  H   H1248     1.0  0.26998  0.32289  0.94887  1.0000
  H   H1249     1.0  0.46656  0.33604  0.63269  1.0000
  H   H1250     1.0  0.32876  0.49302  0.67917  1.0000
  H   H1251     1.0  0.36221  0.50042  0.72963  1.0000
  H   H1252     1.0  0.40510  0.62295  0.82882  1.0000
  H   H1253     1.0  0.36083  0.49273  0.55163  1.0000
  N   N54       1.0  0.32271  0.50427  0.72539  1.0000
  H   H1254     1.0  0.32859  0.33380  0.64524  1.0000
  H   H1255     1.0  0.31891  0.59902  0.79433  1.0000
  C   C743      1.0  0.31432  0.52340  0.67049  1.0000
  H   H1256     1.0  0.31216  0.52865  0.72241  1.0000
  H   H1257     1.0  0.37867  0.51822  0.55317  1.0000
  H   H1258     1.0  0.32614  0.52594  0.65999  1.0000
  N   N55       1.0  0.35149  0.58816  0.78591  1.0000
  C   C744      1.0  0.34092  0.59207  0.75863  1.0000
  C   C745      1.0  0.36646  0.57851  0.77027  1.0000
  C   C746      1.0  0.35464  0.60327  0.79136  1.0000
  C   C747      1.0  0.32528  0.60305  0.76762  1.0000
  C   C748      1.0  0.36482  0.56319  0.76053  1.0000
  C   C749      1.0  0.36544  0.60211  0.81791  1.0000
  H   H1259     1.0  0.34691  0.59738  0.73232  1.0000
  H   H1260     1.0  0.33782  0.58136  0.75421  1.0000
  H   H1261     1.0  0.37519  0.57539  0.78795  1.0000
  H   H1262     1.0  0.37216  0.58534  0.74560  1.0000
  H   H1263     1.0  0.35955  0.60997  0.76557  1.0000
  H   H1264     1.0  0.34366  0.61083  0.80164  1.0000
  H   H1265     1.0  0.32675  0.61522  0.76527  1.0000
  H   H1266     1.0  0.31777  0.60326  0.74826  1.0000
  H   H1267     1.0  0.35733  0.55652  0.78171  1.0000
  C   C750      1.0  0.39818  0.63173  0.81077  1.0000
  H   H1268     1.0  0.37649  0.55567  0.75601  1.0000
  H   H1269     1.0  0.36005  0.59762  0.84536  1.0000
  H   H1270     1.0  0.36702  0.61399  0.81848  1.0000
  H   H1271     1.0  0.37716  0.59520  0.81053  1.0000
  C   C751      1.0  0.47450  0.64179  0.50369  1.0000
  C   C752      1.0  0.34341  0.57974  0.82007  1.0000
  H   H1272     1.0  0.31925  0.33525  0.71771  1.0000
  H   H1273     1.0  0.37980  0.47464  0.57746  1.0000
  H   H1274     1.0  0.40056  0.46801  0.56992  1.0000
  C   C753      1.0  0.28719  0.34937  0.75409  1.0000
  H   H1275     1.0  0.40570  0.37506  0.51613  1.0000
  C   C754      1.0  0.35373  0.56908  0.84608  1.0000
  H   H1276     1.0  0.33485  0.58817  0.83494  1.0000
  H   H1277     1.0  0.34114  0.49091  0.50331  1.0000
  C   C755      1.0  0.25290  0.32254  0.71003  1.0000
  H   H1278     1.0  0.33645  0.57213  0.81412  1.0000
  S   S223      1.0  0.32798  0.37599  0.72107  1.0000
  C   C756      1.0  0.31161  0.51839  0.71117  1.0000
  H   H1279     1.0  0.33462  0.37257  0.55182  1.0000
  C   C757      1.0  0.40308  0.62784  0.77286  1.0000
  C   C758      1.0  0.40194  0.33586  0.67007  1.0000
  S   S224      1.0  0.48141  0.59582  0.70079  1.0000
  C   C759      1.0  0.34793  0.33333  0.73691  1.0000
  H   H1280     1.0  0.42464  0.57373  0.49461  1.0000
  H   H1281     1.0  0.38833  0.46004  0.55101  1.0000
  C   C760      1.0  0.42876  0.59686  0.57109  1.0000
  H   H1282     1.0  0.29517  0.34226  0.80414  1.0000
  H   H1283     1.0  0.47191  0.60876  0.53521  1.0000
  H   H1284     1.0  0.39978  0.61640  0.77433  1.0000
  H   H1285     1.0  0.33124  0.48017  0.71932  1.0000
  H   H1286     1.0  0.30499  0.49764  0.76959  1.0000
  C   C761      1.0  0.23852  0.64274  0.81701  1.0000
  H   H1287     1.0  0.31218  0.51468  0.65677  1.0000
  H   H1288     1.0  0.29919  0.49520  0.69811  1.0000
  H   H1289     1.0  0.43281  0.55271  0.54291  1.0000
  H   H1290     1.0  0.43374  0.57333  0.56399  1.0000
  C   C762      1.0  0.30785  0.48566  0.70971  1.0000
  C   C763      1.0  0.47122  0.59770  0.52794  1.0000
  H   H1291     1.0  0.36995  0.43662  0.52257  1.0000
  H   H1292     1.0  0.30289  0.48084  0.73725  1.0000
  H   H1293     1.0  0.39909  0.33183  0.69830  1.0000
  H   H1294     1.0  0.41603  0.62567  0.76729  1.0000
  H   H1295     1.0  0.30523  0.52083  0.78748  1.0000
  C   C764      1.0  0.33419  0.37654  0.52390  1.0000
  H   H1296     1.0  0.25173  0.64199  0.72905  1.0000
  H   H1297     1.0  0.44089  0.59627  0.57438  1.0000
  C   C765      1.0  0.32345  0.49067  0.70769  1.0000
  C   C766      1.0  0.31705  0.49989  0.76461  1.0000
  H   H1298     1.0  0.32605  0.51867  0.77844  1.0000
  H   H1299     1.0  0.42219  0.61682  0.71575  1.0000
  H   H1300     1.0  0.40211  0.52332  0.54550  1.0000
  H   H1301     1.0  0.35799  0.35419  0.71121  1.0000
  C   C767      1.0  0.33189  0.39249  0.51015  1.0000
  H   H1302     1.0  0.48027  0.61094  0.79162  1.0000
  Fe  Fe112     1.0  0.27334  0.31669  0.80742  1.0000
  C   C768      1.0  0.44443  0.64274  0.75820  1.0000
  H   H1303     1.0  0.36319  0.34522  0.75311  1.0000
  H   H1304     1.0  0.33573  0.43728  0.50726  1.0000
  H   H1305     1.0  0.37406  0.32393  0.66565  1.0000
  H   H1306     1.0  0.35071  0.32356  0.75889  1.0000
  H   H1307     1.0  0.38580  0.63115  0.82158  1.0000
  H   H1308     1.0  0.23905  0.32120  0.78795  1.0000
  H   H1309     1.0  0.47920  0.32179  0.60821  1.0000
  C   C769      1.0  0.44088  0.33221  0.70043  1.0000
  H   H1310     1.0  0.43875  0.33366  0.67294  1.0000
  H   H1311     1.0  0.32505  0.31833  0.69808  1.0000
  H   H1312     1.0  0.42096  0.51624  0.52049  1.0000
  H   H1313     1.0  0.47994  0.63448  0.75144  1.0000
  C   C770      1.0  0.33244  0.64015  0.83831  1.0000
  C   C771      1.0  0.24937  0.64249  0.96925  1.0000
  S   S225      1.0  0.37224  0.64659  0.88601  1.0000
  H   H1314     1.0  0.32173  0.45369  0.49554  1.0000
  H   H1315     1.0  0.33737  0.35343  0.51209  1.0000
  C   C772      1.0  0.44985  0.63590  0.49953  1.0000
  H   H1316     1.0  0.40233  0.47814  0.50586  1.0000
  C   C773      1.0  0.34780  0.64776  0.97902  1.0000
  H   H1317     1.0  0.36112  0.51034  0.51899  1.0000
  C   C774      1.0  0.24415  0.64528  0.75279  1.0000
  H   H1318     1.0  0.39438  0.64018  0.68910  1.0000
  H   H1319     1.0  0.23822  0.60940  0.91989  1.0000
  C   C775      1.0  0.36828  0.43634  0.49547  1.0000
  H   H1320     1.0  0.38196  0.48387  0.50927  1.0000
  H   H1321     1.0  0.36114  0.42754  0.49676  1.0000
  C   C776      1.0  0.48563  0.59152  0.50177  1.0000
  H   H1322     1.0  0.36807  0.64281  0.71280  1.0000
  H   H1323     1.0  0.27509  0.77340  0.20700  1.0000
  C   C777      1.0  0.30502  0.66803  0.16415  1.0000
  C   C778      1.0  0.25854  0.81433  0.24771  1.0000
  Fe  Fe113     1.0  0.35310  0.68085  0.15540  1.0000
  S   S226      1.0  0.36330  0.70198  0.13039  1.0000
  S   S227      1.0  0.33151  0.67930  0.13748  1.0000
  Fe  Fe114     1.0  0.38051  0.66515  0.19360  1.0000
  S   S228      1.0  0.39303  0.68515  0.17042  1.0000
  C   C779      1.0  0.35134  0.65763  0.02978  1.0000
  Fe  Fe115     1.0  0.36956  0.70028  0.18374  1.0000
  S   S229      1.0  0.36596  0.72194  0.20802  1.0000
  Fe  Fe116     1.0  0.38534  0.68486  0.11927  1.0000
  S   S230      1.0  0.40023  0.68447  0.06493  1.0000
  S   S231      1.0  0.35755  0.68027  0.20982  1.0000
  C   C780      1.0  0.32314  0.77801  0.22026  1.0000
  Fe  Fe117     1.0  0.29555  0.75568  0.34371  1.0000
  S   S232      1.0  0.28200  0.75887  0.39779  1.0000
  S   S233      1.0  0.31062  0.73227  0.33695  1.0000
  Fe  Fe118     1.0  0.27798  0.78630  0.30750  1.0000
  Fe  Fe119     1.0  0.28546  0.78357  0.38137  1.0000
  S   S234      1.0  0.28977  0.79677  0.42064  1.0000
  Fe  Fe120     1.0  0.26117  0.76713  0.37134  1.0000
  S   S235      1.0  0.30062  0.77996  0.32839  1.0000
  S   S236      1.0  0.27429  0.76166  0.31891  1.0000
  C   C781      1.0  0.28800  0.78786  0.46580  1.0000
  C   C782      1.0  0.38457  0.69815  0.32230  1.0000
  H   H1324     1.0  0.25947  0.70342  0.30460  1.0000
  H   H1325     1.0  0.30922  0.75155  0.25245  1.0000
  H   H1326     1.0  0.29330  0.76447  0.45537  1.0000
  C   C783      1.0  0.25184  0.82249  0.27560  1.0000
  H   H1327     1.0  0.36420  0.67645  0.02856  1.0000
  C   C784      1.0  0.31677  0.67396  0.17202  1.0000
  H   H1328     1.0  0.41211  0.68507  0.23854  1.0000
  H   H1329     1.0  0.24035  0.88499  0.29330  1.0000
  H   H1330     1.0  0.38215  0.65301  0.99955  1.0000
  H   H1331     1.0  0.48256  0.65087  0.32049  1.0000
  H   H1332     1.0  0.39645  0.70056  0.31851  1.0000
  H   H1333     1.0  0.24675  0.89684  0.17659  1.0000
  C   C785      1.0  0.32576  0.73002  0.30052  1.0000
  C   C786      1.0  0.32888  0.71627  0.28661  1.0000
  C   C787      1.0  0.34099  0.71385  0.25796  1.0000
  C   C788      1.0  0.35038  0.72497  0.24347  1.0000
  C   C789      1.0  0.34742  0.73868  0.25771  1.0000
  C   C790      1.0  0.33502  0.74129  0.28596  1.0000
  H   H1334     1.0  0.32177  0.70750  0.29785  1.0000
  H   H1335     1.0  0.34301  0.70335  0.24727  1.0000
  H   H1336     1.0  0.35471  0.74730  0.24682  1.0000
  H   H1337     1.0  0.33282  0.75183  0.29696  1.0000
  S   S237      1.0  0.37471  0.66366  0.14157  1.0000
  S   S238      1.0  0.26340  0.79214  0.35872  1.0000
  H   H1338     1.0  0.24661  0.69601  0.22242  1.0000
  N   N56       1.0  0.38417  0.68434  0.30641  1.0000
  H   H1339     1.0  0.26026  0.67903  0.30957  1.0000
  S   S239      1.0  0.27416  0.79844  0.25210  1.0000
  C   C791      1.0  0.26226  0.74332  0.48833  1.0000
  H   H1340     1.0  0.24887  0.88973  0.22185  1.0000
  H   H1341     1.0  0.23741  0.87231  0.26548  1.0000
  H   H1342     1.0  0.26657  0.75413  0.47546  1.0000
  H   H1343     1.0  0.24023  0.74730  0.47141  1.0000
  H   H1344     1.0  0.26586  0.70625  0.24174  1.0000
  H   H1345     1.0  0.36181  0.71327  0.31570  1.0000
  C   C792      1.0  0.37716  0.70314  0.02963  1.0000
  H   H1346     1.0  0.33286  0.72817  0.17481  1.0000
  H   H1347     1.0  0.41802  0.67565  0.29594  1.0000
  H   H1348     1.0  0.39615  0.66046  0.30722  1.0000
  N   N57       1.0  0.30743  0.76200  0.19803  1.0000
  C   C793      1.0  0.38789  0.68727  0.26638  1.0000
  H   H1349     1.0  0.24258  0.71259  0.33193  1.0000
  C   C794      1.0  0.24784  0.71078  0.30438  1.0000
  C   C795      1.0  0.39845  0.68831  0.99439  1.0000
  H   H1350     1.0  0.27745  0.74891  0.24794  1.0000
  H   H1351     1.0  0.29257  0.73486  0.26502  1.0000
  H   H1352     1.0  0.41396  0.65956  0.20962  1.0000
  C   C796      1.0  0.25279  0.81897  0.21562  1.0000
  H   H1353     1.0  0.32811  0.75618  0.15949  1.0000
  C   C797      1.0  0.39123  0.69249  0.02737  1.0000
  C   C798      1.0  0.24154  0.89030  0.20217  1.0000
  H   H1354     1.0  0.34540  0.67778  0.05722  1.0000
  H   H1355     1.0  0.25374  0.77715  0.44930  1.0000
  C   C799      1.0  0.37440  0.71361  0.30818  1.0000
  C   C800      1.0  0.28113  0.77577  0.17916  1.0000
  H   H1356     1.0  0.37632  0.72305  0.32017  1.0000
  H   H1357     1.0  0.28283  0.78804  0.17262  1.0000
  C   C801      1.0  0.32111  0.73443  0.18514  1.0000
  C   C802      1.0  0.37053  0.70973  0.99909  1.0000
  H   H1358     1.0  0.25502  0.67634  0.23763  1.0000
  H   H1359     1.0  0.36381  0.68060  0.34651  1.0000
  C   C803      1.0  0.39488  0.67014  0.32187  1.0000
  H   H1360     1.0  0.29258  0.76617  0.24748  1.0000
  C   C804      1.0  0.36777  0.68119  0.31733  1.0000
  C   C805      1.0  0.29465  0.66108  0.19156  1.0000
  C   C806      1.0  0.36505  0.66616  0.30824  1.0000
  H   H1361     1.0  0.35247  0.66566  0.31593  1.0000
  H   H1362     1.0  0.32627  0.67889  0.21356  1.0000
  C   C807      1.0  0.25218  0.68830  0.24425  1.0000
  C   C808      1.0  0.31743  0.67401  0.20738  1.0000
  H   H1363     1.0  0.33072  0.74985  0.20426  1.0000
  H   H1364     1.0  0.24096  0.68542  0.42951  1.0000
  H   H1365     1.0  0.41177  0.67958  0.34108  1.0000
  C   C809      1.0  0.41154  0.67186  0.32260  1.0000
  H   H1366     1.0  0.27321  0.77473  0.16187  1.0000
  H   H1367     1.0  0.40700  0.70010  0.26502  1.0000
  H   H1368     1.0  0.39984  0.70323  0.22508  1.0000
  C   C810      1.0  0.29665  0.76432  0.17180  1.0000
  H   H1369     1.0  0.24652  0.66837  0.36460  1.0000
  C   C811      1.0  0.23914  0.67569  0.34555  1.0000
  C   C812      1.0  0.30682  0.66728  0.23493  1.0000
  H   H1370     1.0  0.27468  0.69216  0.21417  1.0000
  H   H1371     1.0  0.36198  0.66358  0.06897  1.0000
  H   H1372     1.0  0.37753  0.71700  0.27901  1.0000
  H   H1373     1.0  0.38982  0.66581  0.34989  1.0000
  C   C813      1.0  0.40256  0.69421  0.24839  1.0000
  H   H1374     1.0  0.24260  0.87818  0.19797  1.0000
  H   H1375     1.0  0.36817  0.66593  0.27944  1.0000
  H   H1376     1.0  0.31637  0.78262  0.16878  1.0000
  C   C814      1.0  0.32231  0.75119  0.18632  1.0000
  N   N58       1.0  0.24133  0.68855  0.27945  1.0000
  H   H1377     1.0  0.38094  0.69569  0.35170  1.0000
  H   H1378     1.0  0.28614  0.65586  0.18507  1.0000
  H   H1379     1.0  0.25794  0.81274  0.19387  1.0000
  H   H1380     1.0  0.37137  0.65553  0.32309  1.0000
  H   H1381     1.0  0.30256  0.76860  0.14451  1.0000
  H   H1382     1.0  0.41811  0.66027  0.33286  1.0000
  C   C815      1.0  0.26769  0.69369  0.24070  1.0000
  H   H1383     1.0  0.28302  0.80957  0.48507  1.0000
  C   C816      1.0  0.30013  0.75623  0.23562  1.0000
  H   H1384     1.0  0.38925  0.67631  0.25607  1.0000
  H   H1385     1.0  0.31766  0.72792  0.21210  1.0000
  H   H1386     1.0  0.32376  0.79032  0.21962  1.0000
  H   H1387     1.0  0.37157  0.70660  0.05471  1.0000
  H   H1388     1.0  0.30440  0.66809  0.13682  1.0000
  H   H1389     1.0  0.30103  0.78621  0.20477  1.0000
  H   H1390     1.0  0.24421  0.76241  0.32148  1.0000
  H   H1391     1.0  0.25626  0.81915  0.30028  1.0000
  H   H1392     1.0  0.27488  0.68670  0.26033  1.0000
  H   H1393     1.0  0.35978  0.71813  0.00105  1.0000
  H   H1394     1.0  0.31339  0.73385  0.16707  1.0000
  H   H1395     1.0  0.29162  0.73732  0.21927  1.0000
  H   H1396     1.0  0.37792  0.69492  0.25490  1.0000
  C   C817      1.0  0.35585  0.66970  0.04661  1.0000
  H   H1397     1.0  0.33510  0.77217  0.21045  1.0000
  H   H1398     1.0  0.29363  0.75327  0.16973  1.0000
  C   C818      1.0  0.29573  0.66040  0.22693  1.0000
  C   C819      1.0  0.24882  0.67688  0.30772  1.0000
  H   H1399     1.0  0.31938  0.77302  0.24843  1.0000
  C   C820      1.0  0.31155  0.77765  0.19651  1.0000
  H   H1400     1.0  0.35943  0.69083  0.30466  1.0000
  C   C821      1.0  0.28996  0.74371  0.24135  1.0000
  H   H1401     1.0  0.26662  0.73496  0.46961  1.0000
  C   C822      1.0  0.23960  0.83526  0.27133  1.0000
  H   H1402     1.0  0.34304  0.69353  0.00312  1.0000
  H   H1403     1.0  0.25157  0.66500  0.30066  1.0000
  H   H1404     1.0  0.24130  0.90650  0.25558  1.0000
  H   H1405     1.0  0.24435  0.79431  0.46777  1.0000
  H   H1406     1.0  0.30760  0.66688  0.26230  1.0000
  S   S240      1.0  0.28389  0.65006  0.26078  1.0000
  H   H1407     1.0  0.24963  0.72243  0.28928  1.0000
  C   C823      1.0  0.29013  0.77168  0.47556  1.0000
  H   H1408     1.0  0.34008  0.65522  0.04619  1.0000
  H   H1409     1.0  0.43773  0.65740  0.23444  1.0000
  H   H1410     1.0  0.25315  0.67061  0.45464  1.0000
  C   C824      1.0  0.24038  0.83163  0.21152  1.0000
  H   H1411     1.0  0.32597  0.67267  0.00735  1.0000
  H   H1412     1.0  0.25007  0.69026  0.46090  1.0000
  H   H1413     1.0  0.40938  0.68016  0.99234  1.0000
  C   C825      1.0  0.24422  0.68139  0.45602  1.0000
  S   S241      1.0  0.23817  0.76061  0.39802  1.0000
  H   H1414     1.0  0.24177  0.93261  0.22762  1.0000
  C   C826      1.0  0.24800  0.78148  0.47433  1.0000
  C   C827      1.0  0.42924  0.65024  0.24793  1.0000
  C   C828      1.0  0.41573  0.65154  0.23393  1.0000
  H   H1415     1.0  0.32594  0.74660  0.66229  1.0000
  S   S242      1.0  0.24935  0.82471  0.67784  1.0000
  N   N59       1.0  0.25859  0.69232  0.75178  1.0000
  S   S243      1.0  0.39546  0.68084  0.87441  1.0000
  C   C829      1.0  0.43047  0.67281  0.77132  1.0000
  Fe  Fe121     1.0  0.36358  0.70028  0.81569  1.0000
  S   S244      1.0  0.35790  0.69043  0.87340  1.0000
  S   S245      1.0  0.34287  0.70680  0.78777  1.0000
  Fe  Fe122     1.0  0.39832  0.69162  0.81646  1.0000
  C   C830      1.0  0.44105  0.67076  0.73988  1.0000
  Fe  Fe123     1.0  0.37651  0.70171  0.88110  1.0000
  S   S246      1.0  0.36908  0.71401  0.92837  1.0000
  S   S247      1.0  0.38155  0.67941  0.80373  1.0000
  S   S248      1.0  0.38069  0.71352  0.82380  1.0000
  Fe  Fe124     1.0  0.26490  0.80103  0.67738  1.0000
  S   S249      1.0  0.28838  0.79483  0.64340  1.0000
  Fe  Fe125     1.0  0.37704  0.67053  0.86217  1.0000
  Fe  Fe126     1.0  0.26298  0.76750  0.70818  1.0000
  S   S250      1.0  0.28615  0.75828  0.67806  1.0000
  H   H1416     1.0  0.29020  0.75222  0.51872  1.0000
  Fe  Fe127     1.0  0.29403  0.77777  0.69250  1.0000
  S   S251      1.0  0.31731  0.77441  0.70966  1.0000
  Fe  Fe128     1.0  0.27878  0.77571  0.63135  1.0000
  S   S252      1.0  0.28307  0.76436  0.58273  1.0000
  S   S253      1.0  0.27134  0.78549  0.72714  1.0000
  C   C831      1.0  0.27361  0.66507  0.77591  1.0000
  C   C832      1.0  0.33624  0.72566  0.76583  1.0000
  C   C833      1.0  0.34535  0.73718  0.75708  1.0000
  C   C834      1.0  0.33944  0.75218  0.73996  1.0000
  C   C835      1.0  0.32443  0.75566  0.73159  1.0000
  C   C836      1.0  0.31535  0.74413  0.74055  1.0000
  C   C837      1.0  0.32129  0.72915  0.75733  1.0000
  H   H1417     1.0  0.35698  0.73448  0.76309  1.0000
  H   H1418     1.0  0.34654  0.76106  0.73302  1.0000
  H   H1419     1.0  0.30369  0.74674  0.73485  1.0000
  H   H1420     1.0  0.31417  0.72028  0.76418  1.0000
  H   H1421     1.0  0.25647  0.74986  0.66936  1.0000
  C   C838      1.0  0.24153  0.82968  0.72011  1.0000
  C   C839      1.0  0.28479  0.77390  0.53815  1.0000
  C   C840      1.0  0.28457  0.79704  0.49245  1.0000
  H   H1422     1.0  0.28013  0.79725  0.54895  1.0000
  H   H1423     1.0  0.28575  0.71710  0.71747  1.0000
  H   H1424     1.0  0.28366  0.68981  0.73703  1.0000
  C   C841      1.0  0.37778  0.70556  0.96614  1.0000
  C   C842      1.0  0.39171  0.69473  0.96393  1.0000
  C   C843      1.0  0.28291  0.79009  0.52860  1.0000
  H   H1425     1.0  0.39752  0.69158  0.93864  1.0000
  C   C844      1.0  0.35131  0.65527  0.84080  1.0000
  H   H1426     1.0  0.27538  0.71108  0.69048  1.0000
  S   S254      1.0  0.24641  0.75276  0.74253  1.0000
  H   H1427     1.0  0.37239  0.66192  0.70978  1.0000
  H   H1428     1.0  0.26745  0.73821  0.51254  1.0000
  S   S255      1.0  0.42108  0.69159  0.77853  1.0000
  H   H1429     1.0  0.33717  0.76306  0.51629  1.0000
  H   H1430     1.0  0.34050  0.73434  0.63532  1.0000
  H   H1431     1.0  0.31112  0.77835  0.57134  1.0000
  C   C845      1.0  0.24306  0.82746  0.78217  1.0000
  C   C846      1.0  0.24957  0.82375  0.74842  1.0000
  C   C847      1.0  0.27341  0.69859  0.74572  1.0000
  C   C848      1.0  0.37988  0.65540  0.97199  1.0000
  H   H1432     1.0  0.34490  0.69536  0.95565  1.0000
  C   C849      1.0  0.44795  0.65571  0.73315  1.0000
  C   C850      1.0  0.23742  0.74407  0.65301  1.0000
  H   H1433     1.0  0.31925  0.77546  0.50828  1.0000
  H   H1434     1.0  0.32389  0.74212  0.95991  1.0000
  H   H1435     1.0  0.35611  0.66569  0.83135  1.0000
  H   H1436     1.0  0.24547  0.77196  0.58655  1.0000
  H   H1437     1.0  0.33144  0.79530  0.63427  1.0000
  C   C851      1.0  0.32371  0.77446  0.56117  1.0000
  H   H1438     1.0  0.24745  0.87791  0.70653  1.0000
  C   C852      1.0  0.40029  0.66711  0.70728  1.0000
  C   C853      1.0  0.25680  0.68709  0.71890  1.0000
  H   H1439     1.0  0.32913  0.76065  0.95344  1.0000
  H   H1440     1.0  0.27193  0.65496  0.79753  1.0000
  H   H1441     1.0  0.28465  0.66826  0.77775  1.0000
  H   H1442     1.0  0.26826  0.68151  0.70530  1.0000
  H   H1443     1.0  0.41747  0.64968  0.73158  1.0000
  C   C854      1.0  0.32990  0.77358  0.62037  1.0000
  C   C855      1.0  0.28848  0.76476  0.51152  1.0000
  H   H1444     1.0  0.33828  0.76780  0.63864  1.0000
  C   C856      1.0  0.33159  0.79081  0.60981  1.0000
  S   S256      1.0  0.25493  0.78344  0.66070  1.0000
  H   H1445     1.0  0.36854  0.76405  0.53957  1.0000
  C   C857      1.0  0.32819  0.74028  0.63972  1.0000
  H   H1446     1.0  0.40267  0.65863  0.76104  1.0000
  H   H1447     1.0  0.26530  0.72326  0.72328  1.0000
  H   H1448     1.0  0.26094  0.81649  0.74425  1.0000
  H   H1449     1.0  0.36622  0.67811  0.97234  1.0000
  H   H1450     1.0  0.44361  0.68082  0.72036  1.0000
  H   H1451     1.0  0.41028  0.67326  0.69717  1.0000
  H   H1452     1.0  0.24779  0.88495  0.74480  1.0000
  H   H1453     1.0  0.31817  0.77372  0.63709  1.0000
  C   C858      1.0  0.42719  0.65982  0.79651  1.0000
  H   H1454     1.0  0.32157  0.79805  0.59795  1.0000
  C   C859      1.0  0.24901  0.69957  0.69080  1.0000
  H   H1455     1.0  0.31060  0.75515  0.61214  1.0000
  H   H1456     1.0  0.39009  0.67554  0.71767  1.0000
  H   H1457     1.0  0.31871  0.75687  0.53539  1.0000
  H   H1458     1.0  0.36337  0.66903  0.93939  1.0000
  H   H1459     1.0  0.27526  0.70112  0.77103  1.0000
  C   C860      1.0  0.36878  0.65165  0.72810  1.0000
  H   H1460     1.0  0.32103  0.73104  0.64811  1.0000
  C   C861      1.0  0.32494  0.76678  0.52874  1.0000
  C   C862      1.0  0.27473  0.71335  0.71754  1.0000
  H   H1461     1.0  0.45577  0.65417  0.70844  1.0000
  H   H1462     1.0  0.39817  0.66350  0.68377  1.0000
  H   H1463     1.0  0.35676  0.65559  0.74178  1.0000
  N   N60       1.0  0.33165  0.76453  0.59087  1.0000
  C   C863      1.0  0.34850  0.75809  0.57837  1.0000
  H   H1464     1.0  0.36413  0.77404  0.57689  1.0000
  C   C864      1.0  0.35895  0.76985  0.55819  1.0000
  H   H1465     1.0  0.32815  0.78544  0.55057  1.0000
  H   H1466     1.0  0.35413  0.75167  0.60135  1.0000
  H   H1467     1.0  0.34981  0.74901  0.56190  1.0000
  H   H1468     1.0  0.33191  0.67412  0.96061  1.0000
  C   C865      1.0  0.32336  0.75095  0.60573  1.0000
  H   H1469     1.0  0.34804  0.65008  0.94977  1.0000
  C   C866      1.0  0.25958  0.67843  0.78155  1.0000
  H   H1470     1.0  0.37702  0.65311  0.77485  1.0000
  H   H1471     1.0  0.35302  0.77992  0.54120  1.0000
  H   H1472     1.0  0.25020  0.71165  0.68996  1.0000
  H   H1473     1.0  0.32498  0.74325  0.58591  1.0000
  N   N61       1.0  0.33069  0.74242  0.88131  1.0000
  C   C867      1.0  0.33620  0.74998  0.90617  1.0000
  C   C868      1.0  0.34441  0.73867  0.85261  1.0000
  C   C869      1.0  0.32602  0.72746  0.90226  1.0000
  C   C870      1.0  0.31710  0.75346  0.86716  1.0000
  C   C871      1.0  0.32469  0.75305  0.94046  1.0000
  C   C872      1.0  0.35148  0.75269  0.83053  1.0000
  C   C873      1.0  0.32020  0.71751  0.88216  1.0000
  C   C874      1.0  0.31361  0.75121  0.83172  1.0000
  H   H1474     1.0  0.34716  0.74286  0.91442  1.0000
  H   H1475     1.0  0.33912  0.76149  0.89261  1.0000
  H   H1476     1.0  0.34170  0.73259  0.83358  1.0000
  H   H1477     1.0  0.35390  0.73029  0.86452  1.0000
  H   H1478     1.0  0.33595  0.71993  0.91430  1.0000
  H   H1479     1.0  0.31638  0.72974  0.92470  1.0000
  H   H1480     1.0  0.30627  0.75300  0.88723  1.0000
  H   H1481     1.0  0.31898  0.76567  0.86255  1.0000
  H   H1482     1.0  0.31298  0.75910  0.93521  1.0000
  C   C875      1.0  0.40466  0.65343  0.73684  1.0000
  H   H1483     1.0  0.24940  0.82282  0.80392  1.0000
  H   H1484     1.0  0.36002  0.74889  0.80753  1.0000
  H   H1485     1.0  0.34261  0.76227  0.81987  1.0000
  H   H1486     1.0  0.35804  0.75709  0.84606  1.0000
  H   H1487     1.0  0.31833  0.70642  0.90013  1.0000
  H   H1488     1.0  0.32868  0.71423  0.85874  1.0000
  H   H1489     1.0  0.30881  0.72330  0.87450  1.0000
  H   H1490     1.0  0.30082  0.75353  0.83285  1.0000
  H   H1491     1.0  0.31796  0.73950  0.82497  1.0000
  H   H1492     1.0  0.31800  0.75996  0.80931  1.0000
  C   C876      1.0  0.36448  0.66688  0.96787  1.0000
  C   C877      1.0  0.24058  0.87959  0.73308  1.0000
  C   C878      1.0  0.33784  0.69155  0.98172  1.0000
  H   H1493     1.0  0.25971  0.68206  0.80698  1.0000
  H   H1494     1.0  0.24913  0.67299  0.78653  1.0000
  H   H1495     1.0  0.24723  0.70852  0.78748  1.0000
  H   H1496     1.0  0.25675  0.76082  0.53523  1.0000
  H   H1497     1.0  0.33533  0.66194  0.80399  1.0000
  H   H1498     1.0  0.34257  0.79259  0.59177  1.0000
  H   H1499     1.0  0.48562  0.65872  0.72614  1.0000
  C   C879      1.0  0.33940  0.65319  0.82542  1.0000
  H   H1500     1.0  0.25424  0.69676  0.66402  1.0000
  H   H1501     1.0  0.24169  0.73439  0.51233  1.0000
  N   N62       1.0  0.35001  0.66197  0.99100  1.0000
  H   H1502     1.0  0.24956  0.67791  0.72650  1.0000
  C   C880      1.0  0.24501  0.70438  0.76445  1.0000
  H   H1503     1.0  0.41916  0.66133  0.82095  1.0000
  H   H1504     1.0  0.38960  0.66075  0.95491  1.0000
  H   H1505     1.0  0.23927  0.86796  0.74915  1.0000
  H   H1506     1.0  0.46728  0.64911  0.79666  1.0000
  C   C881      1.0  0.24480  0.74752  0.67760  1.0000
  H   H1507     1.0  0.27469  0.66102  0.75050  1.0000
  C   C882      1.0  0.33593  0.67455  0.98540  1.0000
  C   C883      1.0  0.24437  0.74578  0.49699  1.0000
  H   H1508     1.0  0.23850  0.65068  0.97682  1.0000
  H   H1509     1.0  0.24335  0.71503  0.74427  1.0000
  H   H1510     1.0  0.24347  0.74371  0.62616  1.0000
  H   H1511     1.0  0.23802  0.92806  0.74174  1.0000
  H   H1512     1.0  0.32623  0.69925  0.98254  1.0000
  C   C884      1.0  0.24462  0.75927  0.54580  1.0000
  H   H1513     1.0  0.24575  0.74784  0.56407  1.0000
  H   H1514     1.0  0.23937  0.78301  0.76871  1.0000
  C   C885      1.0  0.23737  0.77199  0.56863  1.0000
  C   C886      1.0  0.23724  0.74768  0.71268  1.0000
  H   H1515     1.0  0.23746  0.91637  0.71059  1.0000
  H   H1516     1.0  0.25587  0.64851  0.94468  1.0000
  H   H1517     1.0  0.25656  0.77985  0.49188  1.0000
  H   H1518     1.0  0.32208  0.65029  0.99130  1.0000
  S   S257      1.0  0.56462  0.25968  0.34032  1.0000
  C   C887      1.0  0.72605  0.14313  0.21335  1.0000
  Fe  Fe129     1.0  0.58909  0.25997  0.30985  1.0000
  S   S258      1.0  0.60884  0.23952  0.30219  1.0000
  H   H1519     1.0  0.72780  0.29324  0.26041  1.0000
  H   H1520     1.0  0.69137  0.16724  0.01083  1.0000
  C   C888      1.0  0.49054  0.20072  0.16682  1.0000
  C   C889      1.0  0.56859  0.28613  0.48102  1.0000
  H   H1521     1.0  0.64754  0.24435  0.13706  1.0000
  C   C890      1.0  0.65878  0.30904  0.42466  1.0000
  H   H1522     1.0  0.59108  0.26268  0.42453  1.0000
  H   H1523     1.0  0.73350  0.05823  0.43362  1.0000
  H   H1524     1.0  0.72379  0.28567  0.30645  1.0000
  C   C891      1.0  0.64149  0.28709  0.48204  1.0000
  Fe  Fe130     1.0  0.69438  0.19805  0.15577  1.0000
  S   S259      1.0  0.70546  0.21103  0.10473  1.0000
  S   S260      1.0  0.70804  0.18949  0.20083  1.0000
  Fe  Fe131     1.0  0.66159  0.21071  0.13818  1.0000
  S   S261      1.0  0.67032  0.22480  0.08563  1.0000
  S   S262      1.0  0.63567  0.21320  0.15855  1.0000
  Fe  Fe132     1.0  0.68875  0.20356  0.07925  1.0000
  S   S263      1.0  0.69919  0.19609  0.02614  1.0000
  Fe  Fe133     1.0  0.68621  0.23098  0.11520  1.0000
  S   S264      1.0  0.69154  0.25483  0.10967  1.0000
  S   S265      1.0  0.67899  0.18869  0.13002  1.0000
  S   S266      1.0  0.67602  0.21866  0.16788  1.0000
  H   H1525     1.0  0.49282  0.26368  0.44940  1.0000
  C   C892      1.0  0.63888  0.25501  0.13072  1.0000
  C   C893      1.0  0.72395  0.28626  0.99804  1.0000
  H   H1526     1.0  0.73317  0.09047  0.28141  1.0000
  H   H1527     1.0  0.66670  0.20737  0.01865  1.0000
  H   H1528     1.0  0.69801  0.26978  0.23580  1.0000
  H   H1529     1.0  0.71662  0.22928  0.21157  1.0000
  H   H1530     1.0  0.70163  0.23025  0.16530  1.0000
  C   C894      1.0  0.71995  0.17114  0.21079  1.0000
  H   H1531     1.0  0.69666  0.14458  0.26950  1.0000
  C   C895      1.0  0.72181  0.25221  0.19143  1.0000
  S   S267      1.0  0.59444  0.27524  0.34274  1.0000
  Fe  Fe134     1.0  0.58620  0.29483  0.30130  1.0000
  H   H1532     1.0  0.72421  0.13285  0.20572  1.0000
  H   H1533     1.0  0.72046  0.25687  0.06171  1.0000
  H   H1534     1.0  0.60911  0.25959  0.46675  1.0000
  C   C896      1.0  0.70623  0.24029  0.16560  1.0000
  C   C897      1.0  0.50877  0.23513  0.37284  1.0000
  H   H1535     1.0  0.72595  0.10480  0.37967  1.0000
  H   H1536     1.0  0.68465  0.14342  0.31350  1.0000
  H   H1537     1.0  0.67505  0.29179  0.24370  1.0000
  C   C898      1.0  0.61599  0.23302  0.26128  1.0000
  C   C899      1.0  0.60664  0.23497  0.23567  1.0000
  C   C900      1.0  0.61264  0.22865  0.20439  1.0000
  C   C901      1.0  0.62814  0.22084  0.19809  1.0000
  C   C902      1.0  0.63746  0.21913  0.22353  1.0000
  C   C903      1.0  0.63140  0.22505  0.25508  1.0000
  H   H1538     1.0  0.59468  0.24096  0.24039  1.0000
  H   H1539     1.0  0.60531  0.22995  0.18490  1.0000
  H   H1540     1.0  0.64932  0.21315  0.21888  1.0000
  H   H1541     1.0  0.63866  0.22346  0.27484  1.0000
  N   N63       1.0  0.63842  0.30441  0.48140  1.0000
  Fe  Fe135     1.0  0.55774  0.28051  0.29934  1.0000
  C   C904      1.0  0.49970  0.26850  0.38008  1.0000
  C   C905      1.0  0.52007  0.27611  0.28292  1.0000
  C   C906      1.0  0.50454  0.28343  0.28127  1.0000
  H   H1542     1.0  0.68986  0.29375  0.18865  1.0000
  C   C907      1.0  0.49720  0.25865  0.28306  1.0000
  C   C908      1.0  0.51275  0.25136  0.28424  1.0000
  C   C909      1.0  0.52409  0.25998  0.28469  1.0000
  H   H1543     1.0  0.50133  0.29591  0.27959  1.0000
  C   C910      1.0  0.59784  0.26709  0.47066  1.0000
  H   H1544     1.0  0.51607  0.23893  0.28497  1.0000
  H   H1545     1.0  0.53600  0.25421  0.28559  1.0000
  H   H1546     1.0  0.49403  0.23221  0.42347  1.0000
  C   C911      1.0  0.69739  0.30227  0.18669  1.0000
  N   N64       1.0  0.67290  0.17333  0.27426  1.0000
  C   C912      1.0  0.67403  0.16707  0.24071  1.0000
  C   C913      1.0  0.68812  0.16722  0.28752  1.0000
  C   C914      1.0  0.67007  0.19094  0.26508  1.0000
  C   C915      1.0  0.65949  0.16788  0.30079  1.0000
  C   C916      1.0  0.66010  0.17321  0.22084  1.0000
  C   C917      1.0  0.69343  0.14939  0.29449  1.0000
  C   C918      1.0  0.67706  0.19975  0.28581  1.0000
  C   C919      1.0  0.65705  0.17200  0.33799  1.0000
  H   H1547     1.0  0.68462  0.16967  0.22148  1.0000
  H   H1548     1.0  0.67526  0.15419  0.24618  1.0000
  H   H1549     1.0  0.68805  0.17124  0.31243  1.0000
  H   H1550     1.0  0.69761  0.17203  0.26824  1.0000
  H   H1551     1.0  0.67502  0.19489  0.23678  1.0000
  H   H1552     1.0  0.65740  0.19579  0.26780  1.0000
  H   H1553     1.0  0.64832  0.17291  0.29111  1.0000
  H   H1554     1.0  0.66061  0.15505  0.30406  1.0000
  H   H1555     1.0  0.65801  0.18602  0.21248  1.0000
  H   H1556     1.0  0.70870  0.26981  0.01360  1.0000
  H   H1557     1.0  0.62940  0.25119  0.12251  1.0000
  H   H1558     1.0  0.70417  0.14656  0.30627  1.0000
  H   H1559     1.0  0.68990  0.19818  0.27758  1.0000
  H   H1560     1.0  0.67246  0.21242  0.27913  1.0000
  H   H1561     1.0  0.51408  0.22268  0.37974  1.0000
  H   H1562     1.0  0.66713  0.16672  0.35154  1.0000
  H   H1563     1.0  0.64691  0.16727  0.35474  1.0000
  H   H1564     1.0  0.65422  0.18475  0.33707  1.0000
  N   N65       1.0  0.64334  0.26825  0.17959  1.0000
  C   C920      1.0  0.63191  0.26333  0.16291  1.0000
  C   C921      1.0  0.63454  0.27378  0.21340  1.0000
  C   C922      1.0  0.65583  0.25424  0.18794  1.0000
  C   C923      1.0  0.65021  0.28091  0.15315  1.0000
  H   H1565     1.0  0.65415  0.28217  0.47852  1.0000
  C   C924      1.0  0.62076  0.28747  0.20947  1.0000
  C   C925      1.0  0.66371  0.25334  0.21993  1.0000
  C   C926      1.0  0.66193  0.28794  0.16523  1.0000
  H   H1566     1.0  0.62513  0.25541  0.18296  1.0000
  H   H1567     1.0  0.62321  0.27350  0.15338  1.0000
  H   H1568     1.0  0.64223  0.27749  0.22742  1.0000
  H   H1569     1.0  0.62984  0.26401  0.23235  1.0000
  H   H1570     1.0  0.65100  0.24340  0.19403  1.0000
  H   H1571     1.0  0.66515  0.25296  0.16438  1.0000
  H   H1572     1.0  0.65656  0.27650  0.12851  1.0000
  H   H1573     1.0  0.64087  0.29060  0.14464  1.0000
  C   C927      1.0  0.72026  0.27041  0.99640  1.0000
  H   H1574     1.0  0.55866  0.23032  0.48365  1.0000
  H   H1575     1.0  0.49599  0.20210  0.21643  1.0000
  H   H1576     1.0  0.71267  0.30818  0.21516  1.0000
  H   H1577     1.0  0.66546  0.29757  0.14404  1.0000
  H   H1578     1.0  0.61119  0.28431  0.20030  1.0000
  H   H1579     1.0  0.67398  0.24371  0.21946  1.0000
  H   H1580     1.0  0.65570  0.25056  0.24533  1.0000
  H   H1581     1.0  0.66789  0.26405  0.21973  1.0000
  N   N66       1.0  0.73216  0.25623  0.00706  1.0000
  H   H1582     1.0  0.66282  0.29639  0.42530  1.0000
  H   H1583     1.0  0.67269  0.27926  0.16872  1.0000
  C   C928      1.0  0.71060  0.26633  0.13980  1.0000
  S   S268      1.0  0.55925  0.27930  0.42534  1.0000
  C   C929      1.0  0.57295  0.27823  0.45220  1.0000
  S   S269      1.0  0.56145  0.29780  0.32935  1.0000
  C   C930      1.0  0.73662  0.14164  0.23623  1.0000
  C   C931      1.0  0.73262  0.08659  0.31053  1.0000
  H   H1584     1.0  0.64927  0.16955  0.23646  1.0000
  H   H1585     1.0  0.50179  0.20346  0.15117  1.0000
  H   H1586     1.0  0.73171  0.07868  0.43468  1.0000
  H   H1587     1.0  0.73581  0.23153  0.00431  1.0000
  C   C932      1.0  0.72732  0.24243  0.99899  1.0000
  C   C933      1.0  0.71935  0.28752  0.28118  1.0000
  H   H1588     1.0  0.48848  0.22033  0.19267  1.0000
  C   C934      1.0  0.71496  0.23966  0.19165  1.0000
  H   H1589     1.0  0.55735  0.29366  0.48483  1.0000
  C   C935      1.0  0.49312  0.27475  0.28184  1.0000
  S   S270      1.0  0.53395  0.28768  0.28201  1.0000
  Fe  Fe136     1.0  0.56945  0.27697  0.36850  1.0000
  H   H1590     1.0  0.66268  0.16819  0.19616  1.0000
  C   C936      1.0  0.71788  0.15789  0.20022  1.0000
  C   C937      1.0  0.70363  0.25375  0.14027  1.0000
  C   C938      1.0  0.70494  0.29949  0.21992  1.0000
  C   C939      1.0  0.58769  0.26889  0.44665  1.0000
  H   H1591     1.0  0.50935  0.24170  0.42226  1.0000
  H   H1592     1.0  0.71281  0.28799  0.22024  1.0000
  H   H1593     1.0  0.52980  0.27203  0.48815  1.0000
  C   C940      1.0  0.49155  0.28572  0.37360  1.0000
  H   H1594     1.0  0.49116  0.20539  0.27253  1.0000
  N   N67       1.0  0.48973  0.25703  0.40173  1.0000
  H   H1595     1.0  0.70971  0.15895  0.18273  1.0000
  H   H1596     1.0  0.49971  0.29255  0.35453  1.0000
  H   H1597     1.0  0.62436  0.29803  0.19209  1.0000
  C   C941      1.0  0.64196  0.31323  0.44426  1.0000
  H   H1598     1.0  0.70986  0.22768  0.01432  1.0000
  H   H1599     1.0  0.67418  0.19632  0.31492  1.0000
  C   C942      1.0  0.67379  0.20804  0.99248  1.0000
  H   H1600     1.0  0.70166  0.24787  0.00918  1.0000
  H   H1601     1.0  0.68207  0.26432  0.26820  1.0000
  H   H1602     1.0  0.73648  0.11324  0.33728  1.0000
  H   H1603     1.0  0.70536  0.30944  0.28752  1.0000
  H   H1604     1.0  0.63393  0.31184  0.42760  1.0000
  H   H1605     1.0  0.72487  0.28720  0.02524  1.0000
  H   H1606     1.0  0.48859  0.29080  0.39820  1.0000
  S   S271      1.0  0.58200  0.27961  0.26658  1.0000
  H   H1607     1.0  0.65692  0.29295  0.18963  1.0000
  H   H1608     1.0  0.50998  0.26794  0.39242  1.0000
  H   H1609     1.0  0.61578  0.29062  0.23605  1.0000
  H   H1610     1.0  0.69849  0.26701  0.28292  1.0000
  H   H1611     1.0  0.50454  0.26558  0.35324  1.0000
  H   H1612     1.0  0.70890  0.27667  0.11984  1.0000
  C   C943      1.0  0.63486  0.28171  0.45436  1.0000
  H   H1613     1.0  0.71954  0.27596  0.27530  1.0000
  H   H1614     1.0  0.51843  0.24132  0.35918  1.0000
  C   C944      1.0  0.50028  0.24135  0.40706  1.0000
  S   S272      1.0  0.73215  0.25137  0.22516  1.0000
  C   C945      1.0  0.73050  0.16960  0.23368  1.0000
  H   H1615     1.0  0.69625  0.29367  0.31063  1.0000
  C   C946      1.0  0.69117  0.27157  0.26220  1.0000
  H   H1616     1.0  0.60336  0.30445  0.35371  1.0000
  H   H1617     1.0  0.72554  0.27502  0.16422  1.0000
  H   H1618     1.0  0.72636  0.08000  0.37888  1.0000
  H   H1619     1.0  0.62222  0.28609  0.45569  1.0000
  C   C947      1.0  0.70309  0.29808  0.28460  1.0000
  H   H1620     1.0  0.69573  0.14816  0.00057  1.0000
  H   H1621     1.0  0.50080  0.23591  0.35421  1.0000
  H   H1622     1.0  0.61403  0.30700  0.47919  1.0000
  C   C948      1.0  0.71996  0.26542  0.16498  1.0000
  H   H1623     1.0  0.63653  0.26880  0.45987  1.0000
  C   C949      1.0  0.68333  0.28866  0.26271  1.0000
  H   H1624     1.0  0.67597  0.28889  0.28941  1.0000
  N   N68       1.0  0.69399  0.30029  0.25484  1.0000
  H   H1625     1.0  0.64094  0.28511  0.42692  1.0000
  H   H1626     1.0  0.73640  0.23804  0.09344  1.0000
  H   H1627     1.0  0.54320  0.24457  0.46768  1.0000
  H   H1628     1.0  0.73195  0.17977  0.24242  1.0000
  H   H1629     1.0  0.66696  0.31372  0.43540  1.0000
  H   H1630     1.0  0.64410  0.26279  0.10743  1.0000
  H   H1631     1.0  0.72450  0.09581  0.32351  1.0000
  H   H1632     1.0  0.49204  0.18785  0.17331  1.0000
  H   H1633     1.0  0.71016  0.23819  0.04805  1.0000
  C   C950      1.0  0.60935  0.31408  0.34246  1.0000
  H   H1634     1.0  0.66357  0.31332  0.29446  1.0000
  H   H1635     1.0  0.70676  0.30066  0.16333  1.0000
  H   H1636     1.0  0.72784  0.07569  0.31782  1.0000
  C   C951      1.0  0.71131  0.23904  0.01904  1.0000
  H   H1637     1.0  0.57815  0.30525  0.40430  1.0000
  C   C952      1.0  0.73241  0.25498  0.04600  1.0000
  H   H1638     1.0  0.65930  0.31457  0.39632  1.0000
  S   S273      1.0  0.59993  0.31439  0.27938  1.0000
  H   H1639     1.0  0.69093  0.31433  0.18075  1.0000
  H   H1640     1.0  0.63333  0.30826  0.55529  1.0000
  H   H1641     1.0  0.52922  0.27477  0.56877  1.0000
  N   N69       1.0  0.63718  0.29476  0.70966  1.0000
  H   H1642     1.0  0.68312  0.18520  0.61712  1.0000
  C   C953      1.0  0.66671  0.21241  0.96208  1.0000
  H   H1643     1.0  0.66108  0.30233  0.49500  1.0000
  C   C954      1.0  0.60786  0.30626  0.72616  1.0000
  H   H1644     1.0  0.64508  0.26991  0.71867  1.0000
  H   H1645     1.0  0.65362  0.17551  0.89753  1.0000
  Fe  Fe137     1.0  0.59285  0.28107  0.65756  1.0000
  H   H1646     1.0  0.69287  0.18284  0.89594  1.0000
  S   S274      1.0  0.59970  0.26762  0.70951  1.0000
  Fe  Fe138     1.0  0.59545  0.28344  0.57819  1.0000
  S   S275      1.0  0.60593  0.27194  0.53051  1.0000
  C   C955      1.0  0.52790  0.24548  0.56606  1.0000
  H   H1647     1.0  0.67010  0.17588  0.73760  1.0000
  C   C956      1.0  0.68461  0.16644  0.96128  1.0000
  S   S276      1.0  0.57850  0.27420  0.62473  1.0000
  Fe  Fe139     1.0  0.67832  0.21848  0.75748  1.0000
  S   S277      1.0  0.67314  0.19931  0.80317  1.0000
  S   S278      1.0  0.66721  0.22624  0.70827  1.0000
  Fe  Fe140     1.0  0.70772  0.22079  0.78112  1.0000
  S   S279      1.0  0.70520  0.20186  0.82836  1.0000
  S   S280      1.0  0.57898  0.30546  0.65697  1.0000
  Fe  Fe141     1.0  0.69864  0.18931  0.79187  1.0000
  S   S281      1.0  0.70737  0.16357  0.79273  1.0000
  Fe  Fe142     1.0  0.68017  0.21352  0.83623  1.0000
  S   S282      1.0  0.66640  0.21688  0.89062  1.0000
  S   S283      1.0  0.70335  0.20735  0.74382  1.0000
  S   S284      1.0  0.68313  0.23367  0.79118  1.0000
  H   H1648     1.0  0.72263  0.15923  0.91035  1.0000
  C   C957      1.0  0.72221  0.15967  0.75645  1.0000
  H   H1649     1.0  0.66291  0.19631  0.68522  1.0000
  C   C958      1.0  0.71755  0.24562  0.86346  1.0000
  C   C959      1.0  0.67490  0.16066  0.91230  1.0000
  C   C960      1.0  0.71712  0.23911  0.83425  1.0000
  H   H1650     1.0  0.69909  0.21010  0.89837  1.0000
  C   C961      1.0  0.61819  0.25549  0.70908  1.0000
  C   C962      1.0  0.62787  0.25264  0.67718  1.0000
  C   C963      1.0  0.64279  0.24347  0.67745  1.0000
  C   C964      1.0  0.64820  0.23720  0.70954  1.0000
  C   C965      1.0  0.63851  0.23994  0.74154  1.0000
  C   C966      1.0  0.62350  0.24900  0.74127  1.0000
  H   H1651     1.0  0.62383  0.25738  0.65229  1.0000
  H   H1652     1.0  0.65019  0.24129  0.65264  1.0000
  H   H1653     1.0  0.64255  0.23507  0.76643  1.0000
  H   H1654     1.0  0.61603  0.25109  0.76608  1.0000
  C   C967      1.0  0.50330  0.27528  0.62949  1.0000
  C   C968      1.0  0.51664  0.26960  0.64528  1.0000
  C   C969      1.0  0.52793  0.27886  0.64166  1.0000
  C   C970      1.0  0.52601  0.29401  0.62225  1.0000
  C   C971      1.0  0.57868  0.28426  0.50507  1.0000
  C   C972      1.0  0.50142  0.29039  0.60987  1.0000
  H   H1655     1.0  0.51830  0.25790  0.66037  1.0000
  H   H1656     1.0  0.53810  0.27430  0.65405  1.0000
  H   H1657     1.0  0.72140  0.17766  0.88221  1.0000
  H   H1658     1.0  0.71432  0.17714  0.92807  1.0000
  H   H1659     1.0  0.71045  0.17218  0.62032  1.0000
  H   H1660     1.0  0.72895  0.18199  0.74728  1.0000
  H   H1661     1.0  0.57503  0.29012  0.52767  1.0000
  C   C973      1.0  0.62145  0.30947  0.49591  1.0000
  C   C974      1.0  0.55282  0.26482  0.57238  1.0000
  C   C975      1.0  0.71520  0.17089  0.90604  1.0000
  H   H1662     1.0  0.68154  0.13516  0.97723  1.0000
  C   C976      1.0  0.62216  0.29398  0.73574  1.0000
  H   H1663     1.0  0.54810  0.23450  0.59314  1.0000
  N   N70       1.0  0.68937  0.16033  0.92664  1.0000
  H   H1664     1.0  0.66035  0.28042  0.70293  1.0000
  H   H1665     1.0  0.68236  0.30839  0.73727  1.0000
  H   H1666     1.0  0.70764  0.29712  0.72375  1.0000
  C   C977      1.0  0.68024  0.18369  0.64664  1.0000
  Fe  Fe143     1.0  0.56584  0.29904  0.62029  1.0000
  H   H1667     1.0  0.65615  0.19532  0.64623  1.0000
  H   H1668     1.0  0.60507  0.30573  0.70026  1.0000
  H   H1669     1.0  0.64430  0.28980  0.62020  1.0000
  H   H1670     1.0  0.49150  0.29478  0.59662  1.0000
  H   H1671     1.0  0.66198  0.18347  0.92553  1.0000
  H   H1672     1.0  0.71443  0.31231  0.73484  1.0000
  C   C978      1.0  0.69339  0.27393  0.78058  1.0000
  H   H1673     1.0  0.50083  0.27815  0.50921  1.0000
  C   C979      1.0  0.65226  0.27827  0.75888  1.0000
  H   H1674     1.0  0.69363  0.15179  0.65218  1.0000
  H   H1675     1.0  0.68280  0.27023  0.79776  1.0000
  H   H1676     1.0  0.66702  0.15364  0.93173  1.0000
  H   H1677     1.0  0.71405  0.14536  0.64921  1.0000
  C   C980      1.0  0.69978  0.28381  0.79990  1.0000
  H   H1678     1.0  0.69017  0.28037  0.75497  1.0000
  N   N71       1.0  0.53551  0.25672  0.53651  1.0000
  H   H1679     1.0  0.55508  0.27564  0.57821  1.0000
  H   H1680     1.0  0.65417  0.21518  0.96507  1.0000
  H   H1681     1.0  0.59753  0.30388  0.74643  1.0000
  H   H1682     1.0  0.70077  0.16708  0.87259  1.0000
  C   C981      1.0  0.53944  0.26939  0.55104  1.0000
  N   N72       1.0  0.69453  0.18305  0.66180  1.0000
  S   S285      1.0  0.53978  0.30629  0.61729  1.0000
  H   H1683     1.0  0.70307  0.14953  0.69044  1.0000
  C   C982      1.0  0.70720  0.17006  0.64982  1.0000
  C   C983      1.0  0.69129  0.18150  0.70170  1.0000
  C   C984      1.0  0.71639  0.19913  0.65205  1.0000
  H   H1684     1.0  0.65354  0.30459  0.55689  1.0000
  H   H1685     1.0  0.64204  0.27567  0.77921  1.0000
  C   C985      1.0  0.68097  0.16969  0.72313  1.0000
  H   H1686     1.0  0.70045  0.20103  0.61689  1.0000
  H   H1687     1.0  0.68392  0.31341  0.77832  1.0000
  H   H1688     1.0  0.72079  0.29298  0.82464  1.0000
  H   H1689     1.0  0.73464  0.28869  0.97935  1.0000
  H   H1690     1.0  0.52075  0.25161  0.58767  1.0000
  C   C986      1.0  0.52412  0.26455  0.51178  1.0000
  H   H1691     1.0  0.70237  0.17846  0.71210  1.0000
  H   H1692     1.0  0.68552  0.19292  0.70960  1.0000
  H   H1693     1.0  0.70455  0.27571  0.82260  1.0000
  H   H1694     1.0  0.53167  0.22521  0.60730  1.0000
  H   H1695     1.0  0.63657  0.28095  0.50851  1.0000
  H   H1696     1.0  0.64507  0.28935  0.55021  1.0000
  C   C987      1.0  0.63411  0.29457  0.67324  1.0000
  Fe  Fe144     1.0  0.59674  0.31175  0.60874  1.0000
  C   C988      1.0  0.69564  0.16056  0.98867  1.0000
  C   C989      1.0  0.70014  0.19823  0.64615  1.0000
  H   H1697     1.0  0.62944  0.30650  0.66012  1.0000
  H   H1698     1.0  0.68710  0.16171  0.74379  1.0000
  H   H1699     1.0  0.72712  0.24400  0.97007  1.0000
  H   H1700     1.0  0.65046  0.27452  0.65441  1.0000
  H   H1701     1.0  0.71857  0.13643  0.75902  1.0000
  H   H1702     1.0  0.72254  0.27303  0.75073  1.0000
  H   H1703     1.0  0.62339  0.29537  0.76250  1.0000
  S   S286      1.0  0.72880  0.23168  0.76825  1.0000
  H   H1704     1.0  0.68277  0.17937  0.95625  1.0000
  C   C990      1.0  0.69196  0.20939  0.92442  1.0000
  H   H1705     1.0  0.69447  0.31136  0.83083  1.0000
  H   H1706     1.0  0.61897  0.28234  0.73936  1.0000
  S   S287      1.0  0.61101  0.28774  0.61132  1.0000
  H   H1707     1.0  0.71792  0.19492  0.67995  1.0000
  H   H1708     1.0  0.51145  0.28567  0.53307  1.0000
  C   C991      1.0  0.67575  0.21283  0.92795  1.0000
  H   H1709     1.0  0.70178  0.26305  0.77623  1.0000
  C   C992      1.0  0.51260  0.29975  0.60669  1.0000
  H   H1710     1.0  0.70290  0.14041  0.90405  1.0000
  C   C993      1.0  0.66480  0.17687  0.90331  1.0000
  H   H1711     1.0  0.67779  0.16228  0.70777  1.0000
  C   C994      1.0  0.66638  0.19673  0.65617  1.0000
  H   H1712     1.0  0.54382  0.22279  0.56567  1.0000
  C   C995      1.0  0.53868  0.23131  0.58371  1.0000
  H   H1713     1.0  0.71155  0.20187  0.95182  1.0000
  H   H1714     1.0  0.54956  0.25761  0.59851  1.0000
  H   H1715     1.0  0.54237  0.27901  0.52915  1.0000
  H   H1716     1.0  0.72577  0.19249  0.63456  1.0000
  H   H1717     1.0  0.62491  0.28766  0.67545  1.0000
  H   H1718     1.0  0.65739  0.31408  0.65890  1.0000
  H   H1719     1.0  0.72734  0.30631  0.78700  1.0000
  C   C996      1.0  0.73553  0.14301  0.71307  1.0000
  C   C997      1.0  0.59329  0.27465  0.50012  1.0000
  H   H1720     1.0  0.68967  0.29148  0.81281  1.0000
  N   N73       1.0  0.71193  0.29277  0.77751  1.0000
  H   H1721     1.0  0.56392  0.25928  0.55762  1.0000
  C   C998      1.0  0.71708  0.30125  0.80100  1.0000
  H   H1722     1.0  0.66165  0.26792  0.76276  1.0000
  C   C999      1.0  0.70658  0.30371  0.74557  1.0000
  C   C1000     1.0  0.64894  0.28058  0.72088  1.0000
  C   C1001     1.0  0.54998  0.24888  0.51482  1.0000
  C   C1002     1.0  0.69902  0.20481  0.95478  1.0000
  H   H1723     1.0  0.71797  0.21144  0.64514  1.0000
  H   H1724     1.0  0.67043  0.18384  0.87908  1.0000
  C   C1003     1.0  0.50911  0.27472  0.52819  1.0000
  H   H1725     1.0  0.50318  0.26843  0.55314  1.0000
  H   H1726     1.0  0.52020  0.25579  0.50114  1.0000
  H   H1727     1.0  0.70681  0.23503  0.83314  1.0000
  H   H1728     1.0  0.61776  0.30249  0.52234  1.0000
  C   C1004     1.0  0.69902  0.17053  0.89914  1.0000
  C   C1005     1.0  0.72978  0.23843  0.80622  1.0000
  H   H1729     1.0  0.69198  0.20812  0.65706  1.0000
  C   C1006     1.0  0.69824  0.14381  0.93066  1.0000
  H   H1730     1.0  0.65636  0.28832  0.76361  1.0000
  C   C1007     1.0  0.72583  0.28095  0.76496  1.0000
  H   H1731     1.0  0.71794  0.16962  0.66010  1.0000
  H   H1732     1.0  0.67312  0.16370  0.97561  1.0000
  H   H1733     1.0  0.55857  0.24213  0.53161  1.0000
  H   H1734     1.0  0.70757  0.24660  0.88460  1.0000
  H   H1735     1.0  0.67795  0.15536  0.88780  1.0000
  H   H1736     1.0  0.67579  0.17268  0.65460  1.0000
  C   C1008     1.0  0.73060  0.17118  0.73775  1.0000
  C   C1009     1.0  0.72498  0.14541  0.74457  1.0000
  S   S288      1.0  0.48979  0.26279  0.63375  1.0000
  C   C1010     1.0  0.70393  0.15339  0.66137  1.0000
  C   C1011     1.0  0.64876  0.30779  0.50345  1.0000
  C   C1012     1.0  0.64778  0.28737  0.64666  1.0000
  H   H1737     1.0  0.66766  0.30311  0.69444  1.0000
  H   H1738     1.0  0.73059  0.27342  0.78807  1.0000
  H   H1739     1.0  0.70769  0.16222  0.97787  1.0000
  C   C1013     1.0  0.68968  0.31295  0.75062  1.0000
  C   C1014     1.0  0.54739  0.23784  0.49224  1.0000
  H   H1740     1.0  0.51944  0.24056  0.55667  1.0000
  H   H1741     1.0  0.55609  0.25774  0.49625  1.0000
  S   S289      1.0  0.58238  0.30793  0.57181  1.0000
  H   H1742     1.0  0.66883  0.20845  0.64339  1.0000
  C   C1015     1.0  0.64480  0.30207  0.54370  1.0000
  H   H1743     1.0  0.70864  0.14254  0.94286  1.0000
  H   H1744     1.0  0.64269  0.31048  0.73818  1.0000
  H   H1745     1.0  0.48925  0.29824  0.67912  1.0000
  C   C1016     1.0  0.68889  0.13140  0.95285  1.0000
  C   C1017     1.0  0.65783  0.31245  0.68749  1.0000
  C   C1018     1.0  0.64219  0.30965  0.71054  1.0000
  H   H1746     1.0  0.51100  0.31142  0.59150  1.0000
  H   H1747     1.0  0.68144  0.12850  0.93685  1.0000
  H   H1748     1.0  0.69705  0.12051  0.96094  1.0000
  C   C1019     1.0  0.68997  0.20393  0.98890  1.0000
  H   H1749     1.0  0.71848  0.27098  0.96878  1.0000
  H   H1750     1.0  0.65850  0.29200  0.64356  1.0000
  H   H1751     1.0  0.71430  0.29562  0.98991  1.0000
  H   H1752     1.0  0.53908  0.23023  0.50710  1.0000
  C   C1020     1.0  0.73069  0.25134  0.86462  1.0000
  S   S290      1.0  0.73052  0.26170  0.89781  1.0000
  H   H1753     1.0  0.73602  0.29447  0.71426  1.0000
  Fe  Fe145     1.0  0.66078  0.38653  0.36003  1.0000
  S   S291      1.0  0.68566  0.37427  0.35214  1.0000
  S   S292      1.0  0.65364  0.41149  0.37036  1.0000
  Fe  Fe146     1.0  0.64835  0.35625  0.36481  1.0000
  S   S293      1.0  0.67240  0.34202  0.35829  1.0000
  S   S294      1.0  0.62826  0.34303  0.38017  1.0000
  Fe  Fe147     1.0  0.67724  0.35555  0.39520  1.0000
  S   S295      1.0  0.68896  0.34331  0.44156  1.0000
  Fe  Fe148     1.0  0.67838  0.36191  0.31593  1.0000
  S   S296      1.0  0.69230  0.35677  0.26327  1.0000
  S   S297      1.0  0.65279  0.36832  0.40544  1.0000
  S   S298      1.0  0.65388  0.37568  0.31993  1.0000
  Fe  Fe149     1.0  0.71338  0.51038  0.35028  1.0000
  S   S299      1.0  0.69731  0.50604  0.31809  1.0000
  H   H1754     1.0  0.71591  0.54173  0.28956  1.0000
  Fe  Fe150     1.0  0.69383  0.49780  0.42012  1.0000
  S   S300      1.0  0.67597  0.49280  0.39400  1.0000
  H   H1755     1.0  0.59383  0.36821  0.34412  1.0000
  Fe  Fe151     1.0  0.69624  0.48311  0.35540  1.0000
  S   S301      1.0  0.69938  0.46020  0.33563  1.0000
  Fe  Fe152     1.0  0.67818  0.51599  0.35918  1.0000
  S   S302      1.0  0.65780  0.53311  0.34009  1.0000
  S   S303      1.0  0.71408  0.48655  0.38397  1.0000
  S   S304      1.0  0.69428  0.52190  0.38892  1.0000
  C   C1021     1.0  0.70982  0.34319  0.26370  1.0000
  H   H1756     1.0  0.64866  0.48149  0.37680  1.0000
  H   H1757     1.0  0.72939  0.48809  0.47981  1.0000
  S   S305      1.0  0.58842  0.61650  0.45272  1.0000
  C   C1022     1.0  0.72107  0.54783  0.40309  1.0000
  Fe  Fe153     1.0  0.61032  0.60588  0.41935  1.0000
  S   S306      1.0  0.62253  0.58176  0.44077  1.0000
  C   C1023     1.0  0.73533  0.62544  0.27173  1.0000
  C   C1024     1.0  0.73132  0.36469  0.33555  1.0000
  H   H1758     1.0  0.73025  0.63686  0.28006  1.0000
  H   H1759     1.0  0.52132  0.64119  0.40592  1.0000
  S   S307      1.0  0.55445  0.63387  0.39913  1.0000
  S   S308      1.0  0.69392  0.48945  0.47850  1.0000
  H   H1760     1.0  0.66660  0.63274  0.45050  1.0000
  H   H1761     1.0  0.72933  0.38921  0.38572  1.0000
  H   H1762     1.0  0.71243  0.39047  0.36606  1.0000
  N   N74       1.0  0.71636  0.62612  0.22992  1.0000
  H   H1763     1.0  0.69692  0.59885  0.21596  1.0000
  C   C1025     1.0  0.64366  0.39475  0.47144  1.0000
  C   C1026     1.0  0.54081  0.62257  0.39682  1.0000
  C   C1027     1.0  0.54528  0.60726  0.39056  1.0000
  C   C1028     1.0  0.53402  0.59905  0.38756  1.0000
  C   C1029     1.0  0.51818  0.60601  0.39079  1.0000
  H   H1764     1.0  0.62470  0.52054  0.27575  1.0000
  H   H1765     1.0  0.70877  0.33957  0.32022  1.0000
  H   H1766     1.0  0.55744  0.60183  0.38757  1.0000
  H   H1767     1.0  0.53764  0.58727  0.38236  1.0000
  H   H1768     1.0  0.55769  0.32254  0.37210  1.0000
  S   S309      1.0  0.63059  0.64521  0.32011  1.0000
  H   H1769     1.0  0.72010  0.36259  0.33131  1.0000
  H   H1770     1.0  0.64793  0.63485  0.43961  1.0000
  C   C1030     1.0  0.61818  0.33284  0.29217  1.0000
  C   C1031     1.0  0.64842  0.54690  0.36774  1.0000
  C   C1032     1.0  0.65073  0.54455  0.40284  1.0000
  C   C1033     1.0  0.64277  0.55537  0.42485  1.0000
  C   C1034     1.0  0.63264  0.56875  0.41181  1.0000
  C   C1035     1.0  0.63051  0.57123  0.37653  1.0000
  C   C1036     1.0  0.63827  0.56025  0.35467  1.0000
  H   H1771     1.0  0.65843  0.53425  0.41327  1.0000
  H   H1772     1.0  0.64443  0.55334  0.45213  1.0000
  H   H1773     1.0  0.62269  0.58148  0.36628  1.0000
  H   H1774     1.0  0.63642  0.56214  0.32756  1.0000
  C   C1037     1.0  0.72003  0.36734  0.39685  1.0000
  C   C1038     1.0  0.68590  0.37230  0.45753  1.0000
  H   H1775     1.0  0.70266  0.64249  0.28797  1.0000
  H   H1776     1.0  0.68284  0.37684  0.43153  1.0000
  H   H1777     1.0  0.58757  0.34450  0.38225  1.0000
  C   C1039     1.0  0.62304  0.33348  0.35056  1.0000
  H   H1778     1.0  0.55087  0.37477  0.38005  1.0000
  C   C1040     1.0  0.61014  0.32047  0.30641  1.0000
  C   C1041     1.0  0.66729  0.49412  0.25814  1.0000
  C   C1042     1.0  0.68936  0.35624  0.46919  1.0000
  C   C1043     1.0  0.62473  0.33925  0.31409  1.0000
  H   H1779     1.0  0.50492  0.60409  0.31050  1.0000
  H   H1780     1.0  0.64318  0.50211  0.36572  1.0000
  H   H1781     1.0  0.55869  0.35106  0.27890  1.0000
  H   H1782     1.0  0.63038  0.34914  0.30307  1.0000
  C   C1044     1.0  0.66701  0.42431  0.36270  1.0000
  C   C1045     1.0  0.68133  0.42182  0.34000  1.0000
  C   C1046     1.0  0.69117  0.43282  0.33250  1.0000
  C   C1047     1.0  0.68695  0.44630  0.34792  1.0000
  C   C1048     1.0  0.67283  0.44859  0.37143  1.0000
  C   C1049     1.0  0.66286  0.43770  0.37852  1.0000
  H   H1783     1.0  0.68463  0.41164  0.32745  1.0000
  H   H1784     1.0  0.70206  0.43094  0.31427  1.0000
  H   H1785     1.0  0.66954  0.45878  0.38388  1.0000
  H   H1786     1.0  0.65184  0.43969  0.39623  1.0000
  N   N75       1.0  0.73344  0.35875  0.37371  1.0000
  H   H1787     1.0  0.52481  0.61091  0.48118  1.0000
  H   H1788     1.0  0.72864  0.60571  0.26021  1.0000
  H   H1789     1.0  0.68394  0.39501  0.47006  1.0000
  H   H1790     1.0  0.63984  0.32596  0.44431  1.0000
  H   H1791     1.0  0.70893  0.36449  0.39430  1.0000
  C   C1050     1.0  0.71092  0.64329  0.23009  1.0000
  H   H1792     1.0  0.58918  0.34384  0.33688  1.0000
  C   C1051     1.0  0.48903  0.62903  0.27566  1.0000
  C   C1052     1.0  0.73215  0.32785  0.23123  1.0000
  H   H1793     1.0  0.70245  0.44097  0.44962  1.0000
  H   H1794     1.0  0.71889  0.54780  0.37619  1.0000
  H   H1795     1.0  0.61414  0.31617  0.39263  1.0000
  C   C1053     1.0  0.68401  0.31636  0.25218  1.0000
  S   S310      1.0  0.60181  0.61582  0.36751  1.0000
  H   H1796     1.0  0.55489  0.36320  0.32974  1.0000
  H   H1797     1.0  0.63975  0.39985  0.44565  1.0000
  Fe  Fe154     1.0  0.60027  0.63671  0.44598  1.0000
  H   H1798     1.0  0.51616  0.63368  0.32033  1.0000
  H   H1799     1.0  0.53680  0.63342  0.26854  1.0000
  C   C1054     1.0  0.50450  0.63389  0.31470  1.0000
  H   H1800     1.0  0.64672  0.40427  0.48101  1.0000
  H   H1801     1.0  0.72053  0.36354  0.42544  1.0000
  H   H1802     1.0  0.54583  0.34672  0.34173  1.0000
  S   S311      1.0  0.62275  0.62531  0.41703  1.0000
  H   H1803     1.0  0.52406  0.56464  0.45707  1.0000
  H   H1804     1.0  0.72427  0.52313  0.40435  1.0000
  C   C1055     1.0  0.48711  0.62157  0.24515  1.0000
  H   H1805     1.0  0.51246  0.59270  0.45753  1.0000
  C   C1056     1.0  0.73326  0.49687  0.45682  1.0000
  H   H1806     1.0  0.65625  0.46927  0.26207  1.0000
  C   C1057     1.0  0.55740  0.35030  0.33534  1.0000
  H   H1807     1.0  0.64446  0.52114  0.25621  1.0000
  H   H1808     1.0  0.63154  0.46825  0.30625  1.0000
  H   H1809     1.0  0.64262  0.46423  0.34224  1.0000
  C   C1058     1.0  0.68652  0.38259  0.47937  1.0000
  H   H1810     1.0  0.62963  0.49343  0.29869  1.0000
  C   C1059     1.0  0.71532  0.33642  0.29540  1.0000
  H   H1811     1.0  0.54023  0.36829  0.42271  1.0000
  H   H1812     1.0  0.69616  0.62573  0.20756  1.0000
  H   H1813     1.0  0.63857  0.51817  0.30396  1.0000
  H   H1814     1.0  0.65418  0.38585  0.46584  1.0000
  H   H1815     1.0  0.71260  0.52965  0.44262  1.0000
  C   C1060     1.0  0.52493  0.62940  0.40077  1.0000
  H   H1816     1.0  0.68541  0.47299  0.25291  1.0000
  H   H1817     1.0  0.69390  0.62014  0.25361  1.0000
  N   N76       1.0  0.56585  0.34414  0.36641  1.0000
  C   C1061     1.0  0.70269  0.61913  0.22900  1.0000
  Fe  Fe155     1.0  0.61301  0.63619  0.36730  1.0000
  H   H1818     1.0  0.61887  0.33785  0.26430  1.0000
  C   C1062     1.0  0.58147  0.34899  0.35921  1.0000
  C   C1063     1.0  0.61557  0.32071  0.36449  1.0000
  C   C1064     1.0  0.72304  0.61797  0.26271  1.0000
  H   H1819     1.0  0.73068  0.37749  0.32853  1.0000
  H   H1820     1.0  0.68396  0.52308  0.46674  1.0000
  H   H1821     1.0  0.71706  0.59830  0.20804  1.0000
  H   H1822     1.0  0.56669  0.33246  0.30094  1.0000
  H   H1823     1.0  0.72595  0.63717  0.02340  1.0000
  C   C1065     1.0  0.58154  0.36654  0.35040  1.0000
  H   H1824     1.0  0.72136  0.34005  0.37582  1.0000
  H   H1825     1.0  0.51255  0.60498  0.26457  1.0000
  H   H1826     1.0  0.53116  0.61140  0.31564  1.0000
  H   H1827     1.0  0.57715  0.32217  0.34948  1.0000
  C   C1066     1.0  0.72351  0.62877  0.16154  1.0000
  C   C1067     1.0  0.72358  0.53088  0.42355  1.0000
  C   C1068     1.0  0.70627  0.60165  0.22670  1.0000
  H   H1828     1.0  0.71038  0.38999  0.41242  1.0000
  H   H1829     1.0  0.71537  0.62158  0.15898  1.0000
  S   S312      1.0  0.50450  0.59522  0.38620  1.0000
  H   H1830     1.0  0.70746  0.45718  0.46295  1.0000
  H   H1831     1.0  0.68984  0.45946  0.44645  1.0000
  C   C1069     1.0  0.71825  0.33884  0.23169  1.0000
  H   H1832     1.0  0.64896  0.35947  0.48492  1.0000
  H   H1833     1.0  0.71042  0.55482  0.41639  1.0000
  H   H1834     1.0  0.66860  0.48257  0.33054  1.0000
  H   H1835     1.0  0.69204  0.49096  0.23647  1.0000
  C   C1070     1.0  0.64308  0.46366  0.31412  1.0000
  C   C1071     1.0  0.65603  0.47144  0.28918  1.0000
  H   H1836     1.0  0.71406  0.34406  0.20710  1.0000
  C   C1072     1.0  0.64519  0.49109  0.35521  1.0000
  H   H1837     1.0  0.71372  0.61696  0.28651  1.0000
  C   C1073     1.0  0.67300  0.32021  0.28662  1.0000
  Fe  Fe156     1.0  0.58057  0.62795  0.40097  1.0000
  C   C1074     1.0  0.72732  0.54482  0.28289  1.0000
  H   H1838     1.0  0.50346  0.56809  0.46410  1.0000
  C   C1075     1.0  0.51354  0.58456  0.48290  1.0000
  C   C1076     1.0  0.63689  0.51532  0.27901  1.0000
  C   C1077     1.0  0.54504  0.36526  0.39595  1.0000
  H   H1839     1.0  0.50150  0.62657  0.40157  1.0000
  H   H1840     1.0  0.66791  0.50643  0.25786  1.0000
  H   H1841     1.0  0.63388  0.48973  0.35082  1.0000
  C   C1078     1.0  0.72891  0.62412  0.19783  1.0000
  H   H1842     1.0  0.54794  0.34090  0.41309  1.0000
  C   C1079     1.0  0.71815  0.38525  0.38949  1.0000
  C   C1080     1.0  0.63954  0.49761  0.27993  1.0000
  S   S313      1.0  0.73657  0.51867  0.33154  1.0000
  H   H1843     1.0  0.64576  0.45106  0.31253  1.0000
  C   C1081     1.0  0.55593  0.34919  0.39991  1.0000
  H   H1844     1.0  0.53756  0.60815  0.27010  1.0000
  C   C1082     1.0  0.51366  0.62115  0.39813  1.0000
  H   H1845     1.0  0.66708  0.46458  0.29735  1.0000
  H   H1846     1.0  0.70715  0.59432  0.25320  1.0000
  C   C1083     1.0  0.65845  0.49128  0.32245  1.0000
  H   H1847     1.0  0.66433  0.49392  0.23203  1.0000
  H   H1848     1.0  0.48853  0.60873  0.25278  1.0000
  N   N77       1.0  0.65505  0.48856  0.28839  1.0000
  H   H1849     1.0  0.63794  0.49580  0.25375  1.0000
  C   C1084     1.0  0.72666  0.63167  0.00031  1.0000
  H   H1850     1.0  0.62752  0.37884  0.48494  1.0000
  C   C1085     1.0  0.51455  0.63602  0.24908  1.0000
  C   C1086     1.0  0.56861  0.32660  0.37185  1.0000
  H   H1851     1.0  0.68805  0.48455  0.28313  1.0000
  H   H1852     1.0  0.58500  0.32147  0.41022  1.0000
  H   H1853     1.0  0.73176  0.32100  0.42193  1.0000
  C   C1087     1.0  0.68406  0.48497  0.25809  1.0000
  H   H1854     1.0  0.66228  0.50264  0.31825  1.0000
  C   C1088     1.0  0.52913  0.60580  0.29493  1.0000
  H   H1855     1.0  0.57735  0.34833  0.29074  1.0000
  H   H1856     1.0  0.72060  0.56513  0.24460  1.0000
  H   H1857     1.0  0.57628  0.37233  0.32669  1.0000
  N   N78       1.0  0.50546  0.62748  0.28154  1.0000
  H   H1858     1.0  0.73382  0.62675  0.14039  1.0000
  H   H1859     1.0  0.53499  0.36490  0.38394  1.0000
  H   H1860     1.0  0.57592  0.37229  0.37346  1.0000
  H   H1861     1.0  0.66729  0.33266  0.28183  1.0000
  C   C1089     1.0  0.56571  0.34512  0.29980  1.0000
  C   C1090     1.0  0.73250  0.34169  0.38160  1.0000
  C   C1091     1.0  0.69786  0.45124  0.46294  1.0000
  H   H1862     1.0  0.53170  0.59305  0.30471  1.0000
  H   H1863     1.0  0.72340  0.62014  0.01179  1.0000
  C   C1092     1.0  0.57463  0.31778  0.40619  1.0000
  C   C1093     1.0  0.73001  0.55811  0.25746  1.0000
  C   C1094     1.0  0.73372  0.33303  0.41963  1.0000
  C   C1095     1.0  0.73443  0.51142  0.47055  1.0000
  H   H1864     1.0  0.51913  0.62846  0.22856  1.0000
  H   H1865     1.0  0.52543  0.58438  0.48704  1.0000
  C   C1096     1.0  0.72933  0.32555  0.29485  1.0000
  C   C1097     1.0  0.51233  0.61033  0.28782  1.0000
  H   H1866     1.0  0.61311  0.33372  0.47218  1.0000
  H   H1867     1.0  0.69141  0.32542  0.24304  1.0000
  H   H1868     1.0  0.56330  0.34887  0.41973  1.0000
  H   H1869     1.0  0.49891  0.62640  0.33822  1.0000
  H   H1870     1.0  0.67639  0.31834  0.23206  1.0000
  H   H1871     1.0  0.56648  0.64171  0.48413  1.0000
  C   C1098     1.0  0.51348  0.56818  0.47643  1.0000
  H   H1872     1.0  0.65041  0.64377  0.47482  1.0000
  H   H1873     1.0  0.71465  0.54647  0.47983  1.0000
  H   H1874     1.0  0.72454  0.49948  0.43914  1.0000
  C   C1099     1.0  0.65551  0.64108  0.44810  1.0000
  H   H1875     1.0  0.67924  0.31870  0.30900  1.0000
  H   H1876     1.0  0.56546  0.31868  0.43005  1.0000
  H   H1877     1.0  0.68738  0.64488  0.26239  1.0000
  H   H1878     1.0  0.71753  0.42848  0.49105  1.0000
  H   H1879     1.0  0.72473  0.33829  0.44005  1.0000
  H   H1880     1.0  0.49516  0.62476  0.22020  1.0000
  H   H1881     1.0  0.73080  0.55402  0.39904  1.0000
  H   H1882     1.0  0.71835  0.64131  0.15597  1.0000
  H   H1883     1.0  0.73362  0.32035  0.31932  1.0000
  H   H1884     1.0  0.54547  0.64610  0.48945  1.0000
  C   C1100     1.0  0.52842  0.64233  0.25462  1.0000
  H   H1885     1.0  0.50688  0.64629  0.23615  1.0000
  H   H1886     1.0  0.53490  0.64682  0.22828  1.0000
  H   H1887     1.0  0.73550  0.61198  0.19967  1.0000
  H   H1888     1.0  0.72335  0.51414  0.48921  1.0000
  C   C1101     1.0  0.72577  0.54302  0.49000  1.0000
  C   C1102     1.0  0.69876  0.64780  0.26236  1.0000
  S   S314      1.0  0.61170  0.33053  0.59170  1.0000
  H   H1889     1.0  0.71028  0.63964  0.78162  1.0000
  H   H1890     1.0  0.65583  0.58265  0.54590  1.0000
  N   N79       1.0  0.64964  0.57239  0.60117  1.0000
  S   S315      1.0  0.70770  0.50883  0.71813  1.0000
  H   H1891     1.0  0.68751  0.59383  0.70316  1.0000
  Fe  Fe157     1.0  0.69905  0.52772  0.62422  1.0000
  S   S316      1.0  0.68751  0.50827  0.65672  1.0000
  S   S317      1.0  0.69327  0.53955  0.57067  1.0000
  Fe  Fe158     1.0  0.68486  0.52080  0.70183  1.0000
  S   S318      1.0  0.66330  0.52142  0.74319  1.0000
  Fe  Fe159     1.0  0.71107  0.49750  0.66989  1.0000
  S   S319      1.0  0.71973  0.47141  0.67061  1.0000
  S   S320      1.0  0.69395  0.54137  0.66825  1.0000
  C   C1103     1.0  0.62261  0.58977  0.59482  1.0000
  Fe  Fe160     1.0  0.68825  0.38179  0.59937  1.0000
  S   S321      1.0  0.66663  0.39396  0.62975  1.0000
  H   H1892     1.0  0.62245  0.36701  0.58144  1.0000
  Fe  Fe161     1.0  0.69976  0.36412  0.66723  1.0000
  S   S322      1.0  0.67883  0.37544  0.70226  1.0000
  H   H1893     1.0  0.53112  0.63985  0.54833  1.0000
  Fe  Fe162     1.0  0.66526  0.37074  0.66448  1.0000
  S   S323      1.0  0.64256  0.36153  0.68371  1.0000
  Fe  Fe163     1.0  0.68226  0.39775  0.66370  1.0000
  S   S324      1.0  0.67685  0.42300  0.67275  1.0000
  S   S325      1.0  0.68590  0.35826  0.63164  1.0000
  S   S326      1.0  0.70411  0.38668  0.63124  1.0000
  C   C1104     1.0  0.69011  0.37688  0.51343  1.0000
  S   S327      1.0  0.60869  0.61404  0.68791  1.0000
  C   C1105     1.0  0.67403  0.44556  0.57504  1.0000
  Fe  Fe164     1.0  0.61981  0.60874  0.73638  1.0000
  S   S328      1.0  0.62375  0.58634  0.77493  1.0000
  H   H1894     1.0  0.67957  0.58353  0.67949  1.0000
  S   S329      1.0  0.60367  0.62814  0.76067  1.0000
  H   H1895     1.0  0.66654  0.48631  0.69973  1.0000
  S   S330      1.0  0.52574  0.60085  0.67793  1.0000
  C   C1106     1.0  0.55655  0.63155  0.69947  1.0000
  C   C1107     1.0  0.51716  0.57540  0.56115  1.0000
  C   C1108     1.0  0.53163  0.62884  0.68733  1.0000
  C   C1109     1.0  0.53728  0.61305  0.68593  1.0000
  C   C1110     1.0  0.55263  0.60665  0.69091  1.0000
  C   C1111     1.0  0.56223  0.61584  0.69747  1.0000
  C   C1112     1.0  0.51356  0.62542  0.78595  1.0000
  C   C1113     1.0  0.48749  0.63423  0.81843  1.0000
  H   H1896     1.0  0.55713  0.59447  0.68978  1.0000
  H   H1897     1.0  0.57400  0.61069  0.70137  1.0000
  H   H1898     1.0  0.64593  0.47453  0.77038  1.0000
  H   H1899     1.0  0.65477  0.49106  0.76344  1.0000
  C   C1114     1.0  0.50258  0.59905  0.76966  1.0000
  C   C1115     1.0  0.68684  0.44114  0.76456  1.0000
  H   H1900     1.0  0.71055  0.35964  0.74710  1.0000
  C   C1116     1.0  0.65234  0.53978  0.74976  1.0000
  C   C1117     1.0  0.65275  0.55303  0.72316  1.0000
  C   C1118     1.0  0.64384  0.56755  0.72997  1.0000
  C   C1119     1.0  0.63469  0.56869  0.76351  1.0000
  C   C1120     1.0  0.63439  0.55541  0.78979  1.0000
  C   C1121     1.0  0.64304  0.54102  0.78286  1.0000
  H   H1901     1.0  0.65985  0.55203  0.69747  1.0000
  H   H1902     1.0  0.64408  0.57782  0.70960  1.0000
  H   H1903     1.0  0.62732  0.55624  0.81569  1.0000
  H   H1904     1.0  0.64262  0.53083  0.80343  1.0000
  C   C1122     1.0  0.70828  0.45811  0.66694  1.0000
  C   C1123     1.0  0.69314  0.46312  0.65976  1.0000
  C   C1124     1.0  0.68392  0.45219  0.66021  1.0000
  C   C1125     1.0  0.68976  0.43611  0.66729  1.0000
  C   C1126     1.0  0.70515  0.43108  0.67266  1.0000
  C   C1127     1.0  0.71432  0.44204  0.67262  1.0000
  H   H1905     1.0  0.68843  0.47540  0.65443  1.0000
  H   H1906     1.0  0.67208  0.45622  0.65572  1.0000
  H   H1907     1.0  0.70980  0.41876  0.67824  1.0000
  H   H1908     1.0  0.64281  0.57112  0.51844  1.0000
  C   C1128     1.0  0.62094  0.33652  0.62079  1.0000
  C   C1129     1.0  0.63655  0.33828  0.61005  1.0000
  C   C1130     1.0  0.64342  0.34574  0.62928  1.0000
  C   C1131     1.0  0.63472  0.35147  0.65947  1.0000
  C   C1132     1.0  0.61933  0.34911  0.67099  1.0000
  C   C1133     1.0  0.61246  0.34165  0.65181  1.0000
  H   H1909     1.0  0.64324  0.33427  0.58622  1.0000
  H   H1910     1.0  0.65537  0.34723  0.62052  1.0000
  H   H1911     1.0  0.61254  0.35343  0.69445  1.0000
  H   H1912     1.0  0.60038  0.34056  0.66013  1.0000
  N   N80       1.0  0.63368  0.38081  0.53425  1.0000
  C   C1134     1.0  0.70275  0.63642  0.80754  1.0000
  C   C1135     1.0  0.61601  0.32693  0.49795  1.0000
  C   C1136     1.0  0.69813  0.49888  0.53684  1.0000
  C   C1137     1.0  0.69817  0.50992  0.55728  1.0000
  C   C1138     1.0  0.69306  0.52571  0.54521  1.0000
  C   C1139     1.0  0.66540  0.48183  0.82338  1.0000
  H   H1913     1.0  0.70216  0.48669  0.54639  1.0000
  H   H1914     1.0  0.70233  0.50617  0.58226  1.0000
  H   H1915     1.0  0.67832  0.45885  0.81866  1.0000
  H   H1916     1.0  0.66834  0.58863  0.71991  1.0000
  H   H1917     1.0  0.62385  0.59103  0.56561  1.0000
  H   H1918     1.0  0.64262  0.61931  0.54144  1.0000
  C   C1140     1.0  0.65647  0.47937  0.75625  1.0000
  S   S331      1.0  0.73041  0.54669  0.68996  1.0000
  H   H1919     1.0  0.67422  0.59842  0.76341  1.0000
  H   H1920     1.0  0.49300  0.58510  0.56857  1.0000
  H   H1921     1.0  0.68392  0.54268  0.50310  1.0000
  H   H1922     1.0  0.63119  0.56552  0.55997  1.0000
  S   S332      1.0  0.69025  0.39020  0.54031  1.0000
  H   H1923     1.0  0.60490  0.39633  0.56062  1.0000
  H   H1924     1.0  0.67784  0.45651  0.57509  1.0000
  H   H1925     1.0  0.48906  0.33068  0.69391  1.0000
  H   H1926     1.0  0.67355  0.48974  0.80949  1.0000
  C   C1141     1.0  0.67251  0.45354  0.75669  1.0000
  N   N81       1.0  0.67098  0.46902  0.76773  1.0000
  N   N82       1.0  0.55419  0.63774  0.56009  1.0000
  C   C1142     1.0  0.65594  0.48246  0.71615  1.0000
  H   H1927     1.0  0.61590  0.58057  0.60872  1.0000
  H   H1928     1.0  0.66556  0.63887  0.75523  1.0000
  H   H1929     1.0  0.52000  0.63402  0.68263  1.0000
  H   H1930     1.0  0.66480  0.44813  0.55861  1.0000
  H   H1931     1.0  0.65908  0.63812  0.80156  1.0000
  H   H1932     1.0  0.71611  0.58659  0.78973  1.0000
  H   H1933     1.0  0.61859  0.36410  0.54181  1.0000
  H   H1934     1.0  0.70960  0.54811  0.75909  1.0000
  H   H1935     1.0  0.52662  0.62703  0.60928  1.0000
  C   C1143     1.0  0.64260  0.55890  0.62356  1.0000
  H   H1936     1.0  0.66585  0.56336  0.55764  1.0000
  H   H1937     1.0  0.68819  0.53706  0.75138  1.0000
  C   C1144     1.0  0.60881  0.64318  0.52383  1.0000
  C   C1145     1.0  0.65317  0.54272  0.62348  1.0000
  N   N83       1.0  0.49643  0.62620  0.78805  1.0000
  H   H1938     1.0  0.70198  0.45046  0.59200  1.0000
  C   C1146     1.0  0.50249  0.60678  0.51451  1.0000
  H   H1939     1.0  0.63169  0.55809  0.61577  1.0000
  H   H1940     1.0  0.62463  0.33202  0.50585  1.0000
  C   C1147     1.0  0.63586  0.39359  0.55138  1.0000
  H   H1941     1.0  0.57129  0.62256  0.52874  1.0000
  H   H1942     1.0  0.69625  0.35635  0.55153  1.0000
  H   H1943     1.0  0.52637  0.60189  0.52664  1.0000
  N   N84       1.0  0.50118  0.59049  0.51208  1.0000
  C   C1148     1.0  0.49254  0.61016  0.79445  1.0000
  H   H1944     1.0  0.64615  0.53358  0.63610  1.0000
  H   H1945     1.0  0.65851  0.54057  0.59631  1.0000
  H   H1946     1.0  0.66245  0.54110  0.63938  1.0000
  H   H1947     1.0  0.66199  0.44832  0.76897  1.0000
  C   C1149     1.0  0.72693  0.34719  0.78161  1.0000
  C   C1150     1.0  0.72049  0.35039  0.75036  1.0000
  H   H1948     1.0  0.65744  0.59297  0.79217  1.0000
  H   H1949     1.0  0.52555  0.61428  0.58119  1.0000
  Fe  Fe165     1.0  0.71734  0.52884  0.68128  1.0000
  C   C1151     1.0  0.62720  0.63346  0.57746  1.0000
  H   H1950     1.0  0.72905  0.41927  0.54363  1.0000
  H   H1951     1.0  0.64402  0.37951  0.59987  1.0000
  H   H1952     1.0  0.68378  0.58398  0.60767  1.0000
  H   H1953     1.0  0.65017  0.36314  0.56084  1.0000
  C   C1152     1.0  0.64834  0.36863  0.53348  1.0000
  H   H1954     1.0  0.70103  0.46202  0.53043  1.0000
  S   S333      1.0  0.71870  0.34415  0.68490  1.0000
  C   C1153     1.0  0.68763  0.43300  0.56188  1.0000
  C   C1154     1.0  0.62246  0.63209  0.51920  1.0000
  H   H1955     1.0  0.59796  0.38461  0.53762  1.0000
  C   C1155     1.0  0.72685  0.34147  0.72364  1.0000
  H   H1956     1.0  0.68245  0.42347  0.55755  1.0000
  C   C1156     1.0  0.55091  0.64295  0.59558  1.0000
  H   H1957     1.0  0.48882  0.62648  0.84434  1.0000
  H   H1958     1.0  0.62728  0.40446  0.54549  1.0000
  H   H1959     1.0  0.51493  0.59604  0.77299  1.0000
  S   S334      1.0  0.49460  0.60532  0.61775  1.0000
  C   C1157     1.0  0.51897  0.61033  0.50937  1.0000
  C   C1158     1.0  0.70232  0.61909  0.81043  1.0000
  N   N85       1.0  0.69853  0.43860  0.52884  1.0000
  H   H1960     1.0  0.66119  0.57242  0.64456  1.0000
  C   C1159     1.0  0.54118  0.63799  0.69442  1.0000
  S   S335      1.0  0.48677  0.63206  0.66826  1.0000
  H   H1961     1.0  0.69380  0.42770  0.58455  1.0000
  Fe  Fe166     1.0  0.59409  0.63478  0.71002  1.0000
  H   H1962     1.0  0.71850  0.45007  0.51461  1.0000
  H   H1963     1.0  0.51741  0.56414  0.57988  1.0000
  H   H1964     1.0  0.71061  0.31952  0.83259  1.0000
  H   H1965     1.0  0.69400  0.63324  0.88034  1.0000
  H   H1966     1.0  0.50493  0.31656  0.67805  1.0000
  H   H1967     1.0  0.56699  0.61357  0.60998  1.0000
  C   C1160     1.0  0.72301  0.63695  0.89579  1.0000
  C   C1161     1.0  0.67240  0.58639  0.59867  1.0000
  C   C1162     1.0  0.49207  0.63490  0.75316  1.0000
  C   C1163     1.0  0.68880  0.44670  0.50070  1.0000
  C   C1164     1.0  0.53367  0.62008  0.58908  1.0000
  H   H1968     1.0  0.59710  0.37999  0.58520  1.0000
  H   H1969     1.0  0.54227  0.61080  0.60141  1.0000
  H   H1970     1.0  0.66868  0.44114  0.60264  1.0000
  H   H1971     1.0  0.66579  0.59734  0.60758  1.0000
  C   C1165     1.0  0.62020  0.37335  0.55486  1.0000
  C   C1166     1.0  0.49241  0.32140  0.67748  1.0000
  C   C1167     1.0  0.56953  0.62671  0.55436  1.0000
  H   H1972     1.0  0.61552  0.60092  0.60188  1.0000
  H   H1973     1.0  0.70257  0.61635  0.78395  1.0000
  H   H1974     1.0  0.70990  0.47160  0.74738  1.0000
  H   H1975     1.0  0.49813  0.58797  0.77607  1.0000
  Fe  Fe167     1.0  0.50069  0.60794  0.66848  1.0000
  H   H1976     1.0  0.69592  0.33808  0.51213  1.0000
  C   C1168     1.0  0.60420  0.38429  0.55949  1.0000
  C   C1169     1.0  0.52035  0.61613  0.81888  1.0000
  H   H1977     1.0  0.57948  0.63272  0.55090  1.0000
  Fe  Fe168     1.0  0.62619  0.62966  0.66607  1.0000
  H   H1978     1.0  0.69981  0.48082  0.78340  1.0000
  H   H1979     1.0  0.49223  0.64457  0.81941  1.0000
  H   H1980     1.0  0.52746  0.57331  0.54032  1.0000
  C   C1170     1.0  0.66970  0.63686  0.78093  1.0000
  H   H1981     1.0  0.69391  0.52796  0.79262  1.0000
  H   H1982     1.0  0.63906  0.56060  0.65177  1.0000
  H   H1983     1.0  0.66677  0.47878  0.85170  1.0000
  C   C1171     1.0  0.65428  0.57111  0.56230  1.0000
  H   H1984     1.0  0.49612  0.60998  0.54036  1.0000
  H   H1985     1.0  0.71822  0.43549  0.58056  1.0000
  C   C1172     1.0  0.67668  0.64331  0.84505  1.0000
  H   H1986     1.0  0.64739  0.39700  0.54005  1.0000
  H   H1987     1.0  0.64821  0.55234  0.54279  1.0000
  H   H1988     1.0  0.63999  0.34834  0.52544  1.0000
  C   C1173     1.0  0.68480  0.47662  0.75003  1.0000
  C   C1174     1.0  0.63047  0.38764  0.49734  1.0000
  C   C1175     1.0  0.69931  0.47185  0.76823  1.0000
  H   H1989     1.0  0.68861  0.47458  0.72224  1.0000
  H   H1990     1.0  0.68138  0.48947  0.74799  1.0000
  H   H1991     1.0  0.64601  0.49201  0.71063  1.0000
  H   H1992     1.0  0.56778  0.60230  0.57618  1.0000
  C   C1176     1.0  0.68797  0.53046  0.51247  1.0000
  C   C1177     1.0  0.57214  0.61189  0.58250  1.0000
  H   H1993     1.0  0.70063  0.46028  0.78525  1.0000
  H   H1994     1.0  0.62597  0.62729  0.49498  1.0000
  N   N86       1.0  0.69104  0.56828  0.76239  1.0000
  C   C1178     1.0  0.69817  0.55165  0.77587  1.0000
  C   C1179     1.0  0.70309  0.57810  0.75929  1.0000
  C   C1180     1.0  0.68779  0.56888  0.72587  1.0000
  C   C1181     1.0  0.67622  0.57295  0.78765  1.0000
  C   C1182     1.0  0.68840  0.53920  0.77808  1.0000
  C   C1183     1.0  0.70928  0.57724  0.79364  1.0000
  C   C1184     1.0  0.68042  0.58478  0.70659  1.0000
  C   C1185     1.0  0.67037  0.59056  0.78797  1.0000
  C   C1186     1.0  0.68803  0.51939  0.49182  1.0000
  H   H1995     1.0  0.67297  0.63217  0.84653  1.0000
  H   H1996     1.0  0.69892  0.59053  0.74940  1.0000
  H   H1997     1.0  0.71336  0.57466  0.73890  1.0000
  H   H1998     1.0  0.69871  0.56459  0.70814  1.0000
  H   H1999     1.0  0.67966  0.56107  0.72683  1.0000
  H   H2000     1.0  0.66655  0.56825  0.78246  1.0000
  H   H2001     1.0  0.67766  0.56757  0.81545  1.0000
  S   S336      1.0  0.63861  0.62255  0.71311  1.0000
  C   C1187     1.0  0.66400  0.57257  0.61538  1.0000
  H   H2002     1.0  0.67316  0.45496  0.72770  1.0000
  H   H2003     1.0  0.51878  0.60386  0.82478  1.0000
  H   H2004     1.0  0.70246  0.41752  0.50718  1.0000
  C   C1188     1.0  0.73256  0.63042  0.86742  1.0000
  H   H2005     1.0  0.72188  0.35403  0.80231  1.0000
  C   C1189     1.0  0.63182  0.62752  0.54563  1.0000
  H   H2006     1.0  0.70966  0.63730  0.82706  1.0000
  H   H2007     1.0  0.69980  0.57874  0.81666  1.0000
  H   H2008     1.0  0.72605  0.43800  0.67791  1.0000
  H   H2009     1.0  0.67486  0.58808  0.56929  1.0000
  C   C1190     1.0  0.69337  0.36082  0.52536  1.0000
  H   H2010     1.0  0.71848  0.62949  0.91955  1.0000
  H   H2011     1.0  0.68604  0.43028  0.75617  1.0000
  C   C1191     1.0  0.71953  0.41384  0.54075  1.0000
  H   H2012     1.0  0.67343  0.59389  0.81099  1.0000
  H   H2013     1.0  0.58481  0.60814  0.58276  1.0000
  H   H2014     1.0  0.49324  0.60412  0.82217  1.0000
  H   H2015     1.0  0.69771  0.44465  0.74853  1.0000
  H   H2016     1.0  0.71747  0.56611  0.79974  1.0000
  H   H2017     1.0  0.65836  0.46085  0.81953  1.0000
  H   H2018     1.0  0.68757  0.43813  0.79314  1.0000
  C   C1192     1.0  0.64920  0.35526  0.51353  1.0000
  H   H2019     1.0  0.65394  0.47218  0.70746  1.0000
  H   H2020     1.0  0.49746  0.56889  0.54802  1.0000
  H   H2021     1.0  0.67618  0.62480  0.78514  1.0000
  H   H2022     1.0  0.57477  0.64173  0.60397  1.0000
  H   H2023     1.0  0.68969  0.32522  0.73705  1.0000
  H   H2024     1.0  0.65331  0.48824  0.82271  1.0000
  C   C1193     1.0  0.66845  0.46678  0.80769  1.0000
  H   H2025     1.0  0.64361  0.59751  0.59074  1.0000
  H   H2026     1.0  0.70060  0.55037  0.80314  1.0000
  H   H2027     1.0  0.71285  0.40970  0.56694  1.0000
  H   H2028     1.0  0.49917  0.62904  0.73122  1.0000
  H   H2029     1.0  0.62343  0.38769  0.60646  1.0000
  C   C1194     1.0  0.64332  0.56462  0.54589  1.0000
  H   H2030     1.0  0.69238  0.61514  0.82946  1.0000
  C   C1195     1.0  0.69317  0.50359  0.50398  1.0000
  C   C1196     1.0  0.54101  0.63059  0.55613  1.0000
  H   H2031     1.0  0.52047  0.62049  0.76235  1.0000
  C   C1197     1.0  0.63849  0.58741  0.60624  1.0000
  S   S337      1.0  0.72305  0.51640  0.63410  1.0000
  C   C1198     1.0  0.50160  0.57980  0.54740  1.0000
  H   H2032     1.0  0.72780  0.55335  0.49854  1.0000
  H   H2033     1.0  0.63732  0.39976  0.60112  1.0000
  C   C1199     1.0  0.70764  0.44989  0.53467  1.0000
  H   H2034     1.0  0.63623  0.58889  0.63458  1.0000
  H   H2035     1.0  0.67291  0.56196  0.61149  1.0000
  S   S338      1.0  0.63902  0.62764  0.61041  1.0000
  C   C1200     1.0  0.69320  0.35050  0.50302  1.0000
  H   H2036     1.0  0.67636  0.54213  0.79251  1.0000
  C   C1201     1.0  0.63508  0.38969  0.59197  1.0000
  H   H2037     1.0  0.54901  0.63328  0.61793  1.0000
  H   H2038     1.0  0.72518  0.40325  0.52909  1.0000
  H   H2039     1.0  0.64897  0.32044  0.49911  1.0000
  H   H2040     1.0  0.72023  0.45540  0.57077  1.0000
  C   C1202     1.0  0.71223  0.44742  0.57160  1.0000
  C   C1203     1.0  0.70927  0.42475  0.51532  1.0000
  H   H2041     1.0  0.71278  0.61198  0.82088  1.0000
  H   H2042     1.0  0.72459  0.53399  0.51422  1.0000
  H   H2043     1.0  0.54478  0.62365  0.53430  1.0000
  Fe  Fe169     1.0  0.62202  0.64255  0.73503  1.0000
  H   H2044     1.0  0.51848  0.58431  0.57554  1.0000
  H   H2045     1.0  0.60555  0.32841  0.51895  1.0000
  H   H2046     1.0  0.51621  0.63732  0.78173  1.0000
  H   H2047     1.0  0.50190  0.60379  0.74146  1.0000
  H   H2048     1.0  0.65874  0.37398  0.52169  1.0000
  H   H2049     1.0  0.66028  0.32347  0.69189  1.0000
  H   H2050     1.0  0.51532  0.62166  0.84260  1.0000
  H   H2051     1.0  0.62002  0.39709  0.49818  1.0000
  H   H2052     1.0  0.53307  0.61594  0.81367  1.0000
  H   H2053     1.0  0.51797  0.62202  0.51597  1.0000
  H   H2054     1.0  0.49690  0.61547  0.49386  1.0000
  H   H2055     1.0  0.66045  0.34713  0.51536  1.0000
  H   H2056     1.0  0.49161  0.32642  0.64951  1.0000
  H   H2057     1.0  0.51379  0.55933  0.50095  1.0000
  H   H2058     1.0  0.68138  0.45772  0.50790  1.0000
  S   S339      1.0  0.56824  0.64349  0.70805  1.0000
  H   H2059     1.0  0.71786  0.63852  0.98413  1.0000
  H   H2060     1.0  0.70274  0.32467  0.79289  1.0000
  H   H2061     1.0  0.67442  0.63773  0.90252  1.0000
  H   H2062     1.0  0.60920  0.31824  0.72647  1.0000
  C   C1204     1.0  0.68303  0.64185  0.87945  1.0000
  H   H2063     1.0  0.63348  0.31989  0.70167  1.0000
  C   C1205     1.0  0.61333  0.64421  0.58240  1.0000
  C   C1206     1.0  0.70529  0.31490  0.81483  1.0000
  H   H2064     1.0  0.73533  0.61795  0.86945  1.0000
  H   H2065     1.0  0.68063  0.43932  0.49854  1.0000
  N   N87       1.0  0.68748  0.64765  0.81080  1.0000
  N   N88       1.0  0.64572  0.66931  0.41667  1.0000
  C   C1207     1.0  0.66546  0.68484  0.37325  1.0000
  H   H2066     1.0  0.63383  0.72665  0.17561  1.0000
  C   C1208     1.0  0.63265  0.69646  0.17313  1.0000
  H   H2067     1.0  0.66594  0.69237  0.39190  1.0000
  C   C1209     1.0  0.69460  0.70605  0.04767  1.0000
  Fe  Fe170     1.0  0.70074  0.73490  0.22007  1.0000
  S   S340      1.0  0.69484  0.71699  0.26827  1.0000
  S   S341      1.0  0.71284  0.75538  0.21605  1.0000
  Fe  Fe171     1.0  0.69516  0.71548  0.16813  1.0000
  S   S342      1.0  0.68942  0.69607  0.21285  1.0000
  S   S343      1.0  0.69900  0.70988  0.11211  1.0000
  Fe  Fe172     1.0  0.67536  0.71472  0.24252  1.0000
  S   S344      1.0  0.65135  0.71138  0.27357  1.0000
  Fe  Fe173     1.0  0.70908  0.69976  0.23483  1.0000
  H   H2068     1.0  0.62901  0.66450  0.48541  1.0000
  S   S345      1.0  0.67982  0.73436  0.19639  1.0000
  S   S346      1.0  0.71621  0.71746  0.18823  1.0000
  C   C1210     1.0  0.64738  0.68559  0.10374  1.0000
  H   H2069     1.0  0.61706  0.68550  0.39041  1.0000
  H   H2070     1.0  0.66749  0.70946  0.15490  1.0000
  S   S347      1.0  0.59733  0.65018  0.49041  1.0000
  H   H2071     1.0  0.65006  0.67288  0.35924  1.0000
  C   C1211     1.0  0.73336  0.76796  0.23971  1.0000
  C   C1212     1.0  0.70228  0.75203  0.00952  1.0000
  H   H2072     1.0  0.60610  0.67155  0.41672  1.0000
  C   C1213     1.0  0.64588  0.69284  0.28754  1.0000
  C   C1214     1.0  0.63094  0.69169  0.30711  1.0000
  C   C1215     1.0  0.62614  0.67717  0.31806  1.0000
  C   C1216     1.0  0.63619  0.66367  0.30902  1.0000
  C   C1217     1.0  0.65107  0.66486  0.28927  1.0000
  C   C1218     1.0  0.65598  0.67930  0.27902  1.0000
  H   H2073     1.0  0.62300  0.70211  0.31369  1.0000
  H   H2074     1.0  0.61455  0.67645  0.33274  1.0000
  H   H2075     1.0  0.66685  0.69202  0.34621  1.0000
  H   H2076     1.0  0.66753  0.67992  0.26435  1.0000
  C   C1219     1.0  0.68908  0.71467  0.07537  1.0000
  H   H2077     1.0  0.64081  0.69000  0.37688  1.0000
  C   C1220     1.0  0.67603  0.72656  0.07290  1.0000
  H   H2078     1.0  0.70571  0.64913  0.20621  1.0000
  H   H2079     1.0  0.67177  0.73343  0.09376  1.0000
  C   C1221     1.0  0.65887  0.65550  0.42025  1.0000
  C   C1222     1.0  0.72997  0.77430  0.29873  1.0000
  C   C1223     1.0  0.70409  0.83680  0.22836  1.0000
  C   C1224     1.0  0.64977  0.67927  0.38086  1.0000
  H   H2080     1.0  0.71461  0.85543  0.23401  1.0000
  S   S348      1.0  0.73459  0.78405  0.32924  1.0000
  H   H2081     1.0  0.55657  0.66121  0.47519  1.0000
  C   C1225     1.0  0.66863  0.72971  0.04298  1.0000
  H   H2082     1.0  0.72134  0.68502  0.18328  1.0000
  H   H2083     1.0  0.63521  0.68932  0.09894  1.0000
  H   H2084     1.0  0.62549  0.70711  0.16015  1.0000
  C   C1226     1.0  0.65217  0.69804  0.11892  1.0000
  N   N89       1.0  0.64970  0.69601  0.15881  1.0000
  H   H2085     1.0  0.69455  0.83875  0.25112  1.0000
  H   H2086     1.0  0.67550  0.67502  0.37316  1.0000
  H   H2087     1.0  0.62788  0.65520  0.44019  1.0000
  H   H2088     1.0  0.63694  0.69080  0.43779  1.0000
  C   C1227     1.0  0.71991  0.76129  0.24933  1.0000
  C   C1228     1.0  0.71177  0.76076  0.28416  1.0000
  C   C1229     1.0  0.71664  0.76745  0.30848  1.0000
  H   H2089     1.0  0.62872  0.68663  0.16656  1.0000
  H   H2090     1.0  0.68167  0.66586  0.17210  1.0000
  H   H2091     1.0  0.70131  0.75585  0.29191  1.0000
  H   H2092     1.0  0.71387  0.75436  0.00982  1.0000
  H   H2093     1.0  0.65930  0.68060  0.20282  1.0000
  H   H2094     1.0  0.65589  0.70671  0.19743  1.0000
  H   H2095     1.0  0.65861  0.73899  0.04116  1.0000
  H   H2096     1.0  0.65548  0.68153  0.44606  1.0000
  H   H2097     1.0  0.64545  0.70934  0.10757  1.0000
  H   H2098     1.0  0.49790  0.65525  0.33691  1.0000
  C   C1230     1.0  0.67421  0.72106  0.01524  1.0000
  H   H2099     1.0  0.65887  0.65449  0.28205  1.0000
  H   H2100     1.0  0.72263  0.81069  0.26761  1.0000
  H   H2101     1.0  0.66441  0.69894  0.10669  1.0000
  H   H2102     1.0  0.63228  0.65799  0.39364  1.0000
  C   C1231     1.0  0.65535  0.70893  0.16860  1.0000
  H   H2103     1.0  0.64845  0.67404  0.12102  1.0000
  H   H2104     1.0  0.69684  0.66062  0.26068  1.0000
  H   H2105     1.0  0.70691  0.82430  0.22618  1.0000
  H   H2106     1.0  0.67615  0.67315  0.12953  1.0000
  C   C1232     1.0  0.71623  0.83544  0.29477  1.0000
  C   C1233     1.0  0.67565  0.67623  0.15576  1.0000
  H   H2107     1.0  0.65521  0.68388  0.07815  1.0000
  H   H2108     1.0  0.70182  0.73953  0.01883  1.0000
  H   H2109     1.0  0.65140  0.73382  0.16773  1.0000
  H   H2110     1.0  0.66304  0.65116  0.39454  1.0000
  C   C1234     1.0  0.68720  0.70915  0.01794  1.0000
  C   C1235     1.0  0.65874  0.68067  0.17466  1.0000
  H   H2111     1.0  0.61360  0.68295  0.43855  1.0000
  H   H2112     1.0  0.70467  0.69681  0.04931  1.0000
  S   S349      1.0  0.72691  0.67993  0.25490  1.0000
  C   C1236     1.0  0.63087  0.66402  0.41660  1.0000
  H   H2113     1.0  0.64541  0.72925  0.13140  1.0000
  C   C1237     1.0  0.62791  0.69541  0.21372  1.0000
  H   H2114     1.0  0.63331  0.68414  0.22819  1.0000
  N   N90       1.0  0.72728  0.83405  0.26002  1.0000
  C   C1238     1.0  0.64578  0.72547  0.16007  1.0000
  H   H2115     1.0  0.63072  0.70509  0.22321  1.0000
  C   C1239     1.0  0.73151  0.67611  0.18594  1.0000
  H   H2116     1.0  0.65277  0.67086  0.17607  1.0000
  C   C1240     1.0  0.64401  0.67902  0.44484  1.0000
  H   H2117     1.0  0.61512  0.69616  0.22117  1.0000
  H   H2118     1.0  0.70989  0.76751  0.33490  1.0000
  C   C1241     1.0  0.61626  0.67694  0.41540  1.0000
  H   H2119     1.0  0.70660  0.82903  0.29766  1.0000
  H   H2120     1.0  0.49824  0.65863  0.28985  1.0000
  C   C1242     1.0  0.73255  0.81701  0.25780  1.0000
  C   C1243     1.0  0.71850  0.84299  0.23086  1.0000
  H   H2121     1.0  0.68228  0.68565  0.15218  1.0000
  H   H2122     1.0  0.73357  0.80541  0.21316  1.0000
  H   H2123     1.0  0.73404  0.67168  0.13291  1.0000
  C   C1244     1.0  0.63729  0.67223  0.48330  1.0000
  H   H2124     1.0  0.69951  0.84327  0.20406  1.0000
  H   H2125     1.0  0.72583  0.84351  0.20427  1.0000
  C   C1245     1.0  0.72328  0.82924  0.32889  1.0000
  H   H2126     1.0  0.71377  0.82943  0.35230  1.0000
  H   H2127     1.0  0.66905  0.65894  0.42647  1.0000
  H   H2128     1.0  0.73113  0.83666  0.33205  1.0000
  C   C1246     1.0  0.49529  0.65065  0.31507  1.0000
  H   H2129     1.0  0.72947  0.81704  0.33003  1.0000
  H   H2130     1.0  0.69154  0.70224  0.99720  1.0000
  H   H2131     1.0  0.69390  0.75822  0.02957  1.0000
  H   H2132     1.0  0.71062  0.84782  0.29574  1.0000
  S   S350      1.0  0.59124  0.64911  0.39622  1.0000
  H   H2133     1.0  0.72091  0.64899  0.22824  1.0000
  H   H2134     1.0  0.73655  0.85336  0.26689  1.0000
  H   H2135     1.0  0.52452  0.65223  0.26923  1.0000
  Fe  Fe174     1.0  0.67128  0.70576  0.85748  1.0000
  S   S351      1.0  0.66817  0.69354  0.91464  1.0000
  S   S352      1.0  0.65829  0.70561  0.81282  1.0000
  Fe  Fe175     1.0  0.70068  0.71713  0.86306  1.0000
  S   S353      1.0  0.70008  0.70497  0.91964  1.0000
  S   S354      1.0  0.72188  0.72878  0.84453  1.0000
  Fe  Fe176     1.0  0.69396  0.68530  0.90287  1.0000
  C   C1247     1.0  0.72464  0.66268  0.86200  1.0000
  Fe  Fe177     1.0  0.67464  0.71437  0.92801  1.0000
  S   S355      1.0  0.66479  0.72555  0.97761  1.0000
  S   S356      1.0  0.69687  0.69625  0.84530  1.0000
  S   S357      1.0  0.67526  0.72774  0.87175  1.0000
  H   H2136     1.0  0.61532  0.69468  0.72284  1.0000
  C   C1248     1.0  0.57386  0.66375  0.78147  1.0000
  H   H2137     1.0  0.72071  0.77077  0.93802  1.0000
  C   C1249     1.0  0.56605  0.71311  0.78952  1.0000
  H   H2138     1.0  0.72682  0.75527  0.62091  1.0000
  H   H2139     1.0  0.56533  0.65712  0.53129  1.0000
  H   H2140     1.0  0.60701  0.68253  0.70338  1.0000
  H   H2141     1.0  0.64672  0.66593  0.49827  1.0000
  H   H2142     1.0  0.71278  0.73162  0.91812  1.0000
  C   C1250     1.0  0.59575  0.68864  0.78925  1.0000
  H   H2143     1.0  0.59021  0.71182  0.73512  1.0000
  C   C1251     1.0  0.71117  0.77661  0.57651  1.0000
  H   H2144     1.0  0.56834  0.72221  0.76596  1.0000
  H   H2145     1.0  0.69947  0.73076  0.95852  1.0000
  H   H2146     1.0  0.59398  0.65808  0.55878  1.0000
  H   H2147     1.0  0.63046  0.68186  0.49712  1.0000
  H   H2148     1.0  0.57541  0.66173  0.80943  1.0000
  H   H2149     1.0  0.57999  0.68074  0.83885  1.0000
  C   C1252     1.0  0.69701  0.75784  0.97330  1.0000
  C   C1253     1.0  0.65049  0.69061  0.80318  1.0000
  C   C1254     1.0  0.64939  0.69062  0.76781  1.0000
  C   C1255     1.0  0.64283  0.67925  0.75914  1.0000
  C   C1256     1.0  0.63692  0.66792  0.78594  1.0000
  H   H2150     1.0  0.70488  0.77221  0.60317  1.0000
  C   C1257     1.0  0.64474  0.67916  0.82986  1.0000
  H   H2151     1.0  0.65370  0.69948  0.74696  1.0000
  H   H2152     1.0  0.64222  0.67936  0.73181  1.0000
  C   C1258     1.0  0.70071  0.76001  0.90908  1.0000
  H   H2153     1.0  0.64526  0.67913  0.85723  1.0000
  C   C1259     1.0  0.72538  0.74310  0.80638  1.0000
  H   H2154     1.0  0.70788  0.75576  0.88485  1.0000
  C   C1260     1.0  0.49437  0.65199  0.74265  1.0000
  H   H2155     1.0  0.57625  0.65218  0.77342  1.0000
  C   C1261     1.0  0.71772  0.76087  0.75412  1.0000
  C   C1262     1.0  0.71449  0.74930  0.78387  1.0000
  S   S358      1.0  0.61107  0.65098  0.68555  1.0000
  H   H2156     1.0  0.70019  0.77284  0.90381  1.0000
  H   H2157     1.0  0.70920  0.76569  0.73695  1.0000
  H   H2158     1.0  0.70357  0.74525  0.78946  1.0000
  S   S359      1.0  0.62774  0.65369  0.77732  1.0000
  H   H2159     1.0  0.55373  0.71662  0.80198  1.0000
  C   C1263     1.0  0.69085  0.66345  0.81094  1.0000
  C   C1264     1.0  0.70007  0.67119  0.77614  1.0000
  H   H2160     1.0  0.54468  0.66141  0.53742  1.0000
  H   H2161     1.0  0.53672  0.65017  0.69553  1.0000
  H   H2162     1.0  0.72949  0.75243  0.95891  1.0000
  H   H2163     1.0  0.72228  0.67510  0.86048  1.0000
  H   H2164     1.0  0.69770  0.66283  0.83193  1.0000
  H   H2165     1.0  0.67985  0.67183  0.81738  1.0000
  S   S360      1.0  0.70487  0.66116  0.92560  1.0000
  C   C1265     1.0  0.55498  0.65211  0.53176  1.0000
  H   H2166     1.0  0.71894  0.76676  0.56520  1.0000
  C   C1266     1.0  0.60437  0.64931  0.55532  1.0000
  C   C1267     1.0  0.58965  0.70017  0.73037  1.0000
  H   H2167     1.0  0.56546  0.66101  0.58478  1.0000
  C   C1268     1.0  0.60580  0.69436  0.70916  1.0000
  H   H2168     1.0  0.70261  0.78132  0.55832  1.0000
  C   C1269     1.0  0.58494  0.67388  0.75625  1.0000
  H   H2169     1.0  0.72349  0.66221  0.98526  1.0000
  C   C1270     1.0  0.55588  0.64989  0.49324  1.0000
  H   H2170     1.0  0.71184  0.79598  0.59898  1.0000
  H   H2171     1.0  0.71909  0.79838  0.55343  1.0000
  C   C1271     1.0  0.63787  0.66801  0.82130  1.0000
  H   H2172     1.0  0.69393  0.67326  0.75334  1.0000
  C   C1272     1.0  0.71035  0.73498  0.94477  1.0000
  H   H2173     1.0  0.67533  0.76449  0.92751  1.0000
  H   H2174     1.0  0.73335  0.80472  0.63701  1.0000
  H   H2175     1.0  0.60971  0.64894  0.60670  1.0000
  H   H2176     1.0  0.56154  0.66874  0.77922  1.0000
  H   H2177     1.0  0.68128  0.76076  0.88318  1.0000
  H   H2178     1.0  0.72538  0.78127  0.64219  1.0000
  C   C1273     1.0  0.68420  0.75728  0.91030  1.0000
  N   N91       1.0  0.70801  0.75242  0.94148  1.0000
  H   H2179     1.0  0.59818  0.68305  0.84475  1.0000
  C   C1274     1.0  0.71954  0.78963  0.57832  1.0000
  H   H2180     1.0  0.59688  0.66677  0.75495  1.0000
  H   H2181     1.0  0.68568  0.75404  0.97693  1.0000
  C   C1275     1.0  0.73361  0.65618  0.83304  1.0000
  H   H2182     1.0  0.72200  0.81585  0.60360  1.0000
  H   H2183     1.0  0.68329  0.74489  0.91937  1.0000
  C   C1276     1.0  0.56364  0.65014  0.60350  1.0000
  H   H2184     1.0  0.68461  0.65323  0.88352  1.0000
  H   H2185     1.0  0.69434  0.77081  0.96919  1.0000
  H   H2186     1.0  0.58196  0.67500  0.72946  1.0000
  N   N92       1.0  0.58455  0.68972  0.76471  1.0000
  H   H2187     1.0  0.67164  0.66052  0.77547  1.0000
  C   C1277     1.0  0.72363  0.72497  0.96372  1.0000
  H   H2188     1.0  0.57326  0.71307  0.80930  1.0000
  H   H2189     1.0  0.59714  0.66649  0.82665  1.0000
  H   H2190     1.0  0.60753  0.70226  0.68317  1.0000
  C   C1278     1.0  0.72306  0.75810  0.93689  1.0000
  C   C1279     1.0  0.71867  0.65309  0.89258  1.0000
  C   C1280     1.0  0.73386  0.81039  0.60879  1.0000
  H   H2191     1.0  0.60755  0.68312  0.77772  1.0000
  C   C1281     1.0  0.59242  0.67907  0.82676  1.0000
  H   H2192     1.0  0.63322  0.65941  0.84232  1.0000
  H   H2193     1.0  0.71200  0.66448  0.76978  1.0000
  H   H2194     1.0  0.56035  0.69788  0.76024  1.0000
  H   H2195     1.0  0.56323  0.68948  0.80389  1.0000
  H   H2196     1.0  0.70137  0.68280  0.77952  1.0000
  H   H2197     1.0  0.59750  0.70029  0.79149  1.0000
  C   C1282     1.0  0.56818  0.69691  0.77955  1.0000
  H   H2198     1.0  0.72268  0.71254  0.96753  1.0000
  H   H2199     1.0  0.58106  0.70221  0.71228  1.0000
  H   H2200     1.0  0.50620  0.65273  0.72722  1.0000
  H   H2201     1.0  0.49251  0.65798  0.76552  1.0000
  H   H2202     1.0  0.73500  0.78311  0.51324  1.0000
  C   C1283     1.0  0.73183  0.76631  0.74663  1.0000
  H   H2203     1.0  0.55995  0.65333  0.63034  1.0000
  H   H2204     1.0  0.73082  0.76482  0.87937  1.0000
  H   H2205     1.0  0.66570  0.65205  0.84664  1.0000
  H   H2206     1.0  0.53981  0.65156  0.59826  1.0000
  H   H2207     1.0  0.73410  0.75431  0.66042  1.0000
  H   H2208     1.0  0.72889  0.67736  0.95047  1.0000
  C   C1284     1.0  0.73345  0.66767  0.97072  1.0000
  C   C1285     1.0  0.73443  0.75580  0.90187  1.0000
  S   S361      1.0  0.73535  0.78096  0.70916  1.0000
  C   C1286     1.0  0.67965  0.64908  0.77941  1.0000
  H   H2209     1.0  0.68837  0.64890  0.75446  1.0000
  N   N93       1.0  0.73582  0.78468  0.58631  1.0000
  H   H2210     1.0  0.73520  0.72606  0.94738  1.0000
  H   H2211     1.0  0.73537  0.74418  0.89509  1.0000
  C   C1287     1.0  0.73570  0.77610  0.62408  1.0000
  H   H2212     1.0  0.72324  0.72754  0.99025  1.0000
  C   C1288     1.0  0.73601  0.75843  0.63121  1.0000
  Fe  Fe178     1.0  0.96068  0.10683  0.16237  1.0000
  S   S362      1.0  0.95785  0.12732  0.11855  1.0000
  S   S363      1.0  0.93934  0.09513  0.17609  1.0000
  Fe  Fe179     1.0  0.96405  0.14060  0.15441  1.0000
  S   S364      1.0  0.94970  0.16483  0.15496  1.0000
  S   S365      1.0  0.96587  0.12048  0.19956  1.0000
  Fe  Fe180     1.0  0.90585  0.03252  0.11224  1.0000
  S   S366      1.0  0.88479  0.05067  0.10302  1.0000
  S   S367      1.0  0.92913  0.03888  0.11262  1.0000
  S   S368      1.0  0.86797  0.02217  0.09512  1.0000
  Fe  Fe181     1.0  0.88344  0.03806  0.06024  1.0000
  H   H2213     1.0  0.74880  0.30484  0.02509  1.0000
  Fe  Fe182     1.0  0.87138  0.03314  0.13907  1.0000
  S   S369      1.0  0.85199  0.03792  0.18521  1.0000
  S   S370      1.0  0.90522  0.02085  0.06741  1.0000
  S   S371      1.0  0.89268  0.01553  0.15159  1.0000
  Fe  Fe183     1.0  0.80387  0.11330  0.25216  1.0000
  S   S372      1.0  0.78530  0.09992  0.28182  1.0000
  S   S373      1.0  0.82469  0.10696  0.21036  1.0000
  Fe  Fe184     1.0  0.78966  0.14106  0.28872  1.0000
  S   S374      1.0  0.76967  0.13040  0.32174  1.0000
  S   S375      1.0  0.79335  0.16455  0.29292  1.0000
  Fe  Fe185     1.0  0.78760  0.10863  0.32999  1.0000
  S   S376      1.0  0.79082  0.09261  0.38212  1.0000
  Fe  Fe186     1.0  0.76868  0.12269  0.27142  1.0000
  H   H2214     1.0  0.76793  0.23171  0.28856  1.0000
  S   S377      1.0  0.80767  0.11988  0.30123  1.0000
  S   S378      1.0  0.78708  0.13540  0.23766  1.0000
  S   S379      1.0  0.76970  0.26151  0.16053  1.0000
  H   H2215     1.0  0.75874  0.18469  0.20950  1.0000
  Fe  Fe187     1.0  0.86807  0.17119  0.33314  1.0000
  S   S380      1.0  0.86855  0.19399  0.29671  1.0000
  S   S381      1.0  0.86312  0.15204  0.31132  1.0000
  Fe  Fe188     1.0  0.87638  0.18208  0.39375  1.0000
  S   S382      1.0  0.87756  0.20605  0.36205  1.0000
  S   S383      1.0  0.87992  0.17147  0.45019  1.0000
  Fe  Fe189     1.0  0.85576  0.20437  0.34425  1.0000
  S   S384      1.0  0.83491  0.22407  0.34222  1.0000
  Fe  Fe190     1.0  0.89024  0.19352  0.31686  1.0000
  S   S385      1.0  0.91007  0.20180  0.27643  1.0000
  S   S386      1.0  0.85355  0.18141  0.37965  1.0000
  S   S387      1.0  0.89080  0.16973  0.34968  1.0000
  H   H2216     1.0  0.89424  0.04521  0.28316  1.0000
  H   H2217     1.0  0.76305  0.05122  0.33618  1.0000
  H   H2218     1.0  0.82672  0.12783  0.35315  1.0000
  H   H2219     1.0  0.84203  0.25355  0.19266  1.0000
  S   S388      1.0  0.76005  0.29981  0.09033  1.0000
  C   C1289     1.0  0.87026  0.24641  0.29723  1.0000
  H   H2220     1.0  0.87907  0.21022  0.19350  1.0000
  H   H2221     1.0  0.87562  0.20476  0.45266  1.0000
  S   S389      1.0  0.74515  0.29158  0.18767  1.0000
  H   H2222     1.0  0.81603  0.20792  0.47648  1.0000
  H   H2223     1.0  0.79227  0.12446  0.45251  1.0000
  C   C1290     1.0  0.81331  0.23963  0.24118  1.0000
  C   C1291     1.0  0.82433  0.22582  0.24530  1.0000
  C   C1292     1.0  0.83040  0.22049  0.27692  1.0000
  C   C1293     1.0  0.82580  0.22916  0.30441  1.0000
  C   C1294     1.0  0.81441  0.24273  0.30073  1.0000
  C   C1295     1.0  0.80813  0.24793  0.26928  1.0000
  H   H2224     1.0  0.82833  0.21927  0.22378  1.0000
  H   H2225     1.0  0.83885  0.20984  0.27970  1.0000
  H   H2226     1.0  0.81073  0.24948  0.32190  1.0000
  H   H2227     1.0  0.79965  0.25860  0.26640  1.0000
  H   H2228     1.0  0.78668  0.15106  0.36673  1.0000
  C   C1296     1.0  0.91159  0.08491  0.05035  1.0000
  C   C1297     1.0  0.96881  0.13507  0.02075  1.0000
  H   H2229     1.0  0.83049  0.15846  0.39283  1.0000
  C   C1298     1.0  0.76775  0.05280  0.35885  1.0000
  H   H2230     1.0  0.79734  0.08176  0.45276  1.0000
  H   H2231     1.0  0.93317  0.12274  0.01527  1.0000
  C   C1299     1.0  0.78935  0.27828  0.01314  1.0000
  H   H2232     1.0  0.86487  0.00537  0.02602  1.0000
  C   C1300     1.0  0.78189  0.09892  0.42260  1.0000
  C   C1301     1.0  0.76915  0.11119  0.42427  1.0000
  H   H2233     1.0  0.76483  0.11727  0.40037  1.0000
  C   C1302     1.0  0.80182  0.12952  0.45683  1.0000
  C   C1303     1.0  0.81322  0.16308  0.29231  1.0000
  C   C1304     1.0  0.82400  0.15140  0.27711  1.0000
  C   C1305     1.0  0.83945  0.14822  0.28235  1.0000
  C   C1306     1.0  0.84427  0.15720  0.30151  1.0000
  C   C1307     1.0  0.83382  0.16984  0.31387  1.0000
  C   C1308     1.0  0.81824  0.17271  0.30956  1.0000
  H   H2234     1.0  0.82042  0.14467  0.26154  1.0000
  H   H2235     1.0  0.84756  0.13868  0.27191  1.0000
  H   H2236     1.0  0.83757  0.17713  0.32777  1.0000
  H   H2237     1.0  0.81000  0.18201  0.32069  1.0000
  C   C1309     1.0  0.96400  0.08277  0.03945  1.0000
  H   H2238     1.0  0.82868  0.20708  0.43427  1.0000
  C   C1310     1.0  0.84640  0.26192  0.20349  1.0000
  C   C1311     1.0  0.76647  0.07009  0.36080  1.0000
  C   C1312     1.0  0.80537  0.18999  0.20720  1.0000
  H   H2239     1.0  0.93182  0.11959  0.08040  1.0000
  C   C1313     1.0  0.83693  0.14658  0.40124  1.0000
  C   C1314     1.0  0.84328  0.05724  0.18978  1.0000
  C   C1315     1.0  0.83138  0.06003  0.21876  1.0000
  C   C1316     1.0  0.82509  0.07531  0.22472  1.0000
  C   C1317     1.0  0.83077  0.08784  0.20174  1.0000
  C   C1318     1.0  0.84242  0.08506  0.17238  1.0000
  C   C1319     1.0  0.84865  0.06981  0.16638  1.0000
  H   H2240     1.0  0.82718  0.05032  0.23694  1.0000
  H   H2241     1.0  0.81615  0.07736  0.24746  1.0000
  H   H2242     1.0  0.84680  0.09473  0.15447  1.0000
  H   H2243     1.0  0.85772  0.06782  0.14389  1.0000
  H   H2244     1.0  0.78380  0.20504  0.16629  1.0000
  C   C1320     1.0  0.86029  0.03670  0.99508  1.0000
  H   H2245     1.0  0.85666  0.03542  0.02354  1.0000
  C   C1321     1.0  0.93911  0.17417  0.19063  1.0000
  C   C1322     1.0  0.93213  0.18980  0.18222  1.0000
  C   C1323     1.0  0.92321  0.19795  0.20874  1.0000
  C   C1324     1.0  0.92068  0.19050  0.24411  1.0000
  C   C1325     1.0  0.92756  0.17478  0.25290  1.0000
  C   C1326     1.0  0.93693  0.16663  0.22618  1.0000
  H   H2246     1.0  0.93383  0.19574  0.15494  1.0000
  H   H2247     1.0  0.91835  0.21013  0.20174  1.0000
  H   H2248     1.0  0.92604  0.16907  0.28037  1.0000
  H   H2249     1.0  0.94241  0.15461  0.23301  1.0000
  H   H2250     1.0  0.96645  0.14049  0.04395  1.0000
  C   C1327     1.0  0.93676  0.08001  0.15629  1.0000
  C   C1328     1.0  0.94936  0.07006  0.14013  1.0000
  C   C1329     1.0  0.94684  0.05750  0.12700  1.0000
  C   C1330     1.0  0.93172  0.05493  0.12919  1.0000
  C   C1331     1.0  0.91910  0.06526  0.14398  1.0000
  C   C1332     1.0  0.92161  0.07760  0.15792  1.0000
  H   H2251     1.0  0.96107  0.07173  0.13879  1.0000
  H   H2252     1.0  0.95669  0.04961  0.11544  1.0000
  H   H2253     1.0  0.90745  0.06378  0.14417  1.0000
  H   H2254     1.0  0.91177  0.08540  0.16977  1.0000
  N   N94       1.0  0.87733  0.05750  0.24933  1.0000
  C   C1333     1.0  0.88578  0.05358  0.21380  1.0000
  C   C1334     1.0  0.86647  0.07306  0.24446  1.0000
  C   C1335     1.0  0.88827  0.05727  0.27389  1.0000
  C   C1336     1.0  0.89759  0.03813  0.21476  1.0000
  C   C1337     1.0  0.87227  0.08616  0.21553  1.0000
  C   C1338     1.0  0.90074  0.06758  0.26018  1.0000
  H   H2255     1.0  0.89226  0.06268  0.19849  1.0000
  H   H2256     1.0  0.87731  0.05325  0.19698  1.0000
  H   H2257     1.0  0.85555  0.07173  0.23735  1.0000
  H   H2258     1.0  0.86282  0.07770  0.26979  1.0000
  H   H2259     1.0  0.88166  0.06110  0.29893  1.0000
  H   H2260     1.0  0.90666  0.03762  0.23048  1.0000
  H   H2261     1.0  0.89181  0.02791  0.22452  1.0000
  H   H2262     1.0  0.90373  0.03716  0.18727  1.0000
  H   H2263     1.0  0.88358  0.08833  0.21816  1.0000
  H   H2264     1.0  0.86363  0.09712  0.21744  1.0000
  H   H2265     1.0  0.87301  0.08369  0.18855  1.0000
  H   H2266     1.0  0.89620  0.07952  0.26606  1.0000
  H   H2267     1.0  0.90560  0.06818  0.23164  1.0000
  H   H2268     1.0  0.91093  0.06240  0.27356  1.0000
  N   N95       1.0  0.90336  0.14250  0.22275  1.0000
  C   C1339     1.0  0.89990  0.15976  0.20883  1.0000
  C   C1340     1.0  0.91675  0.13538  0.19698  1.0000
  C   C1341     1.0  0.90780  0.14011  0.25906  1.0000
  C   C1342     1.0  0.88883  0.13617  0.22541  1.0000
  C   C1343     1.0  0.88769  0.16964  0.23334  1.0000
  C   C1344     1.0  0.91415  0.13762  0.15839  1.0000
  C   C1345     1.0  0.91984  0.12545  0.26979  1.0000
  C   C1346     1.0  0.89028  0.11842  0.23575  1.0000
  H   H2269     1.0  0.91069  0.16469  0.20292  1.0000
  H   H2270     1.0  0.89558  0.16217  0.18324  1.0000
  H   H2271     1.0  0.92012  0.12265  0.20567  1.0000
  H   H2272     1.0  0.92732  0.14022  0.19597  1.0000
  H   H2273     1.0  0.91303  0.14989  0.26148  1.0000
  H   H2274     1.0  0.89732  0.14021  0.28038  1.0000
  H   H2275     1.0  0.87934  0.14115  0.24551  1.0000
  H   H2276     1.0  0.88426  0.13982  0.20006  1.0000
  H   H2277     1.0  0.88720  0.18212  0.22146  1.0000
  H   H2278     1.0  0.87587  0.16717  0.23594  1.0000
  H   H2279     1.0  0.89065  0.16820  0.26007  1.0000
  H   H2280     1.0  0.91399  0.14985  0.14470  1.0000
  H   H2281     1.0  0.92407  0.13042  0.14346  1.0000
  H   H2282     1.0  0.90356  0.13365  0.15653  1.0000
  H   H2283     1.0  0.92051  0.12438  0.29823  1.0000
  H   H2284     1.0  0.93163  0.12650  0.25447  1.0000
  H   H2285     1.0  0.91693  0.11454  0.26647  1.0000
  H   H2286     1.0  0.89890  0.11217  0.21627  1.0000
  H   H2287     1.0  0.87885  0.11542  0.23633  1.0000
  H   H2288     1.0  0.89304  0.11422  0.26278  1.0000
  H   H2289     1.0  0.79650  0.19916  0.25466  1.0000
  H   H2290     1.0  0.89052  0.99996  0.00837  1.0000
  C   C1347     1.0  0.76005  0.29726  0.02195  1.0000
  C   C1348     1.0  0.77850  0.21438  0.18197  1.0000
  Fe  Fe191     1.0  0.76215  0.29267  0.22083  1.0000
  C   C1349     1.0  0.92175  0.11825  0.06982  1.0000
  H   H2291     1.0  0.77039  0.07037  0.38575  1.0000
  H   H2292     1.0  0.76025  0.22731  0.23808  1.0000
  H   H2293     1.0  0.75597  0.07429  0.30461  1.0000
  H   H2294     1.0  0.82527  0.10814  0.42791  1.0000
  H   H2295     1.0  0.80650  0.19293  0.17796  1.0000
  H   H2296     1.0  0.78561  0.22362  0.17053  1.0000
  C   C1350     1.0  0.76208  0.22079  0.17278  1.0000
  H   H2297     1.0  0.89136  0.22388  0.18845  1.0000
  C   C1351     1.0  0.82825  0.20466  0.46349  1.0000
  H   H2298     1.0  0.83623  0.27125  0.20935  1.0000
  C   C1352     1.0  0.77289  0.22325  0.23850  1.0000
  H   H2299     1.0  0.75038  0.06627  0.42742  1.0000
  H   H2300     1.0  0.86072  0.04356  0.24721  1.0000
  C   C1353     1.0  0.74916  0.08376  0.31901  1.0000
  N   N96       1.0  0.81346  0.13216  0.42297  1.0000
  C   C1354     1.0  0.79582  0.20340  0.22606  1.0000
  H   H2301     1.0  0.75436  0.09404  0.30470  1.0000
  Fe  Fe192     1.0  0.88999  0.00558  0.10547  1.0000
  Fe  Fe193     1.0  0.78508  0.26483  0.19584  1.0000
  C   C1355     1.0  0.78033  0.09578  0.48668  1.0000
  H   H2302     1.0  0.84732  0.14795  0.41062  1.0000
  Fe  Fe194     1.0  0.75047  0.26597  0.20601  1.0000
  C   C1356     1.0  0.95819  0.13906  0.99714  1.0000
  H   H2303     1.0  0.75692  0.23206  0.18163  1.0000
  C   C1357     1.0  0.87675  0.19813  0.47881  1.0000
  H   H2304     1.0  0.75398  0.24111  0.06272  1.0000
  H   H2305     1.0  0.82792  0.10764  0.36053  1.0000
  N   N97       1.0  0.86817  0.24329  0.23450  1.0000
  H   H2306     1.0  0.88168  0.22694  0.27170  1.0000
  C   C1358     1.0  0.80536  0.14486  0.39739  1.0000
  C   C1359     1.0  0.79107  0.14127  0.38690  1.0000
  H   H2307     1.0  0.81325  0.14806  0.37219  1.0000
  H   H2308     1.0  0.91537  0.10978  0.08893  1.0000
  H   H2309     1.0  0.90507  0.08044  0.07669  1.0000
  H   H2310     1.0  0.79399  0.13065  0.37477  1.0000
  C   C1360     1.0  0.86134  0.99427  0.04051  1.0000
  N   N98       1.0  0.93633  0.09775  0.03091  1.0000
  C   C1361     1.0  0.95110  0.09717  0.04434  1.0000
  H   H2311     1.0  0.80084  0.17906  0.21768  1.0000
  C   C1362     1.0  0.78748  0.09126  0.45386  1.0000
  C   C1363     1.0  0.92834  0.08509  0.05429  1.0000
  H   H2312     1.0  0.77928  0.18287  0.19442  1.0000
  C   C1364     1.0  0.73847  0.06885  0.42140  1.0000
  C   C1365     1.0  0.83510  0.18736  0.47531  1.0000
  H   H2313     1.0  0.90468  0.09642  0.04180  1.0000
  H   H2314     1.0  0.77853  0.23320  0.22364  1.0000
  H   H2315     1.0  0.94870  0.09760  0.07326  1.0000
  H   H2316     1.0  0.74129  0.22932  0.05557  1.0000
  C   C1366     1.0  0.92671  0.11380  0.03252  1.0000
  S   S390      1.0  0.75564  0.30813  0.26257  1.0000
  H   H2317     1.0  0.76153  0.10000  0.35443  1.0000
  H   H2318     1.0  0.93518  0.07341  0.05027  1.0000
  H   H2319     1.0  0.92817  0.08508  0.08270  1.0000
  H   H2320     1.0  0.75273  0.09292  0.39785  1.0000
  S   S391      1.0  0.88376  0.05020  0.00348  1.0000
  H   H2321     1.0  0.84243  0.00782  0.07226  1.0000
  H   H2322     1.0  0.78895  0.27884  0.06832  1.0000
  H   H2323     1.0  0.77189  0.17228  0.23600  1.0000
  C   C1367     1.0  0.78263  0.28260  0.04640  1.0000
  H   H2324     1.0  0.84127  0.14077  0.37794  1.0000
  H   H2325     1.0  0.83493  0.12714  0.44397  1.0000
  H   H2326     1.0  0.84976  0.03820  0.31013  1.0000
  H   H2327     1.0  0.79612  0.14077  0.46578  1.0000
  S   S392      1.0  0.78272  0.29075  0.17605  1.0000
  C   C1368     1.0  0.74170  0.24000  0.06483  1.0000
  H   H2328     1.0  0.84688  0.05868  0.29552  1.0000
  S   S393      1.0  0.80702  0.24656  0.19991  1.0000
  C   C1369     1.0  0.85595  0.04817  0.30041  1.0000
  H   H2329     1.0  0.85519  0.26732  0.18309  1.0000
  H   H2330     1.0  0.88583  0.21211  0.23151  1.0000
  C   C1370     1.0  0.76169  0.11535  0.45719  1.0000
  Fe  Fe195     1.0  0.76574  0.28743  0.14426  1.0000
  H   H2331     1.0  0.80337  0.18739  0.48039  1.0000
  H   H2332     1.0  0.95638  0.10751  0.03112  1.0000
  C   C1371     1.0  0.87949  0.18186  0.48418  1.0000
  S   S394      1.0  0.76596  0.26706  0.24266  1.0000
  C   C1372     1.0  0.88183  0.21877  0.20687  1.0000
  H   H2333     1.0  0.81291  0.10659  0.48353  1.0000
  H   H2334     1.0  0.84790  0.18597  0.46612  1.0000
  C   C1373     1.0  0.81877  0.11701  0.40920  1.0000
  H   H2335     1.0  0.91381  0.12974  0.06798  1.0000
  H   H2336     1.0  0.90012  0.23296  0.22928  1.0000
  H   H2337     1.0  0.77560  0.07469  0.33955  1.0000
  H   H2338     1.0  0.78132  0.14036  0.40957  1.0000
  H   H2339     1.0  0.74706  0.15392  0.26362  1.0000
  H   H2340     1.0  0.75684  0.20247  0.24399  1.0000
  N   N99       1.0  0.86564  0.98209  0.01688  1.0000
  H   H2341     1.0  0.87498  0.23951  0.32102  1.0000
  H   H2342     1.0  0.90053  0.25130  0.24077  1.0000
  C   C1374     1.0  0.89742  0.24571  0.22120  1.0000
  H   H2343     1.0  0.97377  0.08351  0.05200  1.0000
  N   N100      1.0  0.77913  0.20907  0.22096  1.0000
  C   C1375     1.0  0.76934  0.19689  0.23845  1.0000
  C   C1376     1.0  0.77475  0.22129  0.27759  1.0000
  H   H2344     1.0  0.80878  0.11168  0.40858  1.0000
  H   H2345     1.0  0.87738  0.25546  0.28526  1.0000
  H   H2346     1.0  0.90555  0.24855  0.19606  1.0000
  H   H2347     1.0  0.82263  0.14501  0.45215  1.0000
  C   C1377     1.0  0.77005  0.18367  0.21793  1.0000
  N   N101      1.0  0.75075  0.08034  0.35786  1.0000
  H   H2348     1.0  0.86775  0.99059  0.06323  1.0000
  C   C1378     1.0  0.98246  0.12418  0.01407  1.0000
  H   H2349     1.0  0.86452  0.23673  0.18706  1.0000
  C   C1379     1.0  0.87063  0.23542  0.27152  1.0000
  H   H2350     1.0  0.93527  0.00703  0.02393  1.0000
  H   H2351     1.0  0.80232  0.21320  0.21723  1.0000
  H   H2352     1.0  0.77230  0.19133  0.26499  1.0000
  H   H2353     1.0  0.86153  0.22831  0.28406  1.0000
  H   H2354     1.0  0.84189  0.11532  0.37539  1.0000
  H   H2355     1.0  0.87774  0.26429  0.22322  1.0000
  C   C1380     1.0  0.88052  0.25263  0.21520  1.0000
  H   H2356     1.0  0.85814  0.25195  0.30688  1.0000
  C   C1381     1.0  0.86718  0.23122  0.21386  1.0000
  H   H2357     1.0  0.88059  0.25492  0.18608  1.0000
  H   H2358     1.0  0.87508  0.03364  0.27312  1.0000
  H   H2359     1.0  0.96002  0.07175  0.05265  1.0000
  H   H2360     1.0  0.84347  0.24804  0.25554  1.0000
  H   H2361     1.0  0.85749  0.22502  0.22748  1.0000
  H   H2362     1.0  0.91157  0.07704  0.03200  1.0000
  H   H2363     1.0  0.81736  0.18749  0.21309  1.0000
  H   H2364     1.0  0.85285  0.26386  0.25160  1.0000
  H   H2365     1.0  0.86178  0.04898  0.32201  1.0000
  C   C1382     1.0  0.76808  0.29238  0.05070  1.0000
  H   H2366     1.0  0.77038  0.21100  0.29438  1.0000
  C   C1383     1.0  0.85258  0.25418  0.23819  1.0000
  H   H2367     1.0  0.83117  0.18059  0.45943  1.0000
  H   H2368     1.0  0.80149  0.15579  0.40867  1.0000
  C   C1384     1.0  0.82691  0.13731  0.43183  1.0000
  H   H2369     1.0  0.91597  0.11566  0.02136  1.0000
  H   H2370     1.0  0.75158  0.12457  0.45849  1.0000
  C   C1385     1.0  0.86761  0.04518  0.26622  1.0000
  H   H2371     1.0  0.78703  0.22067  0.27982  1.0000
  H   H2372     1.0  0.83535  0.21227  0.46912  1.0000
  H   H2373     1.0  0.78021  0.04711  0.35560  1.0000
  H   H2374     1.0  0.83653  0.00302  0.03598  1.0000
  H   H2375     1.0  0.83967  0.98849  0.07522  1.0000
  H   H2376     1.0  0.80083  0.27113  0.00967  1.0000
  H   H2377     1.0  0.75402  0.21252  0.18403  1.0000
  H   H2378     1.0  0.76290  0.22303  0.14349  1.0000
  C   C1386     1.0  0.82949  0.11719  0.37269  1.0000
  H   H2379     1.0  0.96882  0.08240  0.01103  1.0000
  Fe  Fe196     1.0  0.98341  0.12081  0.09992  1.0000
  H   H2380     1.0  0.94756  0.14736  0.00255  1.0000
  C   C1387     1.0  0.76726  0.10769  0.48849  1.0000
  C   C1388     1.0  0.84394  0.99845  0.05656  1.0000
  H   H2381     1.0  0.92630  0.03349  0.00883  1.0000
  C   C1389     1.0  0.75116  0.09518  0.36964  1.0000
  S   S395      1.0  0.98608  0.09926  0.14109  1.0000
  H   H2382     1.0  0.76209  0.23618  0.00568  1.0000
  H   H2383     1.0  0.76177  0.04659  0.38385  1.0000
  S   S396      1.0  0.74602  0.12303  0.25435  1.0000
  H   H2384     1.0  0.73838  0.11809  0.37762  1.0000
  H   H2385     1.0  0.81080  0.16685  0.49048  1.0000
  C   C1390     1.0  0.73900  0.15495  0.24589  1.0000
  H   H2386     1.0  0.84269  0.15627  0.47360  1.0000
  H   H2387     1.0  0.73738  0.26463  0.05030  1.0000
  C   C1391     1.0  0.80818  0.11856  0.48882  1.0000
  H   H2388     1.0  0.75297  0.26631  0.99558  1.0000
  C   C1392     1.0  0.73792  0.07261  0.38122  1.0000
  H   H2389     1.0  0.94140  0.98990  0.00453  1.0000
  H   H2390     1.0  0.93033  0.05966  0.99830  1.0000
  C   C1393     1.0  0.93477  0.00202  0.00072  1.0000
  H   H2391     1.0  0.92260  0.00130  0.00070  1.0000
  C   C1394     1.0  0.73702  0.10840  0.36564  1.0000
  C   C1395     1.0  0.94077  0.09513  0.99292  1.0000
  H   H2392     1.0  0.94613  0.03360  0.99323  1.0000
  H   H2393     1.0  0.73722  0.06186  0.37222  1.0000
  H   H2394     1.0  0.94562  0.08262  0.99183  1.0000
  Fe  Fe197     1.0  0.85964  0.02561  0.85586  1.0000
  S   S397      1.0  0.88312  0.01037  0.84618  1.0000
  S   S398      1.0  0.84743  0.02501  0.91263  1.0000
  Fe  Fe198     1.0  0.85918  0.03810  0.77770  1.0000
  S   S399      1.0  0.88253  0.02338  0.76255  1.0000
  S   S400      1.0  0.85122  0.05577  0.73108  1.0000
  Fe  Fe199     1.0  0.87382  0.00398  0.80326  1.0000
  Fe  Fe200     1.0  0.88964  0.03108  0.80662  1.0000
  S   S401      1.0  0.91267  0.03949  0.79261  1.0000
  S   S402      1.0  0.84977  0.01807  0.81517  1.0000
  S   S403      1.0  0.86682  0.04688  0.81956  1.0000
  S   S404      1.0  0.93787  0.12121  0.86185  1.0000
  Fe  Fe201     1.0  0.78031  0.09632  0.64486  1.0000
  S   S405      1.0  0.79204  0.09657  0.58782  1.0000
  S   S406      1.0  0.78388  0.07579  0.68954  1.0000
  Fe  Fe202     1.0  0.76573  0.13099  0.63249  1.0000
  S   S407      1.0  0.77644  0.13398  0.57483  1.0000
  S   S408      1.0  0.75444  0.15376  0.65107  1.0000
  Fe  Fe203     1.0  0.76945  0.11149  0.57480  1.0000
  S   S409      1.0  0.75701  0.11268  0.52939  1.0000
  Fe  Fe204     1.0  0.79775  0.11907  0.59265  1.0000
  S   S410      1.0  0.82085  0.12638  0.57656  1.0000
  S   S411      1.0  0.75696  0.10947  0.63175  1.0000
  S   S412      1.0  0.78775  0.11774  0.65022  1.0000
  S   S413      1.0  0.77504  0.26193  0.87741  1.0000
  S   S414      1.0  0.79109  0.26674  0.77158  1.0000
  Fe  Fe205     1.0  0.75043  0.27422  0.87784  1.0000
  H   H2395     1.0  0.90443  0.98641  0.98519  1.0000
  Fe  Fe206     1.0  0.87218  0.16758  0.69455  1.0000
  S   S415      1.0  0.84904  0.17496  0.72752  1.0000
  S   S416      1.0  0.88549  0.14487  0.72029  1.0000
  Fe  Fe207     1.0  0.86611  0.19473  0.63410  1.0000
  S   S417      1.0  0.84264  0.20446  0.66348  1.0000
  Fe  Fe208     1.0  0.85413  0.19907  0.71133  1.0000
  S   S418      1.0  0.84932  0.21166  0.75801  1.0000
  Fe  Fe209     1.0  0.83959  0.17964  0.67730  1.0000
  S   S419      1.0  0.81629  0.17437  0.67690  1.0000
  S   S420      1.0  0.87812  0.19150  0.68117  1.0000
  S   S421      1.0  0.86223  0.17016  0.64512  1.0000
  C   C1396     1.0  0.80757  0.25172  0.76847  1.0000
  C   C1397     1.0  0.81416  0.24755  0.73516  1.0000
  C   C1398     1.0  0.82699  0.23531  0.73161  1.0000
  C   C1399     1.0  0.83339  0.22723  0.76141  1.0000
  C   C1400     1.0  0.82692  0.23152  0.79468  1.0000
  C   C1401     1.0  0.81397  0.24367  0.79828  1.0000
  H   H2396     1.0  0.80935  0.25385  0.71196  1.0000
  H   H2397     1.0  0.83201  0.23224  0.70580  1.0000
  H   H2398     1.0  0.83185  0.22535  0.81781  1.0000
  H   H2399     1.0  0.80897  0.24682  0.82404  1.0000
  N   N102      1.0  0.83151  0.18121  0.51458  1.0000
  H   H2400     1.0  0.96263  0.03643  0.94299  1.0000
  C   C1402     1.0  0.83938  0.01944  0.71888  1.0000
  H   H2401     1.0  0.82427  0.00204  0.72651  1.0000
  C   C1403     1.0  0.97510  0.12165  0.95969  1.0000
  C   C1404     1.0  0.81450  0.13570  0.73981  1.0000
  S   S422      1.0  0.79071  0.27889  0.94207  1.0000
  H   H2402     1.0  0.84410  0.99333  0.67967  1.0000
  H   H2403     1.0  0.93609  0.04629  0.91052  1.0000
  C   C1405     1.0  0.81985  0.13999  0.60348  1.0000
  C   C1406     1.0  0.80567  0.14963  0.61353  1.0000
  C   C1407     1.0  0.80465  0.16022  0.63594  1.0000
  C   C1408     1.0  0.81777  0.16107  0.64875  1.0000
  C   C1409     1.0  0.83185  0.15112  0.63950  1.0000
  C   C1410     1.0  0.83297  0.14076  0.61645  1.0000
  H   H2404     1.0  0.79543  0.14906  0.60385  1.0000
  H   H2405     1.0  0.79365  0.16770  0.64339  1.0000
  H   H2406     1.0  0.84180  0.15109  0.65076  1.0000
  H   H2407     1.0  0.84388  0.13308  0.60937  1.0000
  H   H2408     1.0  0.91883  0.00641  0.93648  1.0000
  H   H2409     1.0  0.81248  0.14486  0.71642  1.0000
  C   C1411     1.0  0.94241  0.03457  0.92032  1.0000
  H   H2410     1.0  0.75396  0.25390  0.83855  1.0000
  S   S423      1.0  0.75458  0.28642  0.82164  1.0000
  H   H2411     1.0  0.83473  0.01324  0.62340  1.0000
  H   H2412     1.0  0.86220  0.00057  0.97151  1.0000
  H   H2413     1.0  0.78507  0.12512  0.77163  1.0000
  H   H2414     1.0  0.96739  0.02504  0.90820  1.0000
  C   C1412     1.0  0.84738  0.00486  0.66758  1.0000
  H   H2415     1.0  0.88336  0.16083  0.52253  1.0000
  C   C1413     1.0  0.92673  0.15550  0.72465  1.0000
  H   H2416     1.0  0.93260  0.09627  0.94391  1.0000
  C   C1414     1.0  0.93187  0.14415  0.75251  1.0000
  C   C1415     1.0  0.91244  0.15594  0.71474  1.0000
  C   C1416     1.0  0.90333  0.14486  0.73235  1.0000
  C   C1417     1.0  0.90857  0.13338  0.75991  1.0000
  C   C1418     1.0  0.92277  0.13304  0.77006  1.0000
  H   H2417     1.0  0.90858  0.16471  0.69316  1.0000
  H   H2418     1.0  0.90154  0.12483  0.77378  1.0000
  H   H2419     1.0  0.92665  0.12421  0.79150  1.0000
  C   C1419     1.0  0.83230  0.06110  0.72071  1.0000
  C   C1420     1.0  0.81975  0.05487  0.74209  1.0000
  C   C1421     1.0  0.80494  0.05935  0.73220  1.0000
  C   C1422     1.0  0.80257  0.07021  0.70122  1.0000
  C   C1423     1.0  0.81514  0.07647  0.68002  1.0000
  C   C1424     1.0  0.82993  0.07188  0.68967  1.0000
  H   H2420     1.0  0.82142  0.04662  0.76617  1.0000
  H   H2421     1.0  0.79525  0.05449  0.74873  1.0000
  H   H2422     1.0  0.81348  0.08478  0.65600  1.0000
  H   H2423     1.0  0.83961  0.07667  0.67286  1.0000
  C   C1425     1.0  0.91839  0.05091  0.81744  1.0000
  C   C1426     1.0  0.93205  0.05700  0.80389  1.0000
  C   C1427     1.0  0.92836  0.06922  0.85553  1.0000
  C   C1428     1.0  0.91462  0.06323  0.86895  1.0000
  C   C1429     1.0  0.90960  0.05417  0.84994  1.0000
  H   H2424     1.0  0.93893  0.05448  0.77879  1.0000
  H   H2425     1.0  0.90795  0.06547  0.89443  1.0000
  H   H2426     1.0  0.89905  0.04957  0.86060  1.0000
  H   H2427     1.0  0.81676  0.13829  0.79293  1.0000
  C   C1430     1.0  0.86947  0.04020  0.92125  1.0000
  C   C1431     1.0  0.87724  0.04599  0.94160  1.0000
  N   N103      1.0  0.93422  0.02780  0.95608  1.0000
  H   H2428     1.0  0.82240  0.01033  0.66498  1.0000
  H   H2429     1.0  0.87319  0.04144  0.89285  1.0000
  C   C1432     1.0  0.93697  0.06622  0.82270  1.0000
  H   H2430     1.0  0.86839  0.21135  0.81429  1.0000
  C   C1433     1.0  0.74775  0.25853  0.98481  1.0000
  H   H2431     1.0  0.79574  0.09405  0.77381  1.0000
  H   H2432     1.0  0.86383  0.16070  0.81579  1.0000
  S   S424      1.0  0.78446  0.29618  0.84110  1.0000
  H   H2433     1.0  0.83242  0.02959  0.70421  1.0000
  H   H2434     1.0  0.74695  0.17808  0.69119  1.0000
  H   H2435     1.0  0.89248  0.18036  0.74678  1.0000
  H   H2436     1.0  0.88429  0.15373  0.80943  1.0000
  H   H2437     1.0  0.90748  0.17232  0.85977  1.0000
  N   N104      1.0  0.78485  0.21260  0.74864  1.0000
  C   C1434     1.0  0.78043  0.22938  0.73155  1.0000
  C   C1435     1.0  0.77477  0.21018  0.78482  1.0000
  C   C1436     1.0  0.78235  0.20167  0.72692  1.0000
  C   C1437     1.0  0.80181  0.20935  0.75137  1.0000
  C   C1438     1.0  0.78787  0.23376  0.69228  1.0000
  C   C1439     1.0  0.77868  0.21748  0.81337  1.0000
  C   C1440     1.0  0.76568  0.20403  0.71945  1.0000
  C   C1441     1.0  0.80843  0.19274  0.76902  1.0000
  H   H2438     1.0  0.76760  0.23288  0.73319  1.0000
  H   H2439     1.0  0.78360  0.23727  0.74613  1.0000
  H   H2440     1.0  0.77494  0.19761  0.79557  1.0000
  H   H2441     1.0  0.76233  0.21504  0.78306  1.0000
  H   H2442     1.0  0.79052  0.20223  0.70107  1.0000
  H   H2443     1.0  0.78521  0.18937  0.74037  1.0000
  H   H2444     1.0  0.80914  0.21111  0.72460  1.0000
  H   H2445     1.0  0.80454  0.21783  0.76501  1.0000
  H   H2446     1.0  0.78433  0.22751  0.67467  1.0000
  H   H2447     1.0  0.78380  0.24639  0.68333  1.0000
  H   H2448     1.0  0.80071  0.23192  0.68841  1.0000
  H   H2449     1.0  0.77901  0.23005  0.80458  1.0000
  H   H2450     1.0  0.76953  0.21644  0.83742  1.0000
  H   H2451     1.0  0.78989  0.21134  0.82155  1.0000
  H   H2452     1.0  0.76533  0.19546  0.70302  1.0000
  H   H2453     1.0  0.76190  0.21575  0.70436  1.0000
  H   H2454     1.0  0.75715  0.20194  0.74424  1.0000
  H   H2455     1.0  0.81280  0.18501  0.74889  1.0000
  H   H2456     1.0  0.79993  0.18742  0.79026  1.0000
  H   H2457     1.0  0.81819  0.19319  0.78192  1.0000
  N   N105      1.0  0.89262  0.08617  0.74402  1.0000
  C   C1442     1.0  0.91009  0.08167  0.73435  1.0000
  C   C1443     1.0  0.88571  0.07389  0.73502  1.0000
  C   C1444     1.0  0.88871  0.08577  0.78360  1.0000
  C   C1445     1.0  0.88754  0.10230  0.72405  1.0000
  C   C1446     1.0  0.91979  0.09202  0.74363  1.0000
  C   C1447     1.0  0.88981  0.07179  0.69581  1.0000
  C   C1448     1.0  0.87140  0.08998  0.79969  1.0000
  C   C1449     1.0  0.87049  0.10679  0.71791  1.0000
  H   H2458     1.0  0.91418  0.06948  0.74699  1.0000
  H   H2459     1.0  0.91371  0.08190  0.70528  1.0000
  H   H2460     1.0  0.87289  0.07596  0.74205  1.0000
  H   H2461     1.0  0.88949  0.06232  0.75123  1.0000
  H   H2462     1.0  0.89324  0.07400  0.79781  1.0000
  H   H2463     1.0  0.89436  0.09402  0.79158  1.0000
  H   H2464     1.0  0.88959  0.11120  0.73761  1.0000
  H   H2465     1.0  0.89485  0.10395  0.69713  1.0000
  H   H2466     1.0  0.93219  0.08840  0.73202  1.0000
  H   H2467     1.0  0.91633  0.10447  0.73234  1.0000
  H   H2468     1.0  0.91936  0.09056  0.77264  1.0000
  H   H2469     1.0  0.88196  0.06476  0.69095  1.0000
  H   H2470     1.0  0.88841  0.08301  0.67721  1.0000
  H   H2471     1.0  0.90183  0.06521  0.68966  1.0000
  H   H2472     1.0  0.87029  0.08813  0.82904  1.0000
  H   H2473     1.0  0.86420  0.08252  0.79415  1.0000
  H   H2474     1.0  0.86673  0.10247  0.79107  1.0000
  H   H2475     1.0  0.86617  0.11927  0.71988  1.0000
  H   H2476     1.0  0.86224  0.10025  0.73693  1.0000
  H   H2477     1.0  0.86986  0.10593  0.69040  1.0000
  C   C1450     1.0  0.81457  0.11656  0.70357  1.0000
  C   C1451     1.0  0.78349  0.14048  0.72148  1.0000
  H   H2478     1.0  0.80898  0.10714  0.70045  1.0000
  H   H2479     1.0  0.81175  0.12630  0.68163  1.0000
  H   H2480     1.0  0.83629  0.10036  0.71446  1.0000
  H   H2481     1.0  0.78504  0.15079  0.73082  1.0000
  H   H2482     1.0  0.78828  0.14134  0.69279  1.0000
  H   H2483     1.0  0.77078  0.14105  0.72450  1.0000
  C   C1452     1.0  0.83624  0.19188  0.53379  1.0000
  C   C1453     1.0  0.83535  0.18666  0.57423  1.0000
  C   C1454     1.0  0.95966  0.03543  0.91771  1.0000
  H   H2484     1.0  0.82889  0.20369  0.53018  1.0000
  S   S425      1.0  0.94725  0.13601  0.93937  1.0000
  H   H2485     1.0  0.84457  0.17650  0.58066  1.0000
  H   H2486     1.0  0.83744  0.19619  0.58565  1.0000
  H   H2487     1.0  0.82377  0.18408  0.58758  1.0000
  H   H2488     1.0  0.87314  0.21840  0.50338  1.0000
  S   S426      1.0  0.96756  0.10224  0.81197  1.0000
  C   C1455     1.0  0.76026  0.24384  0.98023  1.0000
  C   C1456     1.0  0.84009  0.15279  0.50280  1.0000
  H   H2489     1.0  0.90160  0.02033  0.93082  1.0000
  H   H2490     1.0  0.80788  0.15582  0.76645  1.0000
  C   C1457     1.0  0.85209  0.03146  0.97453  1.0000
  H   H2491     1.0  0.88138  0.19835  0.75427  1.0000
  H   H2492     1.0  0.76037  0.29650  0.96714  1.0000
  C   C1458     1.0  0.88063  0.21300  0.80863  1.0000
  H   H2493     1.0  0.80862  0.30499  0.93194  1.0000
  C   C1459     1.0  0.91435  0.01900  0.92894  1.0000
  C   C1460     1.0  0.74322  0.15494  0.69342  1.0000
  C   C1461     1.0  0.80529  0.17734  0.50212  1.0000
  H   H2494     1.0  0.84833  0.19357  0.52251  1.0000
  Fe  Fe210     1.0  0.77969  0.27580  0.82255  1.0000
  C   C1462     1.0  0.90633  0.19759  0.73977  1.0000
  H   H2495     1.0  0.86613  0.04449  0.64302  1.0000
  S   S427      1.0  0.75244  0.29435  0.90058  1.0000
  C   C1463     1.0  0.83228  0.11079  0.69537  1.0000
  H   H2496     1.0  0.92456  0.11300  0.96381  1.0000
  H   H2497     1.0  0.85402  0.98908  0.73060  1.0000
  H   H2498     1.0  0.79687  0.14118  0.78724  1.0000
  C   C1464     1.0  0.81449  0.18064  0.52796  1.0000
  S   S428      1.0  0.94938  0.14448  0.76564  1.0000
  Fe  Fe211     1.0  0.98271  0.10672  0.84679  1.0000
  H   H2499     1.0  0.88035  0.17439  0.57310  1.0000
  H   H2500     1.0  0.78634  0.11568  0.73583  1.0000
  H   H2501     1.0  0.83523  0.10733  0.66876  1.0000
  H   H2502     1.0  0.90386  0.20039  0.81340  1.0000
  S   S429      1.0  0.93535  0.07852  0.88277  1.0000
  H   H2503     1.0  0.93379  0.16404  0.71080  1.0000
  H   H2504     1.0  0.94769  0.07056  0.81237  1.0000
  C   C1465     1.0  0.79063  0.12508  0.74338  1.0000
  H   H2505     1.0  0.91605  0.18859  0.72993  1.0000
  H   H2506     1.0  0.91198  0.04099  0.94458  1.0000
  H   H2507     1.0  0.77151  0.24745  0.96724  1.0000
  C   C1466     1.0  0.89200  0.19765  0.81804  1.0000
  H   H2508     1.0  0.83892  0.16030  0.55129  1.0000
  Fe  Fe212     1.0  0.95527  0.12363  0.89261  1.0000
  H   H2509     1.0  0.83888  0.12008  0.69376  1.0000
  H   H2510     1.0  0.80759  0.11265  0.79511  1.0000
  H   H2511     1.0  0.94225  0.02773  0.89986  1.0000
  C   C1467     1.0  0.96125  0.13220  0.96681  1.0000
  H   H2512     1.0  0.85393  0.16626  0.51700  1.0000
  Fe  Fe213     1.0  0.95553  0.12704  0.81378  1.0000
  Fe  Fe214     1.0  0.95076  0.09662  0.86258  1.0000
  C   C1468     1.0  0.82787  0.00925  0.74188  1.0000
  N   N106      1.0  0.80816  0.12159  0.73905  1.0000
  C   C1469     1.0  0.84146  0.16534  0.52267  1.0000
  H   H2513     1.0  0.91751  0.15506  0.84312  1.0000
  H   H2514     1.0  0.82570  0.10703  0.76842  1.0000
  H   H2515     1.0  0.82738  0.13292  0.73704  1.0000
  H   H2516     1.0  0.95448  0.01077  0.96832  1.0000
  H   H2517     1.0  0.81432  0.08804  0.74693  1.0000
  H   H2518     1.0  0.87531  0.98572  0.67441  1.0000
  C   C1470     1.0  0.76659  0.29259  0.98906  1.0000
  C   C1471     1.0  0.94226  0.01121  0.96570  1.0000
  Fe  Fe215     1.0  0.77756  0.28307  0.89646  1.0000
  C   C1472     1.0  0.81293  0.10902  0.76907  1.0000
  H   H2519     1.0  0.84392  0.02446  0.73740  1.0000
  S   S430      1.0  0.87332  0.20723  0.57807  1.0000
  C   C1473     1.0  0.86138  0.99795  0.71790  1.0000
  C   C1474     1.0  0.85689  0.03289  0.93766  1.0000
  H   H2520     1.0  0.83131  0.02739  0.65103  1.0000
  C   C1475     1.0  0.74362  0.24988  0.83746  1.0000
  C   C1476     1.0  0.80865  0.14301  0.77372  1.0000
  N   N107      1.0  0.85268  0.01129  0.69469  1.0000
  H   H2521     1.0  0.74524  0.29414  0.75132  1.0000
  H   H2522     1.0  0.88357  0.21854  0.78049  1.0000
  H   H2523     1.0  0.88137  0.22139  0.82509  1.0000
  H   H2524     1.0  0.84616  0.99174  0.98939  1.0000
  C   C1477     1.0  0.87531  0.20582  0.50758  1.0000
  H   H2525     1.0  0.93980  0.05926  0.95355  1.0000
  C   C1478     1.0  0.92794  0.10014  0.96989  1.0000
  H   H2526     1.0  0.81724  0.01689  0.75335  1.0000
  H   H2527     1.0  0.96231  0.04604  0.89867  1.0000
  S   S431      1.0  0.96701  0.09861  0.89730  1.0000
  C   C1479     1.0  0.86366  0.02234  0.67704  1.0000
  H   H2528     1.0  0.79362  0.17545  0.51690  1.0000
  H   H2529     1.0  0.74860  0.27741  0.73158  1.0000
  H   H2530     1.0  0.81304  0.17177  0.55252  1.0000
  H   H2531     1.0  0.85545  0.03368  0.62705  1.0000
  H   H2532     1.0  0.88676  0.05189  0.92864  1.0000
  H   H2533     1.0  0.88813  0.99705  0.96543  1.0000
  C   C1480     1.0  0.87924  0.18107  0.54704  1.0000
  S   S432      1.0  0.97189  0.13193  0.84450  1.0000
  C   C1481     1.0  0.87624  0.19732  0.54196  1.0000
  H   H2534     1.0  0.85712  0.00264  0.64518  1.0000
  H   H2535     1.0  0.88917  0.19403  0.84734  1.0000
  H   H2536     1.0  0.95021  0.10159  0.97840  1.0000
  C   C1482     1.0  0.80848  0.09320  0.77066  1.0000
  H   H2537     1.0  0.84663  0.04390  0.66398  1.0000
  H   H2538     1.0  0.81239  0.08491  0.79391  1.0000
  H   H2539     1.0  0.86792  0.02646  0.69749  1.0000
  Fe  Fe216     1.0  0.75882  0.30570  0.84373  1.0000
  C   C1483     1.0  0.85733  0.03683  0.65148  1.0000
  C   C1484     1.0  0.89222  0.19020  0.76012  1.0000
  H   H2540     1.0  0.91668  0.17678  0.79382  1.0000
  C   C1485     1.0  0.87520  0.16391  0.80240  1.0000
  H   H2541     1.0  0.86663  0.18764  0.80824  1.0000
  H   H2542     1.0  0.90284  0.20634  0.71673  1.0000
  N   N108      1.0  0.89173  0.18464  0.79937  1.0000
  H   H2543     1.0  0.91069  0.20396  0.75564  1.0000
  C   C1486     1.0  0.91742  0.02877  0.95387  1.0000
  H   H2544     1.0  0.83286  0.00162  0.76457  1.0000
  H   H2545     1.0  0.75281  0.24332  0.78635  1.0000
  C   C1487     1.0  0.87683  0.17861  0.81481  1.0000
  H   H2546     1.0  0.91900  0.02313  0.90072  1.0000
  C   C1488     1.0  0.93466  0.03672  0.98437  1.0000
  H   H2547     1.0  0.89687  0.15796  0.85532  1.0000
  H   H2548     1.0  0.74638  0.26447  0.95726  1.0000
  C   C1489     1.0  0.90672  0.16405  0.84309  1.0000
  H   H2549     1.0  0.84888  0.14225  0.50972  1.0000
  C   C1490     1.0  0.83319  0.01474  0.65145  1.0000
  H   H2550     1.0  0.87513  0.16598  0.77354  1.0000
  H   H2551     1.0  0.79842  0.11764  0.51160  1.0000
  C   C1491     1.0  0.90577  0.17209  0.80446  1.0000
  C   C1492     1.0  0.88106  0.17341  0.51823  1.0000
  H   H2552     1.0  0.94328  0.00456  0.94409  1.0000
  H   H2553     1.0  0.87505  0.17611  0.84433  1.0000
  H   H2554     1.0  0.90654  0.16291  0.78879  1.0000
  H   H2555     1.0  0.84216  0.02612  0.98723  1.0000
  H   H2556     1.0  0.97766  0.11650  0.93610  1.0000
  C   C1493     1.0  0.78141  0.28338  0.98426  1.0000
  C   C1494     1.0  0.74309  0.24363  0.80807  1.0000
  H   H2557     1.0  0.98149  0.12820  0.75961  1.0000
  H   H2558     1.0  0.78460  0.08971  0.51072  1.0000
  H   H2559     1.0  0.82869  0.14911  0.51177  1.0000
  C   C1495     1.0  0.98560  0.11758  0.98340  1.0000
  H   H2560     1.0  0.73723  0.13223  0.70328  1.0000
  H   H2561     1.0  0.87417  0.01643  0.66085  1.0000
  H   H2562     1.0  0.80802  0.19181  0.53625  1.0000
  C   C1496     1.0  0.87663  0.98893  0.69924  1.0000
  C   C1497     1.0  0.93074  0.05460  0.97456  1.0000
  H   H2563     1.0  0.91757  0.09489  0.98158  1.0000
  C   C1498     1.0  0.87296  0.04388  0.97861  1.0000
  H   H2564     1.0  0.81700  0.12307  0.49776  1.0000
  H   H2565     1.0  0.91923  0.05873  0.96626  1.0000
  H   H2566     1.0  0.75740  0.23718  0.96236  1.0000
  H   H2567     1.0  0.86429  0.00205  0.74020  1.0000
  C   C1499     1.0  0.98377  0.12623  0.70479  1.0000
  H   H2568     1.0  0.98657  0.15385  0.77832  1.0000
  H   H2569     1.0  0.97152  0.13155  0.70212  1.0000
  H   H2570     1.0  0.91046  0.02550  0.98055  1.0000
  H   H2571     1.0  0.98363  0.14557  0.72863  1.0000
  C   C1500     1.0  0.73951  0.28739  0.73917  1.0000
  H   H2572     1.0  0.78717  0.31131  0.90560  1.0000
  H   H2573     1.0  0.98415  0.11350  0.71244  1.0000
  C   C1501     1.0  0.85907  0.98902  0.98338  1.0000
  H   H2574     1.0  0.88623  0.99553  0.69403  1.0000
  H   H2575     1.0  0.86250  0.98715  0.92777  1.0000
  C   C1502     1.0  0.74093  0.16888  0.70620  1.0000
  C   C1503     1.0  0.89181  0.99126  0.99106  1.0000
  H   H2576     1.0  0.77338  0.62417  0.02471  1.0000
  H   H2577     1.0  0.78827  0.54845  0.20886  1.0000
  Fe  Fe217     1.0  0.76869  0.59009  0.19006  1.0000
  S   S433      1.0  0.79448  0.58119  0.17636  1.0000
  S   S434      1.0  0.74739  0.57902  0.21572  1.0000
  Fe  Fe218     1.0  0.79753  0.60401  0.18826  1.0000
  H   H2578     1.0  0.74120  0.36321  0.28033  1.0000
  Fe  Fe219     1.0  0.79259  0.59426  0.12076  1.0000
  S   S435      1.0  0.80373  0.58513  0.06924  1.0000
  S   S436      1.0  0.77185  0.61178  0.20556  1.0000
  S   S437      1.0  0.76687  0.60162  0.13375  1.0000
  H   H2579     1.0  0.94390  0.62775  0.34624  1.0000
  H   H2580     1.0  0.75565  0.36104  0.30697  1.0000
  C   C1504     1.0  0.81867  0.62127  0.23659  1.0000
  H   H2581     1.0  0.74993  0.53304  0.47514  1.0000
  C   C1505     1.0  0.75415  0.53973  0.29046  1.0000
  C   C1506     1.0  0.76988  0.59037  0.01037  1.0000
  H   H2582     1.0  0.95129  0.63274  0.38069  1.0000
  H   H2583     1.0  0.76801  0.64392  0.19427  1.0000
  H   H2584     1.0  0.73750  0.56801  0.11973  1.0000
  C   C1507     1.0  0.88644  0.63808  0.47397  1.0000
  H   H2585     1.0  0.79925  0.54469  0.16688  1.0000
  H   H2586     1.0  0.74954  0.37424  0.41914  1.0000
  C   C1508     1.0  0.83401  0.63182  0.26775  1.0000
  H   H2587     1.0  0.75042  0.51186  0.40277  1.0000
  H   H2588     1.0  0.74505  0.62692  0.24934  1.0000
  H   H2589     1.0  0.74554  0.33186  0.42546  1.0000
  H   H2590     1.0  0.75848  0.35196  0.36764  1.0000
  H   H2591     1.0  0.73870  0.32475  0.20633  1.0000
  H   H2592     1.0  0.83878  0.60814  0.25840  1.0000
  C   C1509     1.0  0.74474  0.56234  0.24852  1.0000
  H   H2593     1.0  0.74038  0.61771  0.29429  1.0000
  H   H2594     1.0  0.76082  0.54281  0.39884  1.0000
  C   C1510     1.0  0.77751  0.58991  0.03858  1.0000
  C   C1511     1.0  0.75681  0.55312  0.26527  1.0000
  H   H2595     1.0  0.76361  0.52295  0.19442  1.0000
  S   S438      1.0  0.81556  0.60500  0.22102  1.0000
  H   H2596     1.0  0.76815  0.55632  0.25891  1.0000
  C   C1512     1.0  0.79372  0.58758  0.03325  1.0000
  H   H2597     1.0  0.76358  0.53260  0.30311  1.0000
  C   C1513     1.0  0.74989  0.56627  0.12239  1.0000
  C   C1514     1.0  0.75110  0.36196  0.41569  1.0000
  C   C1515     1.0  0.90981  0.64003  0.33065  1.0000
  H   H2598     1.0  0.76107  0.63243  0.06054  1.0000
  Fe  Fe220     1.0  0.77226  0.62241  0.14807  1.0000
  C   C1516     1.0  0.80897  0.63590  0.23193  1.0000
  H   H2599     1.0  0.89085  0.62686  0.46592  1.0000
  C   C1517     1.0  0.78856  0.54273  0.18616  1.0000
  S   S439      1.0  0.79798  0.61604  0.13143  1.0000
  H   H2600     1.0  0.77087  0.59103  0.06463  1.0000
  N   N109      1.0  0.77294  0.54432  0.13670  1.0000
  C   C1518     1.0  0.78380  0.55197  0.10646  1.0000
  C   C1519     1.0  0.77372  0.54978  0.17004  1.0000
  C   C1520     1.0  0.75643  0.54868  0.13021  1.0000
  C   C1521     1.0  0.77787  0.52693  0.14009  1.0000
  C   C1522     1.0  0.78348  0.54919  0.06907  1.0000
  H   H2601     1.0  0.74843  0.54374  0.15373  1.0000
  H   H2602     1.0  0.75023  0.57218  0.14423  1.0000
  C   C1523     1.0  0.76838  0.51717  0.17106  1.0000
  H   H2603     1.0  0.78154  0.56478  0.10546  1.0000
  H   H2604     1.0  0.79607  0.54803  0.11056  1.0000
  H   H2605     1.0  0.75150  0.37242  0.36116  1.0000
  H   H2606     1.0  0.77280  0.56263  0.16514  1.0000
  H   H2607     1.0  0.75603  0.57202  0.09710  1.0000
  H   H2608     1.0  0.75381  0.62017  0.04019  1.0000
  H   H2609     1.0  0.77680  0.52305  0.11574  1.0000
  H   H2610     1.0  0.79047  0.52311  0.14147  1.0000
  H   H2611     1.0  0.78708  0.53677  0.06655  1.0000
  H   H2612     1.0  0.76909  0.52815  0.37252  1.0000
  C   C1524     1.0  0.76114  0.62916  0.03468  1.0000
  H   H2613     1.0  0.77201  0.55398  0.06089  1.0000
  H   H2614     1.0  0.77605  0.50620  0.18084  1.0000
  H   H2615     1.0  0.78926  0.53014  0.19694  1.0000
  H   H2616     1.0  0.74999  0.53827  0.36907  1.0000
  H   H2617     1.0  0.79202  0.55536  0.04953  1.0000
  C   C1525     1.0  0.82425  0.64641  0.26332  1.0000
  H   H2618     1.0  0.74370  0.50781  0.48724  1.0000
  C   C1526     1.0  0.75200  0.52063  0.41738  1.0000
  H   H2619     1.0  0.76359  0.54766  0.19122  1.0000
  C   C1527     1.0  0.83120  0.61936  0.25457  1.0000
  H   H2620     1.0  0.75854  0.51428  0.16223  1.0000
  C   C1528     1.0  0.94120  0.63529  0.36672  1.0000
  H   H2621     1.0  0.79930  0.63761  0.21817  1.0000
  C   C1529     1.0  0.74904  0.36119  0.37786  1.0000
  C   C1530     1.0  0.73940  0.53553  0.29946  1.0000
  H   H2622     1.0  0.84365  0.63009  0.28159  1.0000
  H   H2623     1.0  0.75736  0.59163  0.01524  1.0000
  H   H2624     1.0  0.74192  0.33502  0.36428  1.0000
  H   H2625     1.0  0.89877  0.64105  0.34993  1.0000
  H   H2626     1.0  0.76162  0.51489  0.43237  1.0000
  C   C1531     1.0  0.75806  0.53345  0.38820  1.0000
  S   S440      1.0  0.87562  0.64578  0.41145  1.0000
  C   C1532     1.0  0.74432  0.35802  0.30689  1.0000
  H   H2627     1.0  0.74244  0.54817  0.44330  1.0000
  H   H2628     1.0  0.76330  0.35670  0.41885  1.0000
  H   H2629     1.0  0.74363  0.35574  0.43775  1.0000
  H   H2630     1.0  0.91835  0.63018  0.34128  1.0000
  S   S441      1.0  0.75886  0.64558  0.12692  1.0000
  C   C1533     1.0  0.73963  0.53757  0.46170  1.0000
  C   C1534     1.0  0.80217  0.58610  0.99906  1.0000
  H   H2631     1.0  0.75505  0.54347  0.10795  1.0000
  H   H2632     1.0  0.90712  0.63706  0.30678  1.0000
  H   H2633     1.0  0.93151  0.63175  0.38730  1.0000
  N   N110      1.0  0.73729  0.52552  0.44265  1.0000
  C   C1535     1.0  0.75480  0.64379  0.00932  1.0000
  H   H2634     1.0  0.73788  0.63112  0.19642  1.0000
  H   H2635     1.0  0.81474  0.58415  0.99468  1.0000
  H   H2636     1.0  0.74467  0.49131  0.44322  1.0000
  H   H2637     1.0  0.90936  0.64659  0.39196  1.0000
  H   H2638     1.0  0.74574  0.34529  0.30899  1.0000
  C   C1536     1.0  0.73783  0.32132  0.26274  1.0000
  Fe  Fe221     1.0  0.77513  0.59084  0.88154  1.0000
  S   S442      1.0  0.78107  0.61242  0.84432  1.0000
  S   S443      1.0  0.76774  0.59037  0.94157  1.0000
  Fe  Fe222     1.0  0.77242  0.57554  0.81923  1.0000
  S   S444      1.0  0.77810  0.59606  0.77803  1.0000
  H   H2639     1.0  0.76797  0.35811  0.91902  1.0000
  Fe  Fe223     1.0  0.79643  0.59647  0.80881  1.0000
  S   S445      1.0  0.82025  0.60034  0.77811  1.0000
  Fe  Fe224     1.0  0.76251  0.61028  0.81654  1.0000
  H   H2640     1.0  0.80286  0.34365  0.87761  1.0000
  S   S446      1.0  0.79208  0.57463  0.84806  1.0000
  S   S447      1.0  0.75522  0.58994  0.85557  1.0000
  H   H2641     1.0  0.80818  0.55035  0.69718  1.0000
  H   H2642     1.0  0.75421  0.32293  0.94008  1.0000
  H   H2643     1.0  0.85009  0.63865  0.70077  1.0000
  H   H2644     1.0  0.82951  0.56932  0.76100  1.0000
  C   C1537     1.0  0.79449  0.58711  0.97044  1.0000
  H   H2645     1.0  0.88275  0.63341  0.78846  1.0000
  C   C1538     1.0  0.81939  0.55299  0.70001  1.0000
  C   C1539     1.0  0.80576  0.55965  0.75725  1.0000
  C   C1540     1.0  0.81061  0.63223  0.76059  1.0000
  H   H2646     1.0  0.87268  0.63808  0.75228  1.0000
  H   H2647     1.0  0.80259  0.54215  0.80464  1.0000
  C   C1541     1.0  0.73735  0.64005  0.83557  1.0000
  H   H2648     1.0  0.73999  0.52509  0.75298  1.0000
  C   C1542     1.0  0.74518  0.56235  0.72190  1.0000
  C   C1543     1.0  0.73977  0.32952  0.72822  1.0000
  C   C1544     1.0  0.82264  0.61943  0.75642  1.0000
  S   S448      1.0  0.74648  0.63196  0.79800  1.0000
  H   H2649     1.0  0.74235  0.33207  0.90750  1.0000
  S   S449      1.0  0.76706  0.55347  0.80773  1.0000
  C   C1545     1.0  0.73963  0.33498  0.78646  1.0000
  C   C1546     1.0  0.83689  0.62186  0.73479  1.0000
  C   C1547     1.0  0.78696  0.32029  0.92155  1.0000
  H   H2650     1.0  0.77884  0.31700  0.94634  1.0000
  H   H2651     1.0  0.79972  0.34591  0.94322  1.0000
  H   H2652     1.0  0.84627  0.61204  0.73138  1.0000
  C   C1548     1.0  0.75294  0.56431  0.74796  1.0000
  C   C1549     1.0  0.84417  0.64547  0.80078  1.0000
  C   C1550     1.0  0.83909  0.63694  0.71744  1.0000
  H   H2653     1.0  0.85355  0.57407  0.71966  1.0000
  H   H2654     1.0  0.75651  0.57524  0.74636  1.0000
  C   C1551     1.0  0.77827  0.58915  0.97604  1.0000
  H   H2655     1.0  0.80709  0.58894  0.72674  1.0000
  C   C1552     1.0  0.79202  0.34204  0.87082  1.0000
  C   C1553     1.0  0.76894  0.63503  0.95473  1.0000
  H   H2656     1.0  0.81731  0.58606  0.68456  1.0000
  N   N111      1.0  0.78083  0.33642  0.90322  1.0000
  H   H2657     1.0  0.83913  0.55346  0.73927  1.0000
  H   H2658     1.0  0.82540  0.55083  0.64425  1.0000
  H   H2659     1.0  0.81132  0.32413  0.91479  1.0000
  H   H2660     1.0  0.78724  0.33102  0.82987  1.0000
  C   C1554     1.0  0.77011  0.63351  0.91566  1.0000
  H   H2661     1.0  0.81375  0.53411  0.76730  1.0000
  N   N112      1.0  0.81684  0.56476  0.72402  1.0000
  C   C1555     1.0  0.83188  0.56531  0.73496  1.0000
  H   H2662     1.0  0.84162  0.55239  0.66287  1.0000
  H   H2663     1.0  0.78236  0.62865  0.90515  1.0000
  C   C1556     1.0  0.78991  0.35482  0.93479  1.0000
  C   C1557     1.0  0.82901  0.55669  0.66262  1.0000
  H   H2664     1.0  0.79473  0.55818  0.75087  1.0000
  C   C1558     1.0  0.75185  0.33350  0.92001  1.0000
  H   H2665     1.0  0.79015  0.59409  0.68201  1.0000
  C   C1559     1.0  0.84240  0.57605  0.70986  1.0000
  H   H2666     1.0  0.79956  0.63055  0.77703  1.0000
  C   C1560     1.0  0.75635  0.55200  0.77554  1.0000
  H   H2667     1.0  0.80113  0.58606  0.94425  1.0000
  H   H2668     1.0  0.78533  0.36176  0.95642  1.0000
  H   H2669     1.0  0.84522  0.57388  0.68230  1.0000
  H   H2670     1.0  0.76819  0.32612  0.87567  1.0000
  C   C1561     1.0  0.89444  0.64587  0.74082  1.0000
  H   H2671     1.0  0.79588  0.57469  0.67320  1.0000
  H   H2672     1.0  0.76251  0.34660  0.87196  1.0000
  H   H2673     1.0  0.90021  0.63500  0.73044  1.0000
  C   C1562     1.0  0.81171  0.54422  0.78089  1.0000
  H   H2674     1.0  0.83712  0.58850  0.71015  1.0000
  C   C1563     1.0  0.74617  0.32632  0.75938  1.0000
  H   H2675     1.0  0.82704  0.56914  0.65063  1.0000
  H   H2676     1.0  0.78469  0.57861  0.71579  1.0000
  H   H2677     1.0  0.79419  0.36296  0.91091  1.0000
  N   N113      1.0  0.75292  0.64115  0.97380  1.0000
  H   H2678     1.0  0.76300  0.62531  0.91295  1.0000
  H   H2679     1.0  0.78684  0.35381  0.85766  1.0000
  H   H2680     1.0  0.82227  0.54460  0.79088  1.0000
  C   C1564     1.0  0.75158  0.53788  0.77710  1.0000
  C   C1565     1.0  0.80944  0.58079  0.70753  1.0000
  H   H2681     1.0  0.80248  0.56871  0.77438  1.0000
  C   C1566     1.0  0.79420  0.58183  0.69408  1.0000
  C   C1567     1.0  0.79708  0.33151  0.84240  1.0000
  H   H2682     1.0  0.82556  0.54155  0.71226  1.0000
  H   H2683     1.0  0.86262  0.64147  0.83036  1.0000
  C   C1568     1.0  0.80300  0.31733  0.93272  1.0000
  H   H2684     1.0  0.74486  0.32269  0.70751  1.0000
  C   C1569     1.0  0.76617  0.33579  0.89078  1.0000
  C   C1570     1.0  0.77664  0.34787  0.92858  1.0000
  H   H2685     1.0  0.75421  0.52827  0.79824  1.0000
  H   H2686     1.0  0.77729  0.64254  0.95499  1.0000
  H   H2687     1.0  0.77092  0.34252  0.95516  1.0000
  C   C1571     1.0  0.74352  0.53603  0.75143  1.0000
  C   C1572     1.0  0.87933  0.64302  0.76673  1.0000
  H   H2688     1.0  0.89588  0.63103  0.52224  1.0000
  S   S450      1.0  0.74702  0.33061  0.82665  1.0000
  H   H2689     1.0  0.74094  0.62846  0.95058  1.0000
  H   H2690     1.0  0.83665  0.64051  0.82505  1.0000
  H   H2691     1.0  0.80176  0.31929  0.96034  1.0000
  H   H2692     1.0  0.80581  0.33643  0.82078  1.0000
  C   C1573     1.0  0.74040  0.54823  0.72343  1.0000
  C   C1574     1.0  0.81285  0.64729  0.74356  1.0000
  C   C1575     1.0  0.88926  0.64044  0.50609  1.0000
  H   H2693     1.0  0.76696  0.64487  0.89845  1.0000
  H   H2694     1.0  0.84890  0.63612  0.78475  1.0000
  H   H2695     1.0  0.80270  0.31959  0.85323  1.0000
  H   H2696     1.0  0.74732  0.34377  0.93330  1.0000
  H   H2697     1.0  0.75615  0.31709  0.76248  1.0000
  H   H2698     1.0  0.74906  0.61729  0.98632  1.0000
  C   C1576     1.0  0.74294  0.62923  0.97712  1.0000
  H   H2699     1.0  0.77371  0.62322  0.96836  1.0000
  H   H2700     1.0  0.74285  0.57187  0.70034  1.0000
  H   H2701     1.0  0.89568  0.64562  0.81642  1.0000
  C   C1577     1.0  0.84822  0.72472  0.45138  1.0000
  S   S451      1.0  0.81157  0.77434  0.26802  1.0000
  H   H2702     1.0  0.82691  0.80515  0.28812  1.0000
  H   H2703     1.0  0.81543  0.76891  0.34047  1.0000
  C   C1578     1.0  0.95307  0.72685  0.01754  1.0000
  H   H2704     1.0  0.84502  0.69957  0.43788  1.0000
  Fe  Fe225     1.0  0.84943  0.69369  0.34048  1.0000
  S   S452      1.0  0.84113  0.67125  0.36307  1.0000
  S   S453      1.0  0.83925  0.71432  0.36729  1.0000
  Fe  Fe226     1.0  0.87667  0.67946  0.28943  1.0000
  C   C1579     1.0  0.91574  0.65556  0.31992  1.0000
  S   S454      1.0  0.89679  0.68413  0.24445  1.0000
  Fe  Fe227     1.0  0.84578  0.66716  0.30630  1.0000
  H   H2705     1.0  0.92665  0.68261  0.35483  1.0000
  Fe  Fe228     1.0  0.86645  0.66170  0.36381  1.0000
  H   H2706     1.0  0.77152  0.68363  0.31183  1.0000
  S   S455      1.0  0.85217  0.69079  0.28386  1.0000
  S   S456      1.0  0.87445  0.68442  0.34413  1.0000
  C   C1580     1.0  0.75160  0.65661  0.16065  1.0000
  Fe  Fe229     1.0  0.94068  0.75291  0.16363  1.0000
  S   S457      1.0  0.94725  0.77676  0.15094  1.0000
  S   S458      1.0  0.92679  0.74461  0.21751  1.0000
  Fe  Fe230     1.0  0.95304  0.74666  0.08878  1.0000
  S   S459      1.0  0.96002  0.76984  0.06994  1.0000
  S   S460      1.0  0.95924  0.72717  0.05717  1.0000
  Fe  Fe231     1.0  0.96977  0.76553  0.12033  1.0000
  H   H2707     1.0  0.89941  0.66559  0.38060  1.0000
  Fe  Fe232     1.0  0.93731  0.77932  0.10174  1.0000
  S   S461      1.0  0.92313  0.80151  0.07670  1.0000
  S   S462      1.0  0.96411  0.74146  0.13747  1.0000
  S   S463      1.0  0.92929  0.75638  0.11612  1.0000
  Fe  Fe233     1.0  0.86371  0.88595  0.07078  1.0000
  S   S464      1.0  0.87807  0.89240  0.10404  1.0000
  H   H2708     1.0  0.85931  0.94339  0.04125  1.0000
  Fe  Fe234     1.0  0.83804  0.87851  0.13424  1.0000
  S   S465      1.0  0.85026  0.88490  0.17187  1.0000
  S   S466      1.0  0.81787  0.86542  0.14768  1.0000
  Fe  Fe235     1.0  0.85527  0.90542  0.12888  1.0000
  S   S467      1.0  0.85067  0.93025  0.14016  1.0000
  Fe  Fe236     1.0  0.87189  0.87145  0.14334  1.0000
  S   S468      1.0  0.88771  0.85182  0.17247  1.0000
  S   S469      1.0  0.84115  0.90006  0.09309  1.0000
  S   S470      1.0  0.85947  0.86408  0.10798  1.0000
  C   C1581     1.0  0.83339  0.82713  0.25924  1.0000
  H   H2709     1.0  0.80417  0.65953  0.24141  1.0000
  C   C1582     1.0  0.86365  0.94364  0.12969  1.0000
  C   C1583     1.0  0.85835  0.95847  0.13923  1.0000
  C   C1584     1.0  0.86803  0.96969  0.13026  1.0000
  C   C1585     1.0  0.88318  0.96619  0.11169  1.0000
  C   C1586     1.0  0.88852  0.95132  0.10241  1.0000
  C   C1587     1.0  0.87883  0.94012  0.11129  1.0000
  H   H2710     1.0  0.84664  0.96132  0.15351  1.0000
  C   C1588     1.0  0.75025  0.66001  0.22110  1.0000
  H   H2711     1.0  0.90023  0.94846  0.08812  1.0000
  H   H2712     1.0  0.88310  0.92877  0.10384  1.0000
  H   H2713     1.0  0.92955  0.69744  0.12497  1.0000
  N   N114      1.0  0.76601  0.70227  0.24367  1.0000
  C   C1589     1.0  0.91328  0.81517  0.10409  1.0000
  C   C1590     1.0  0.90651  0.82999  0.08832  1.0000
  C   C1591     1.0  0.89855  0.84120  0.10921  1.0000
  C   C1592     1.0  0.89741  0.83771  0.14611  1.0000
  C   C1593     1.0  0.90428  0.82290  0.16200  1.0000
  C   C1594     1.0  0.91216  0.81162  0.14103  1.0000
  H   H2714     1.0  0.90759  0.83293  0.05980  1.0000
  H   H2715     1.0  0.89360  0.85269  0.09663  1.0000
  H   H2716     1.0  0.90351  0.82017  0.19052  1.0000
  H   H2717     1.0  0.91731  0.80020  0.15346  1.0000
  Fe  Fe237     1.0  0.79237  0.78666  0.30450  1.0000
  H   H2718     1.0  0.86461  0.83394  0.03003  1.0000
  H   H2719     1.0  0.78922  0.82904  0.23455  1.0000
  C   C1595     1.0  0.90500  0.70099  0.23752  1.0000
  C   C1596     1.0  0.91520  0.70474  0.20571  1.0000
  C   C1597     1.0  0.92197  0.71806  0.19918  1.0000
  C   C1598     1.0  0.91892  0.72751  0.22496  1.0000
  C   C1599     1.0  0.90897  0.72358  0.25712  1.0000
  C   C1600     1.0  0.90189  0.71047  0.26325  1.0000
  H   H2720     1.0  0.91793  0.69726  0.18614  1.0000
  H   H2721     1.0  0.92972  0.72090  0.17444  1.0000
  H   H2722     1.0  0.90661  0.73081  0.27724  1.0000
  H   H2723     1.0  0.89416  0.70762  0.28799  1.0000
  Fe  Fe238     1.0  0.77569  0.81821  0.31666  1.0000
  H   H2724     1.0  0.74077  0.81142  0.27632  1.0000
  C   C1601     1.0  0.73855  0.77414  0.26443  1.0000
  H   H2725     1.0  0.76123  0.84999  0.22897  1.0000
  H   H2726     1.0  0.85249  0.92243  0.00806  1.0000
  H   H2727     1.0  0.91674  0.79052  0.00574  1.0000
  H   H2728     1.0  0.82655  0.74533  0.37926  1.0000
  H   H2729     1.0  0.92651  0.71191  0.03176  1.0000
  H   H2730     1.0  0.74701  0.70104  0.21866  1.0000
  H   H2731     1.0  0.90561  0.71481  0.12492  1.0000
  H   H2732     1.0  0.97168  0.84307  0.11899  1.0000
  H   H2733     1.0  0.91117  0.67816  0.08443  1.0000
  C   C1602     1.0  0.91638  0.66326  0.41387  1.0000
  C   C1603     1.0  0.80222  0.84497  0.19699  1.0000
  C   C1604     1.0  0.80782  0.85896  0.19059  1.0000
  C   C1605     1.0  0.80458  0.86775  0.21773  1.0000
  C   C1606     1.0  0.79536  0.86284  0.25049  1.0000
  H   H2734     1.0  0.94429  0.65888  0.36306  1.0000
  H   H2735     1.0  0.80864  0.87864  0.21296  1.0000
  H   H2736     1.0  0.79242  0.87000  0.27086  1.0000
  H   H2737     1.0  0.94581  0.81626  0.16033  1.0000
  C   C1607     1.0  0.81900  0.75751  0.29538  1.0000
  C   C1608     1.0  0.82430  0.74353  0.28249  1.0000
  C   C1609     1.0  0.83029  0.73010  0.30475  1.0000
  C   C1610     1.0  0.83122  0.73075  0.33955  1.0000
  C   C1611     1.0  0.82588  0.74476  0.35237  1.0000
  C   C1612     1.0  0.81962  0.75811  0.33039  1.0000
  H   H2738     1.0  0.82350  0.74302  0.25561  1.0000
  H   H2739     1.0  0.83406  0.71926  0.29503  1.0000
  H   H2740     1.0  0.94395  0.67825  0.29746  1.0000
  H   H2741     1.0  0.98526  0.80481  0.11070  1.0000
  S   S471      1.0  0.82683  0.66255  0.28025  1.0000
  H   H2742     1.0  0.89924  0.69189  0.15383  1.0000
  H   H2743     1.0  0.84673  0.73660  0.45746  1.0000
  C   C1613     1.0  0.96734  0.81130  0.05809  1.0000
  H   H2744     1.0  0.75462  0.65648  0.24587  1.0000
  H   H2745     1.0  0.90507  0.74077  0.09085  1.0000
  H   H2746     1.0  0.89722  0.71913  0.03131  1.0000
  N   N115      1.0  0.96401  0.82223  0.11620  1.0000
  C   C1614     1.0  0.81174  0.64833  0.24525  1.0000
  C   C1615     1.0  0.88314  0.97784  0.00973  1.0000
  H   H2747     1.0  0.94247  0.85110  0.12466  1.0000
  C   C1616     1.0  0.74727  0.72653  0.26342  1.0000
  C   C1617     1.0  0.75280  0.84329  0.22538  1.0000
  H   H2748     1.0  0.91238  0.73409  0.04970  1.0000
  S   S472      1.0  0.77706  0.77422  0.34934  1.0000
  H   H2749     1.0  0.86622  0.67389  0.44627  1.0000
  C   C1618     1.0  0.92189  0.67804  0.33600  1.0000
  N   N116      1.0  0.83519  0.71663  0.47258  1.0000
  H   H2750     1.0  0.76184  0.70220  0.15639  1.0000
  S   S473      1.0  0.87075  0.65550  0.30877  1.0000
  H   H2751     1.0  0.95022  0.80744  0.10502  1.0000
  S   S474      1.0  0.77284  0.80284  0.28113  1.0000
  C   C1619     1.0  0.98311  0.81175  0.16060  1.0000
  H   H2752     1.0  0.77445  0.81507  0.44512  1.0000
  H   H2753     1.0  0.93584  0.67279  0.08768  1.0000
  H   H2754     1.0  0.89740  0.67353  0.14622  1.0000
  H   H2755     1.0  0.90575  0.66440  0.31124  1.0000
  C   C1620     1.0  0.84519  0.84985  0.22960  1.0000
  C   C1621     1.0  0.83796  0.85960  0.25921  1.0000
  H   H2756     1.0  0.85604  0.85405  0.21528  1.0000
  H   H2757     1.0  0.83704  0.85329  0.21037  1.0000
  C   C1622     1.0  0.85599  0.82550  0.20831  1.0000
  H   H2758     1.0  0.82733  0.85589  0.27591  1.0000
  H   H2759     1.0  0.84648  0.85964  0.27594  1.0000
  H   H2760     1.0  0.83440  0.87191  0.24673  1.0000
  H   H2761     1.0  0.85161  0.82104  0.15914  1.0000
  N   N117      1.0  0.86880  0.75699  0.22735  1.0000
  C   C1623     1.0  0.86807  0.74050  0.24623  1.0000
  C   C1624     1.0  0.87043  0.76594  0.25448  1.0000
  C   C1625     1.0  0.88292  0.75652  0.19816  1.0000
  C   C1626     1.0  0.85408  0.76336  0.21220  1.0000
  C   C1627     1.0  0.85681  0.76731  0.28597  1.0000
  C   C1628     1.0  0.89000  0.77139  0.18532  1.0000
  C   C1629     1.0  0.85147  0.78058  0.19427  1.0000
  H   H2762     1.0  0.85715  0.74001  0.26579  1.0000
  H   H2763     1.0  0.87197  0.77799  0.24255  1.0000
  H   H2764     1.0  0.88125  0.76053  0.26563  1.0000
  H   H2765     1.0  0.88043  0.75324  0.17436  1.0000
  H   H2766     1.0  0.85349  0.75673  0.19170  1.0000
  H   H2767     1.0  0.84359  0.76144  0.23240  1.0000
  H   H2768     1.0  0.85891  0.73112  0.20864  1.0000
  H   H2769     1.0  0.85559  0.75588  0.30298  1.0000
  H   H2770     1.0  0.85906  0.77464  0.30319  1.0000
  H   H2771     1.0  0.84566  0.77304  0.27705  1.0000
  H   H2772     1.0  0.88148  0.78189  0.17743  1.0000
  H   H2773     1.0  0.89914  0.76979  0.16162  1.0000
  H   H2774     1.0  0.89592  0.77339  0.20569  1.0000
  H   H2775     1.0  0.85670  0.78188  0.16565  1.0000
  H   H2776     1.0  0.85588  0.78813  0.20699  1.0000
  H   H2777     1.0  0.83876  0.78519  0.19682  1.0000
  H   H2778     1.0  0.94951  0.67768  0.10779  1.0000
  C   C1630     1.0  0.93135  0.68303  0.29896  1.0000
  H   H2779     1.0  0.92564  0.69225  0.03444  1.0000
  H   H2780     1.0  0.75639  0.73362  0.25194  1.0000
  H   H2781     1.0  0.86864  0.71689  0.23978  1.0000
  H   H2782     1.0  0.75977  0.67956  0.26099  1.0000
  H   H2783     1.0  0.87810  0.94816  0.03303  1.0000
  H   H2784     1.0  0.87049  0.83388  0.25325  1.0000
  H   H2785     1.0  0.87350  0.81269  0.99926  1.0000
  C   C1631     1.0  0.91261  0.73099  0.07856  1.0000
  H   H2786     1.0  0.89433  0.69224  0.09248  1.0000
  H   H2787     1.0  0.97677  0.80149  0.06503  1.0000
  H   H2788     1.0  0.89476  0.80918  0.02786  1.0000
  H   H2789     1.0  0.74187  0.82259  0.19902  1.0000
  C   C1632     1.0  0.81542  0.74254  0.46453  1.0000
  S   S475      1.0  0.87386  0.88660  0.01272  1.0000
  C   C1633     1.0  0.95656  0.81699  0.09082  1.0000
  C   C1634     1.0  0.91892  0.70320  0.04336  1.0000
  C   C1635     1.0  0.82040  0.72537  0.45966  1.0000
  C   C1636     1.0  0.83884  0.70010  0.46563  1.0000
  C   C1637     1.0  0.90489  0.68249  0.13838  1.0000
  H   H2790     1.0  0.79013  0.70208  0.21929  1.0000
  H   H2791     1.0  0.93107  0.83755  0.12000  1.0000
  H   H2792     1.0  0.97207  0.82097  0.03936  1.0000
  H   H2793     1.0  0.94767  0.82652  0.07984  1.0000
  C   C1638     1.0  0.78971  0.84889  0.25679  1.0000
  H   H2794     1.0  0.81032  0.71974  0.47264  1.0000
  H   H2795     1.0  0.82505  0.80884  0.24294  1.0000
  C   C1639     1.0  0.76777  0.69747  0.17967  1.0000
  H   H2796     1.0  0.88002  0.72710  0.20331  1.0000
  H   H2797     1.0  0.85917  0.96637  0.06550  1.0000
  H   H2798     1.0  0.87139  0.80468  0.26021  1.0000
  H   H2799     1.0  0.80456  0.83817  0.17607  1.0000
  H   H2800     1.0  0.78289  0.70735  0.29071  1.0000
  H   H2801     1.0  0.74067  0.73079  0.28800  1.0000
  H   H2802     1.0  0.93784  0.70673  0.08399  1.0000
  H   H2803     1.0  0.84390  0.80204  0.25589  1.0000
  C   C1640     1.0  0.83262  0.80986  0.26110  1.0000
  C   C1641     1.0  0.91125  0.65872  0.38289  1.0000
  C   C1642     1.0  0.78027  0.70970  0.23356  1.0000
  H   H2804     1.0  0.91626  0.67683  0.14632  1.0000
  C   C1643     1.0  0.90453  0.70800  0.02509  1.0000
  C   C1644     1.0  0.73873  0.66856  0.15730  1.0000
  H   H2805     1.0  0.89411  0.71788  0.09168  1.0000
  C   C1645     1.0  0.97115  0.83634  0.09853  1.0000
  H   H2806     1.0  0.85994  0.81280  0.21437  1.0000
  H   H2807     1.0  0.75971  0.83189  0.21986  1.0000
  N   N118      1.0  0.84846  0.83240  0.24118  1.0000
  C   C1646     1.0  0.90189  0.81338  0.00210  1.0000
  H   H2808     1.0  0.84432  0.87585  0.02723  1.0000
  H   H2809     1.0  0.83013  0.82956  0.28688  1.0000
  C   C1647     1.0  0.85991  0.82885  0.26630  1.0000
  H   H2810     1.0  0.85490  0.83438  0.29010  1.0000
  H   H2811     1.0  0.82375  0.83411  0.24558  1.0000
  H   H2812     1.0  0.86687  0.83000  0.19574  1.0000
  C   C1648     1.0  0.84592  0.82853  0.17927  1.0000
  S   S476      1.0  0.75833  0.80880  0.36275  1.0000
  H   H2813     1.0  0.84496  0.84069  0.16492  1.0000
  H   H2814     1.0  0.88078  0.82844  0.05410  1.0000
  H   H2815     1.0  0.77803  0.72078  0.21445  1.0000
  H   H2816     1.0  0.83412  0.82593  0.18980  1.0000
  C   C1649     1.0  0.90642  0.68837  0.09799  1.0000
  C   C1650     1.0  0.93102  0.69741  0.09606  1.0000
  H   H2817     1.0  0.91112  0.81814  0.00910  1.0000
  H   H2818     1.0  0.76271  0.65224  0.00550  1.0000
  H   H2819     1.0  0.79915  0.71171  0.25839  1.0000
  H   H2820     1.0  0.89742  0.69877  0.03179  1.0000
  H   H2821     1.0  0.93013  0.69590  0.29355  1.0000
  H   H2822     1.0  0.87185  0.84830  0.04364  1.0000
  C   C1651     1.0  0.87252  0.66454  0.46311  1.0000
  C   C1652     1.0  0.86542  0.81159  0.28118  1.0000
  H   H2823     1.0  0.85576  0.80632  0.29856  1.0000
  H   H2824     1.0  0.87410  0.81083  0.29823  1.0000
  H   H2825     1.0  0.94949  0.68445  0.06090  1.0000
  N   N119      1.0  0.91568  0.70119  0.08327  1.0000
  C   C1653     1.0  0.95129  0.82650  0.14665  1.0000
  S   S477      1.0  0.78320  0.78210  0.43786  1.0000
  S   S478      1.0  0.79633  0.80258  0.33721  1.0000
  H   H2826     1.0  0.90828  0.66003  0.43880  1.0000
  N   N120      1.0  0.92196  0.66080  0.34749  1.0000
  H   H2827     1.0  0.89264  0.74732  0.20681  1.0000
  H   H2828     1.0  0.77972  0.69996  0.17197  1.0000
  C   C1654     1.0  0.84940  0.87591  0.99952  1.0000
  Fe  Fe239     1.0  0.75748  0.79165  0.32848  1.0000
  C   C1655     1.0  0.85868  0.96811  0.03674  1.0000
  C   C1656     1.0  0.86634  0.95220  0.02588  1.0000
  H   H2829     1.0  0.88752  0.97280  0.03507  1.0000
  C   C1657     1.0  0.97557  0.80877  0.13137  1.0000
  C   C1658     1.0  0.86898  0.72846  0.22256  1.0000
  H   H2830     1.0  0.84813  0.72633  0.42239  1.0000
  C   C1659     1.0  0.78622  0.71396  0.26395  1.0000
  H   H2831     1.0  0.84611  0.97004  0.03523  1.0000
  H   H2832     1.0  0.96035  0.80686  0.04354  1.0000
  H   H2833     1.0  0.90976  0.68466  0.33609  1.0000
  H   H2834     1.0  0.86699  0.95213  0.99746  1.0000
  H   H2835     1.0  0.87755  0.73600  0.26209  1.0000
  C   C1660     1.0  0.77844  0.67925  0.28779  1.0000
  H   H2836     1.0  0.87327  0.72336  0.43925  1.0000
  C   C1661     1.0  0.79350  0.83979  0.23014  1.0000
  C   C1662     1.0  0.86484  0.71654  0.45720  1.0000
  C   C1663     1.0  0.87539  0.83714  0.03341  1.0000
  C   C1664     1.0  0.77718  0.80826  0.47011  1.0000
  H   H2837     1.0  0.76816  0.68473  0.18492  1.0000
  S   S479      1.0  0.77710  0.84366  0.29709  1.0000
  C   C1665     1.0  0.78198  0.79212  0.47327  1.0000
  C   C1666     1.0  0.90637  0.71588  0.09577  1.0000
  H   H2838     1.0  0.92451  0.73039  0.08312  1.0000
  Fe  Fe240     1.0  0.77899  0.79189  0.38082  1.0000
  C   C1667     1.0  0.94198  0.68225  0.08730  1.0000
  C   C1668     1.0  0.75833  0.70507  0.21146  1.0000
  H   H2839     1.0  0.82142  0.72512  0.43095  1.0000
  C   C1669     1.0  0.75767  0.65268  0.19213  1.0000
  H   H2840     1.0  0.78008  0.66634  0.29424  1.0000
  H   H2841     1.0  0.95607  0.82994  0.16717  1.0000
  H   H2842     1.0  0.78266  0.72662  0.26453  1.0000
  H   H2843     1.0  0.91573  0.67597  0.41050  1.0000
  H   H2844     1.0  0.74395  0.70280  0.27960  1.0000
  C   C1670     1.0  0.77032  0.68491  0.25523  1.0000
  H   H2845     1.0  0.77843  0.67939  0.23377  1.0000
  H   H2846     1.0  0.80397  0.74733  0.45599  1.0000
  H   H2847     1.0  0.92995  0.84257  0.16194  1.0000
  H   H2848     1.0  0.75842  0.70721  0.29762  1.0000
  C   C1671     1.0  0.74034  0.81275  0.22096  1.0000
  H   H2849     1.0  0.79030  0.68203  0.28200  1.0000
  H   H2850     1.0  0.75210  0.80559  0.22258  1.0000
  H   H2851     1.0  0.96362  0.84437  0.08046  1.0000
  C   C1672     1.0  0.93810  0.84021  0.13716  1.0000
  C   C1673     1.0  0.73707  0.67165  0.21808  1.0000
  H   H2852     1.0  0.92703  0.67991  0.27743  1.0000
  H   H2853     1.0  0.96522  0.70326  0.01691  1.0000
  C   C1674     1.0  0.75399  0.70900  0.27250  1.0000
  C   C1675     1.0  0.93848  0.65265  0.34945  1.0000
  H   H2854     1.0  0.86656  0.71609  0.48464  1.0000
  H   H2855     1.0  0.73887  0.72870  0.24498  1.0000
  H   H2856     1.0  0.75546  0.71774  0.20081  1.0000
  H   H2857     1.0  0.97002  0.79839  0.14263  1.0000
  H   H2858     1.0  0.94561  0.65318  0.32236  1.0000
  H   H2859     1.0  0.74773  0.83476  0.28059  1.0000
  H   H2860     1.0  0.84693  0.69256  0.48295  1.0000
  C   C1676     1.0  0.88677  0.83963  0.99798  1.0000
  H   H2861     1.0  0.89689  0.84357  0.00317  1.0000
  H   H2862     1.0  0.92815  0.65694  0.41805  1.0000
  H   H2863     1.0  0.82964  0.67939  0.46772  1.0000
  H   H2864     1.0  0.74892  0.77919  0.25662  1.0000
  H   H2865     1.0  0.97514  0.81088  0.18658  1.0000
  H   H2866     1.0  0.93977  0.75019  0.01073  1.0000
  H   H2867     1.0  0.81821  0.69680  0.44831  1.0000
  C   C1677     1.0  0.82504  0.69180  0.47001  1.0000
  C   C1678     1.0  0.94331  0.73942  0.00043  1.0000
  C   C1679     1.0  0.74083  0.84152  0.25993  1.0000
  C   C1680     1.0  0.95759  0.71296  0.00403  1.0000
  C   C1681     1.0  0.87812  0.65002  0.45212  1.0000
  H   H2868     1.0  0.73973  0.76849  0.21284  1.0000
  H   H2869     1.0  0.92468  0.65458  0.29552  1.0000
  H   H2870     1.0  0.86799  0.70467  0.45058  1.0000
  H   H2871     1.0  0.82357  0.74989  0.44755  1.0000
  H   H2872     1.0  0.90853  0.70977  0.99584  1.0000
  H   H2873     1.0  0.83848  0.91355  0.99818  1.0000
  H   H2874     1.0  0.74772  0.85006  0.20211  1.0000
  H   H2875     1.0  0.74375  0.64932  0.02430  1.0000
  S   S480      1.0  0.89560  0.98017  0.09768  1.0000
  H   H2876     1.0  0.88737  0.96853  0.99351  1.0000
  H   H2877     1.0  0.86373  0.98106  0.13763  1.0000
  Fe  Fe241     1.0  0.87680  0.67231  0.59891  1.0000
  S   S481      1.0  0.85139  0.68251  0.60460  1.0000
  H   H2878     1.0  0.82336  0.91987  0.95017  1.0000
  Fe  Fe242     1.0  0.88134  0.68699  0.66065  1.0000
  S   S482      1.0  0.85619  0.69828  0.66893  1.0000
  S   S483      1.0  0.89641  0.68786  0.70108  1.0000
  Fe  Fe243     1.0  0.85074  0.67569  0.66350  1.0000
  S   S484      1.0  0.82932  0.66903  0.70202  1.0000
  Fe  Fe244     1.0  0.85923  0.70386  0.60956  1.0000
  S   S485      1.0  0.84831  0.72627  0.57892  1.0000
  S   S486      1.0  0.87576  0.66376  0.65809  1.0000
  S   S487      1.0  0.88482  0.69422  0.60088  1.0000
  Fe  Fe245     1.0  0.77722  0.81400  0.69855  1.0000
  S   S488      1.0  0.79642  0.80609  0.65564  1.0000
  S   S489      1.0  0.77690  0.83386  0.72686  1.0000
  Fe  Fe246     1.0  0.79301  0.78222  0.68366  1.0000
  S   S490      1.0  0.81340  0.76431  0.69827  1.0000
  C   C1682     1.0  0.98257  0.74586  0.64395  1.0000
  S   S491      1.0  0.77495  0.79001  0.72868  1.0000
  Fe  Fe247     1.0  0.87367  0.87325  0.79432  1.0000
  S   S492      1.0  0.85985  0.88732  0.75288  1.0000
  S   S493      1.0  0.89860  0.86110  0.78064  1.0000
  Fe  Fe248     1.0  0.84573  0.87516  0.85347  1.0000
  S   S494      1.0  0.82945  0.88844  0.81629  1.0000
  S   S495      1.0  0.83755  0.86742  0.91211  1.0000
  Fe  Fe249     1.0  0.84212  0.87201  0.77840  1.0000
  S   S496      1.0  0.83714  0.85700  0.74284  1.0000
  Fe  Fe250     1.0  0.84847  0.90261  0.79392  1.0000
  S   S497      1.0  0.84068  0.92905  0.78843  1.0000
  S   S498      1.0  0.85651  0.85765  0.81829  1.0000
  S   S499      1.0  0.86409  0.88985  0.83275  1.0000
  C   C1683     1.0  0.98035  0.72445  0.71507  1.0000
  Fe  Fe251     1.0  0.93391  0.73847  0.87357  1.0000
  S   S500      1.0  0.94308  0.76013  0.86958  1.0000
  S   S501      1.0  0.93411  0.72028  0.92316  1.0000
  Fe  Fe252     1.0  0.92521  0.74726  0.79913  1.0000
  S   S502      1.0  0.93371  0.77004  0.78995  1.0000
  S   S503      1.0  0.91432  0.74402  0.75352  1.0000
  Fe  Fe253     1.0  0.95431  0.75632  0.81451  1.0000
  Fe  Fe254     1.0  0.92193  0.77197  0.84572  1.0000
  S   S504      1.0  0.90682  0.79264  0.86794  1.0000
  S   S505      1.0  0.94672  0.73342  0.81987  1.0000
  S   S506      1.0  0.91182  0.75045  0.85354  1.0000
  C   C1684     1.0  0.90160  0.84212  0.80501  1.0000
  C   C1685     1.0  0.89264  0.83865  0.83850  1.0000
  C   C1686     1.0  0.89451  0.82340  0.85740  1.0000
  C   C1687     1.0  0.90525  0.81149  0.84293  1.0000
  C   C1688     1.0  0.91431  0.81486  0.80941  1.0000
  C   C1689     1.0  0.91263  0.83025  0.79065  1.0000
  H   H2879     1.0  0.88428  0.84777  0.84995  1.0000
  H   H2880     1.0  0.88739  0.82077  0.88309  1.0000
  H   H2881     1.0  0.92240  0.80562  0.79785  1.0000
  H   H2882     1.0  0.91945  0.83291  0.76453  1.0000
  C   C1690     1.0  0.85208  0.94273  0.78988  1.0000
  C   C1691     1.0  0.84460  0.95785  0.79528  1.0000
  C   C1692     1.0  0.85318  0.96895  0.79742  1.0000
  C   C1693     1.0  0.86940  0.96522  0.79280  1.0000
  C   C1694     1.0  0.87688  0.95020  0.78683  1.0000
  C   C1695     1.0  0.86828  0.93896  0.78573  1.0000
  H   H2883     1.0  0.83207  0.96090  0.79836  1.0000
  H   H2884     1.0  0.89882  0.85577  0.93304  1.0000
  H   H2885     1.0  0.88943  0.94721  0.78311  1.0000
  H   H2886     1.0  0.87420  0.92743  0.78126  1.0000
  C   C1696     1.0  0.84788  0.87200  0.94071  1.0000
  H   H2887     1.0  0.80022  0.86627  0.54839  1.0000
  H   H2888     1.0  0.84517  0.68140  0.79035  1.0000
  C   C1697     1.0  0.85435  0.92343  0.95136  1.0000
  Fe  Fe255     1.0  0.75812  0.78990  0.69386  1.0000
  C   C1698     1.0  0.86245  0.87611  0.92779  1.0000
  H   H2889     1.0  0.75869  0.77289  0.56509  1.0000
  C   C1699     1.0  0.78545  0.78346  0.50605  1.0000
  H   H2890     1.0  0.88151  0.88380  0.93991  1.0000
  H   H2891     1.0  0.86779  0.87576  0.90054  1.0000
  C   C1700     1.0  0.78002  0.69813  0.74586  1.0000
  H   H2892     1.0  0.81923  0.71552  0.56222  1.0000
  H   H2893     1.0  0.81590  0.94600  0.89374  1.0000
  H   H2894     1.0  0.80426  0.82636  0.58956  1.0000
  C   C1701     1.0  0.94220  0.72369  0.95744  1.0000
  H   H2895     1.0  0.74758  0.75204  0.62040  1.0000
  C   C1702     1.0  0.91012  0.79868  0.98614  1.0000
  N   N121      1.0  0.79272  0.85673  0.60342  1.0000
  C   C1703     1.0  0.79387  0.83944  0.73285  1.0000
  C   C1704     1.0  0.79243  0.85024  0.75524  1.0000
  C   C1705     1.0  0.80555  0.85556  0.75921  1.0000
  C   C1706     1.0  0.82022  0.85035  0.74021  1.0000
  C   C1707     1.0  0.82161  0.83963  0.71760  1.0000
  C   C1708     1.0  0.80857  0.83405  0.71428  1.0000
  H   H2896     1.0  0.78110  0.85455  0.76958  1.0000
  H   H2897     1.0  0.80428  0.86385  0.77654  1.0000
  H   H2898     1.0  0.83281  0.83572  0.70227  1.0000
  H   H2899     1.0  0.80986  0.82578  0.69690  1.0000
  C   C1709     1.0  0.90066  0.70376  0.71615  1.0000
  C   C1710     1.0  0.89677  0.71926  0.69969  1.0000
  C   C1711     1.0  0.90092  0.73134  0.71175  1.0000
  C   C1712     1.0  0.90881  0.72822  0.74074  1.0000
  C   C1713     1.0  0.91247  0.71275  0.75762  1.0000
  C   C1714     1.0  0.90852  0.70063  0.74523  1.0000
  H   H2900     1.0  0.89076  0.72194  0.67732  1.0000
  H   H2901     1.0  0.89798  0.74321  0.69839  1.0000
  H   H2902     1.0  0.91853  0.71007  0.77989  1.0000
  H   H2903     1.0  0.91166  0.68873  0.75821  1.0000
  C   C1715     1.0  0.84005  0.73902  0.60877  1.0000
  C   C1716     1.0  0.82619  0.74948  0.60422  1.0000
  C   C1717     1.0  0.81831  0.75799  0.63097  1.0000
  C   C1718     1.0  0.82431  0.75599  0.66216  1.0000
  C   C1719     1.0  0.83862  0.74624  0.66569  1.0000
  C   C1720     1.0  0.84652  0.73779  0.63892  1.0000
  H   H2904     1.0  0.82127  0.75055  0.58070  1.0000
  H   H2905     1.0  0.80742  0.76573  0.62786  1.0000
  H   H2906     1.0  0.84342  0.74489  0.68953  1.0000
  H   H2907     1.0  0.85755  0.73020  0.64177  1.0000
  H   H2908     1.0  0.76985  0.70706  0.73948  1.0000
  C   C1721     1.0  0.97900  0.71947  0.75563  1.0000
  C   C1722     1.0  0.87510  0.66683  0.49612  1.0000
  H   H2909     1.0  0.78679  0.78396  0.56035  1.0000
  H   H2910     1.0  0.94641  0.81725  0.77687  1.0000
  N   N122      1.0  0.84547  0.92564  0.92128  1.0000
  H   H2911     1.0  0.75486  0.77387  0.50443  1.0000
  C   C1723     1.0  0.85711  0.92135  0.88924  1.0000
  C   C1724     1.0  0.83382  0.91488  0.93215  1.0000
  C   C1725     1.0  0.83742  0.94242  0.91515  1.0000
  H   H2912     1.0  0.82896  0.94518  0.93921  1.0000
  C   C1726     1.0  0.82801  0.91010  0.90239  1.0000
  H   H2913     1.0  0.76733  0.73348  0.73726  1.0000
  H   H2914     1.0  0.74598  0.77736  0.63423  1.0000
  H   H2915     1.0  0.85156  0.92215  0.86604  1.0000
  H   H2916     1.0  0.86284  0.90891  0.89494  1.0000
  H   H2917     1.0  0.83655  0.65509  0.78613  1.0000
  H   H2918     1.0  0.83026  0.86831  0.98707  1.0000
  N   N123      1.0  0.96602  0.73444  0.70235  1.0000
  H   H2919     1.0  0.94318  0.70555  0.71917  1.0000
  C   C1727     1.0  0.82812  0.94768  0.88448  1.0000
  H   H2920     1.0  0.82261  0.92003  0.88419  1.0000
  H   H2921     1.0  0.81902  0.90286  0.91469  1.0000
  H   H2922     1.0  0.83744  0.90265  0.88691  1.0000
  C   C1728     1.0  0.95426  0.70985  0.70844  1.0000
  H   H2923     1.0  0.83321  0.94176  0.86157  1.0000
  H   H2924     1.0  0.77678  0.69214  0.77356  1.0000
  H   H2925     1.0  0.89225  0.65497  0.71756  1.0000
  S   S507      1.0  0.97874  0.76010  0.78768  1.0000
  H   H2926     1.0  0.98086  0.81389  0.84080  1.0000
  S   S508      1.0  0.77610  0.78014  0.65074  1.0000
  H   H2927     1.0  0.77580  0.87350  0.52750  1.0000
  H   H2928     1.0  0.90515  0.84680  0.89477  1.0000
  C   C1729     1.0  0.95913  0.81463  0.77705  1.0000
  C   C1730     1.0  0.86376  0.88050  0.98609  1.0000
  H   H2929     1.0  0.97720  0.76362  0.86119  1.0000
  C   C1731     1.0  0.86195  0.66782  0.75195  1.0000
  N   N124      1.0  0.86930  0.65696  0.78137  1.0000
  H   H2930     1.0  0.97203  0.72598  0.65249  1.0000
  H   H2931     1.0  0.85463  0.82639  0.96761  1.0000
  N   N125      1.0  0.79977  0.71546  0.70878  1.0000
  C   C1732     1.0  0.81696  0.71498  0.70526  1.0000
  C   C1733     1.0  0.79761  0.70931  0.67753  1.0000
  C   C1734     1.0  0.79469  0.70495  0.74310  1.0000
  C   C1735     1.0  0.79152  0.73208  0.70933  1.0000
  C   C1736     1.0  0.82223  0.71922  0.73648  1.0000
  C   C1737     1.0  0.80299  0.71853  0.64050  1.0000
  C   C1738     1.0  0.77385  0.73569  0.70973  1.0000
  H   H2932     1.0  0.82360  0.70318  0.70159  1.0000
  H   H2933     1.0  0.82122  0.72306  0.68127  1.0000
  H   H2934     1.0  0.78532  0.70865  0.67864  1.0000
  H   H2935     1.0  0.80399  0.69705  0.67816  1.0000
  H   H2936     1.0  0.79274  0.71107  0.76607  1.0000
  H   H2937     1.0  0.79295  0.73601  0.73332  1.0000
  H   H2938     1.0  0.79699  0.74031  0.68727  1.0000
  H   H2939     1.0  0.83508  0.71804  0.73069  1.0000
  H   H2940     1.0  0.81752  0.73149  0.73955  1.0000
  H   H2941     1.0  0.81928  0.71135  0.76189  1.0000
  H   H2942     1.0  0.81585  0.71707  0.63381  1.0000
  H   H2943     1.0  0.79933  0.71384  0.62019  1.0000
  H   H2944     1.0  0.79772  0.73106  0.63780  1.0000
  S   S509      1.0  0.77694  0.81670  0.56862  1.0000
  H   H2945     1.0  0.77033  0.74819  0.69855  1.0000
  C   C1739     1.0  0.86303  0.97918  0.95370  1.0000
  H   H2946     1.0  0.96958  0.71277  0.76742  1.0000
  H   H2947     1.0  0.90175  0.79240  0.98078  1.0000
  H   H2948     1.0  0.86796  0.83151  0.92767  1.0000
  H   H2949     1.0  0.88545  0.84781  0.91646  1.0000
  C   C1740     1.0  0.77520  0.87104  0.55675  1.0000
  H   H2950     1.0  0.74373  0.76331  0.56401  1.0000
  H   H2951     1.0  0.75590  0.85016  0.63059  1.0000
  C   C1741     1.0  0.97922  0.81091  0.81582  1.0000
  H   H2952     1.0  0.80643  0.86324  0.65915  1.0000
  C   C1742     1.0  0.90261  0.83015  0.94404  1.0000
  H   H2953     1.0  0.85595  0.66170  0.73858  1.0000
  H   H2954     1.0  0.74798  0.74377  0.81610  1.0000
  H   H2955     1.0  0.94879  0.85283  0.82138  1.0000
  H   H2956     1.0  0.96196  0.78858  0.82775  1.0000
  H   H2957     1.0  0.95771  0.74756  0.74537  1.0000
  C   C1743     1.0  0.95210  0.72659  0.71543  1.0000
  N   N126      1.0  0.89220  0.82585  0.97907  1.0000
  H   H2958     1.0  0.76178  0.86826  0.62620  1.0000
  H   H2959     1.0  0.83887  0.90369  0.94772  1.0000
  H   H2960     1.0  0.74227  0.65424  0.92894  1.0000
  C   C1744     1.0  0.88354  0.65470  0.51776  1.0000
  H   H2961     1.0  0.75044  0.79323  0.51271  1.0000
  C   C1745     1.0  0.74241  0.79916  0.58293  1.0000
  H   H2962     1.0  0.77012  0.72937  0.69272  1.0000
  C   C1746     1.0  0.85076  0.68265  0.76215  1.0000
  C   C1747     1.0  0.96906  0.73722  0.66237  1.0000
  H   H2963     1.0  0.81790  0.85457  0.59389  1.0000
  H   H2964     1.0  0.81044  0.84234  0.63278  1.0000
  C   C1748     1.0  0.95316  0.82766  0.82896  1.0000
  H   H2965     1.0  0.78591  0.86287  0.67435  1.0000
  N   N127      1.0  0.86593  0.81160  0.77625  1.0000
  C   C1749     1.0  0.85230  0.81582  0.80487  1.0000
  C   C1750     1.0  0.85959  0.81221  0.74317  1.0000
  C   C1751     1.0  0.87624  0.82359  0.76972  1.0000
  C   C1752     1.0  0.87453  0.79558  0.78940  1.0000
  C   C1753     1.0  0.85639  0.81645  0.84085  1.0000
  C   C1754     1.0  0.84784  0.80154  0.74630  1.0000
  C   C1755     1.0  0.88544  0.82753  0.73186  1.0000
  C   C1756     1.0  0.88805  0.78834  0.76289  1.0000
  H   H2966     1.0  0.84520  0.82735  0.79561  1.0000
  H   H2967     1.0  0.84432  0.80734  0.81116  1.0000
  H   H2968     1.0  0.86903  0.80929  0.72087  1.0000
  H   H2969     1.0  0.85375  0.82432  0.73398  1.0000
  H   H2970     1.0  0.86927  0.83503  0.77520  1.0000
  H   H2971     1.0  0.88468  0.82023  0.78829  1.0000
  H   H2972     1.0  0.87969  0.79564  0.81285  1.0000
  H   H2973     1.0  0.86638  0.78725  0.79893  1.0000
  H   H2974     1.0  0.86046  0.80464  0.85527  1.0000
  H   H2975     1.0  0.86522  0.82370  0.83810  1.0000
  H   H2976     1.0  0.84577  0.82170  0.85788  1.0000
  H   H2977     1.0  0.85237  0.78922  0.75671  1.0000
  H   H2978     1.0  0.83648  0.80568  0.76250  1.0000
  H   H2979     1.0  0.84540  0.80193  0.71943  1.0000
  H   H2980     1.0  0.87753  0.83442  0.71346  1.0000
  H   H2981     1.0  0.89226  0.81721  0.72090  1.0000
  H   H2982     1.0  0.89369  0.83505  0.73242  1.0000
  H   H2983     1.0  0.88424  0.78694  0.73884  1.0000
  H   H2984     1.0  0.89301  0.77647  0.77575  1.0000
  H   H2985     1.0  0.89760  0.79502  0.75570  1.0000
  H   H2986     1.0  0.85153  0.66037  0.82807  1.0000
  H   H2987     1.0  0.80404  0.69459  0.74815  1.0000
  H   H2988     1.0  0.95839  0.74328  0.65130  1.0000
  C   C1757     1.0  0.85716  0.65129  0.81155  1.0000
  H   H2989     1.0  0.94848  0.77279  0.71276  1.0000
  H   H2990     1.0  0.87120  0.67584  0.80580  1.0000
  S   S510      1.0  0.75854  0.81476  0.66740  1.0000
  C   C1758     1.0  0.81356  0.83324  0.58488  1.0000
  H   H2991     1.0  0.84112  0.68558  0.74677  1.0000
  H   H2992     1.0  0.81681  0.83719  0.55587  1.0000
  C   C1759     1.0  0.80888  0.84718  0.60483  1.0000
  H   H2993     1.0  0.81005  0.71337  0.52868  1.0000
  C   C1760     1.0  0.95688  0.84347  0.80850  1.0000
  C   C1761     1.0  0.74649  0.77505  0.56038  1.0000
  C   C1762     1.0  0.87009  0.93106  0.87600  1.0000
  H   H2994     1.0  0.86151  0.93257  0.94693  1.0000
  H   H2995     1.0  0.96355  0.82449  0.75847  1.0000
  H   H2996     1.0  0.86534  0.94350  0.86703  1.0000
  C   C1763     1.0  0.87031  0.88044  0.95030  1.0000
  H   H2997     1.0  0.85700  0.69259  0.75595  1.0000
  H   H2998     1.0  0.80108  0.87799  0.59993  1.0000
  C   C1764     1.0  0.86576  0.83061  0.95694  1.0000
  C   C1765     1.0  0.78403  0.79078  0.53540  1.0000
  H   H2999     1.0  0.87754  0.92985  0.89598  1.0000
  C   C1766     1.0  0.79448  0.86923  0.65564  1.0000
  C   C1767     1.0  0.88765  0.65609  0.82452  1.0000
  H   H3000     1.0  0.73758  0.66364  0.80867  1.0000
  C   C1768     1.0  0.77920  0.80692  0.53225  1.0000
  C   C1769     1.0  0.93798  0.73788  0.97010  1.0000
  H   H3001     1.0  0.76525  0.86497  0.56779  1.0000
  H   H3002     1.0  0.81732  0.69204  0.49605  1.0000
  H   H3003     1.0  0.94040  0.82833  0.83109  1.0000
  H   H3004     1.0  0.87786  0.92667  0.85268  1.0000
  C   C1770     1.0  0.79210  0.87148  0.61687  1.0000
  H   H3005     1.0  0.95503  0.84584  0.78063  1.0000
  C   C1771     1.0  0.79059  0.86060  0.56511  1.0000
  H   H3006     1.0  0.78103  0.87975  0.61497  1.0000
  H   H3007     1.0  0.79116  0.84982  0.55463  1.0000
  H   H3008     1.0  0.78534  0.84074  0.65064  1.0000
  C   C1772     1.0  0.82132  0.71026  0.53798  1.0000
  C   C1773     1.0  0.78111  0.84714  0.62584  1.0000
  H   H3009     1.0  0.95528  0.76684  0.67075  1.0000
  H   H3010     1.0  0.95513  0.82707  0.85633  1.0000
  H   H3011     1.0  0.78013  0.83788  0.61197  1.0000
  C   C1774     1.0  0.96599  0.80011  0.75970  1.0000
  C   C1775     1.0  0.83456  0.71683  0.51123  1.0000
  Fe  Fe256     1.0  0.77773  0.80494  0.62629  1.0000
  C   C1776     1.0  0.87895  0.81921  0.97383  1.0000
  H   H3012     1.0  0.93025  0.74744  0.95719  1.0000
  H   H3013     1.0  0.95887  0.79094  0.77056  1.0000
  H   H3014     1.0  0.75604  0.66318  0.93971  1.0000
  N   N128      1.0  0.96213  0.81338  0.81413  1.0000
  H   H3015     1.0  0.94758  0.80579  0.89033  1.0000
  H   H3016     1.0  0.82394  0.82532  0.59398  1.0000
  H   H3017     1.0  0.76177  0.85473  0.66709  1.0000
  H   H3018     1.0  0.86348  0.84237  0.96343  1.0000
  H   H3019     1.0  0.97821  0.79528  0.76303  1.0000
  C   C1777     1.0  0.76439  0.85582  0.63770  1.0000
  H   H3020     1.0  0.93939  0.75915  0.70137  1.0000
  H   H3021     1.0  0.94799  0.72625  0.74445  1.0000
  H   H3022     1.0  0.83608  0.93460  0.99099  1.0000
  H   H3023     1.0  0.90288  0.64895  0.75388  1.0000
  H   H3024     1.0  0.78921  0.77098  0.50876  1.0000
  C   C1778     1.0  0.95071  0.76268  0.69900  1.0000
  H   H3025     1.0  0.77301  0.88247  0.56522  1.0000
  H   H3026     1.0  0.82451  0.69743  0.54557  1.0000
  H   H3027     1.0  0.84727  0.98039  0.80236  1.0000
  H   H3028     1.0  0.96876  0.84464  0.81000  1.0000
  H   H3029     1.0  0.97995  0.75291  0.61819  1.0000
  H   H3030     1.0  0.84567  0.95049  0.91159  1.0000
  H   H3031     1.0  0.82814  0.96021  0.87374  1.0000
  C   C1779     1.0  0.77584  0.81560  0.49943  1.0000
  C   C1780     1.0  0.84148  0.87163  0.97681  1.0000
  H   H3032     1.0  0.94328  0.80045  0.83451  1.0000
  C   C1781     1.0  0.96247  0.74950  0.71646  1.0000
  H   H3033     1.0  0.98439  0.75417  0.65918  1.0000
  H   H3034     1.0  0.95684  0.70929  0.67975  1.0000
  H   H3035     1.0  0.91445  0.83036  0.94839  1.0000
  H   H3036     1.0  0.98449  0.79836  0.81685  1.0000
  H   H3037     1.0  0.83454  0.72868  0.51589  1.0000
  C   C1782     1.0  0.95623  0.79698  0.87690  1.0000
  H   H3038     1.0  0.84540  0.70985  0.52019  1.0000
  C   C1783     1.0  0.87875  0.66565  0.79493  1.0000
  H   H3039     1.0  0.96801  0.79668  0.88191  1.0000
  C   C1784     1.0  0.89748  0.84605  0.92118  1.0000
  H   H3040     1.0  0.75363  0.76413  0.76360  1.0000
  H   H3041     1.0  0.78233  0.68918  0.72871  1.0000
  H   H3042     1.0  0.88334  0.81020  0.95659  1.0000
  C   C1785     1.0  0.95563  0.79959  0.83688  1.0000
  H   H3043     1.0  0.87089  0.67798  0.50454  1.0000
  H   H3044     1.0  0.74620  0.75705  0.90422  1.0000
  H   H3045     1.0  0.95527  0.70034  0.96505  1.0000
  C   C1786     1.0  0.84455  0.92360  0.98897  1.0000
  H   H3046     1.0  0.90429  0.82120  0.92701  1.0000
  H   H3047     1.0  0.95310  0.78554  0.88983  1.0000
  C   C1787     1.0  0.95201  0.71131  0.97456  1.0000
  H   H3048     1.0  0.87101  0.67203  0.73025  1.0000
  H   H3049     1.0  0.87958  0.65265  0.84929  1.0000
  H   H3050     1.0  0.79278  0.88080  0.66342  1.0000
  C   C1788     1.0  0.74275  0.76002  0.76903  1.0000
  H   H3051     1.0  0.86276  0.91220  0.95274  1.0000
  H   H3052     1.0  0.81391  0.74385  0.49264  1.0000
  H   H3053     1.0  0.97320  0.75413  0.71475  1.0000
  H   H3054     1.0  0.94204  0.73342  0.70299  1.0000
  S   S511      1.0  0.88091  0.97893  0.79331  1.0000
  C   C1789     1.0  0.82706  0.64973  0.72185  1.0000
  H   H3055     1.0  0.88722  0.67082  0.77290  1.0000
  H   H3056     1.0  0.96323  0.70166  0.72218  1.0000
  H   H3057     1.0  0.88087  0.84991  0.98147  1.0000
  H   H3058     1.0  0.75472  0.79593  0.58704  1.0000
  S   S512      1.0  0.88846  0.65654  0.55830  1.0000
  C   C1790     1.0  0.74661  0.65637  0.95173  1.0000
  H   H3059     1.0  0.88030  0.97790  0.71718  1.0000
  H   H3060     1.0  0.85455  0.97138  0.95757  1.0000
  H   H3061     1.0  0.73780  0.67298  0.98890  1.0000
  H   H3062     1.0  0.97732  0.72964  0.76889  1.0000
  H   H3063     1.0  0.91867  0.80130  0.96170  1.0000
  H   H3064     1.0  0.98411  0.71376  0.70290  1.0000
  H   H3065     1.0  0.89482  0.66344  0.83086  1.0000
  C   C1791     1.0  0.73951  0.74849  0.79880  1.0000
  H   H3066     1.0  0.96576  0.80319  0.73078  1.0000
  H   H3067     1.0  0.98369  0.83053  0.77030  1.0000
  H   H3068     1.0  0.74038  0.82001  0.60468  1.0000
  H   H3069     1.0  0.80347  0.65709  0.74717  1.0000
  C   C1792     1.0  0.74651  0.78192  0.52068  1.0000
  H   H3070     1.0  0.77211  0.82808  0.49664  1.0000
  H   H3071     1.0  0.87498  0.97237  0.95073  1.0000
  H   H3072     1.0  0.74265  0.80626  0.55589  1.0000
