data_image0
_chemical_formula_structural       CSCH2FeSCFeS2FeS2FeSFeS3H2FeS2FeS2HFeS2FeS2FeSFeS3C2HC2H3C3H2C6H6CHCHC7H4CHC2H6C6H4C2NC6HCH21CH2CH2NC8H20SNH3CH2CNCHCHCH7CH2CH4C3H4CH2SCHCHCFeHCH2CH4C2H2CH4CH3C3HCH4CH4CHSNH7CFeCNHC2H2CH5CHSFeS2FeS2FeSFeS3FeHSCH2NHSHFeS2FeS2FeSFeS3C3H4C6H5CH2CH2C2HC7H4C2H2CHC6H4CH4NC8H20NC6SCH20CHCH3CH2CH2CH2CH2CHCHNHC2HCH11C2H3CHCHCNH4CH2C2HCH4CH2C2HCHSCHCHCH2SH6FeHCH2SC2H4NCHC2HFeCFeS2FeS2FeSFeS3HSFeS2FeS2FeSFeS3FeSHSHC2SHC5H4C6H4C2NCHCHC7H4C2H5C6H4C3HCHNCHC3HCH15CHFeH2NC8H20NC3HCHCH3CH2CH4CH2CH2NH3CH3SH3CH3NH3CHC2HCHC3H4CH9CH2SC2H7CNCH3CHCHCHCH3C4H2CHCH2CH4SCH4FeH3CH6CSNCHFeCH2FeS2FeS2FeSFeS3FeSCFeS2FeS2FeSFeS3FeS2FeHFeSHSCH4CH2SH2C6H4C2H3C6H4C6H4NH3SCH3CH8C2H3CHCNCH14CH2SHC2HCH2CHC2H3NC8H9C3H3CH4NC8H20NC2H2C4H2C2H2CHC2H2CHCHC2HCH10CH2C3H2CH9C2HC2FeSCSFeS2FeS2FeSFeS3FeHFeHSFeCS2FeS2FeS2FeSFeS3CHCH3C3H4C6H5CHCH2C6H4CHSC3HC6H7CHC2H4NCH4SFeH3CSH2C2HCHNC5H15NHCNC3HC2H4CH2CFeC2HSHCH4NC6HCH4CH9CH6CH2CHCH2CNH3C2HC2H6CH2CH4SHSCHCH4CH2CHFeCH8CH2CH3C3H10SHFeS2FeS2FeSFeS3HSFeS2FeS2FeSFeS3H2C2H2CHCHC6H8C6H5C3H2CH3C6H4FeHCH8CH6C3H6CH2C2H2SHCH2CH2C2HC2H2C2H4CH6CH6NHC3HC3H5FeSH13NC3HCH10CHCH3CNHCHC5NC5H10C2H2NHC4H2CSH4CHFeCHC2HNHFeSCHCHCHCH3CFeS2FeS2FeSFeS3H2SFeS2FeS2FeSFeS3HCSCHFeSH4C2H3C6H4C4NH2CH3CHNHC7H4CHCH2C6H5C3HCHCH2CHCSH2C2H3CH5CH6CH8C2HCH2CHC2H4CHC2H3NC5HC2H15CH4C2H2CH8CH5C2NC7H14CHNC5H6C2HCH5C2HFe2S2FeS2FeSFeS3CS2HFeSH2CFeS2FeS2FeSFeS3FeSH3CFeS2HCHCH2CH5CHCHC6H4C5H3C6H4C2H3CFeC8H4CSC3H4CH4NHCHCH5FeH5CH8SHCHC2HC2HFeH2CH5N2C3FeHCHCH3CH5C3HCH5CNC7H11SH5NCHCH2CH4CH4CH4CH2SH2CHSHCH3CHCH9C2SH2CFeSHFeS2FeS2FeSFeS3HNSFeS2FeS2FeSFeS3C4H3C2H2C6H4SHC6H4C2H2NH3C2H2CH2C6H4CH2CSH2NCHC6H5CH8SHCH2CNC8H23C2H2NC8H20NC5H3C2H14CHC3H2C2H7CHCHCHCH3CH2CH2CHSH6CH4CHCHFeCSFeCSHFeS2FeS2FeSFeS3HSH3FeSHFeS2FeS2FeSFeS3CH2C4HC6H4C2H2C6H4CH4CHC6H4C3HNCHNHCHSHCH2CH3C2HC2H5NH6CH3CHFeHSHC2SHCH2CHC2HC2H2CHSHCHCH2CH2CH2CHCH2NHCH6CH2C3HNC2H8CHCSH8CH2C2SHCH4FeHCHC2HCHCH11CFeS2FeS2FeSFeS3FeHSFeSH3S2FeS2FeS2FeSFeS3HSFeCHC6H5C2HCHCHC4HC6H4C2H5C2HNCH3C6H2CHNC8H20C3H4CH2CHC4NC6HCH20CH2CHCH5NCH2CH7CH5C3NH5FeCH3CSNC2HCHC3H3CH6CHCH3C2H2C2H3SH4SH3CH3CHCHFeS2FeS2FeSFeS4FeSFeS2FeS2FeSFeS3CS2H6C6H4CHCHCH3CHFeHC6H4C6H4CHC4H7C2H11C2HCHC2HCHCH3CHNC6HC2H3CH6CSHCNCFeH2NC2HCHCH9C4H9C2HCH3SH5CH2C2H3CH2CH2C2HC2NH7CH3NHNH6C2H6C3HCHCH2CH2CH8CH2CHFeSCFeS2FeS2FeSFeS3CHSFeS2FeS2FeSFeS3CH2CH2CNC4H2C6H4C7H5C4H5C3HCHC7H10CNCH5CH9CH3C4H4CHCH3CHCHC2HCH4C2H5SH3NC6H16SHCH3CH5CH3CHCHCNCH8NHCH4CH2CHCHC2H5CHNH9CHC2NHCHC2H2C2H2CHCHCFeH4CH2CHC4HC2H7CHC2HCH3CH2CHCHSH2CFeSFeS2FeCFeS2FeS2FeS2FeSFeS3CSCHFeS2FeS2FeSFeS3H4C6H7CHC6H4CHCHC2H2C6H8C2H2C2N2H4CH4C2H2C2H6SCSHNC8H21CH3SHC2H2CH2CHCHNHCHNC2H3CH3C2HC2FeCH2NC2H7CH2CH4CH3C2H3C2H2NHCH4CHCH7CH3CH2CH2C3H2CH3CHCHCHCH5C2HCH3CHFeS2FeS2FeSFeS3FeS2FeHFeS2CFeS2FeS2FeSFeS3HFeSHFeSH8C6H5C2SHCH2C2HFeH2CHC6H4C6H4CH3CSC4H3SC2H4C2H2CH3SCH4CH7CH3NCNCHC2H7SH6CHC2HCH2CH2CHNHCHCH3CH2CH4CH2CH2CH4SNCH2CH5NC7H4C2HC3H3CH4C3H2CHCH4CH2CH3CFeS2FeS2FeSFeS3FeHSH3CSHFeS2FeS2FeSFeS3CSH2CHC2HCH2C6H4CH2CNH5C7H4C2HC6H4C3H3C2HC2H2CHC2H3CH3SH5C3HNH3CH2C2H6CHCHCHCHCH2FeH8N2H2C3H2CH4C3H2C5HCH6NH5NH3C2H2CH11C2H3C3H3CHSCHNC2H2CSHCH4CH3CHC2SHCH3CH3
_chemical_formula_sum              "C1344 S384 H2304 Fe192 N96"
_cell_length_a       53.6173
_cell_length_b       53.632
_cell_length_c       87.7107
_cell_angle_alpha    86.1499
_cell_angle_beta     87.7814
_cell_angle_gamma    89.1231

_space_group_name_H-M_alt    "P 1"
_space_group_IT_number       1

loop_
  _space_group_symop_operation_xyz
  'x, y, z'

loop_
  _atom_site_type_symbol
  _atom_site_label
  _atom_site_symmetry_multiplicity
  _atom_site_fract_x
  _atom_site_fract_y
  _atom_site_fract_z
  _atom_site_occupancy
  C   C1        1.0  0.22000  0.29413  0.24037  1.0000
  S   S1        1.0  0.44779  0.01007  0.05477  1.0000
  C   C2        1.0  0.42308  0.26155  0.19295  1.0000
  H   H1        1.0  0.27408  0.40907  0.21837  1.0000
  H   H2        1.0  0.31209  0.18899  0.21499  1.0000
  Fe  Fe1       1.0  0.42483  0.01616  0.07645  1.0000
  S   S2        1.0  0.43487  0.04621  0.09280  1.0000
  C   C3        1.0  0.01176  0.38295  0.99719  1.0000
  Fe  Fe2       1.0  0.39369  0.15968  0.14893  1.0000
  S   S3        1.0  0.41387  0.19690  0.14685  1.0000
  S   S4        1.0  0.38403  0.13552  0.12915  1.0000
  Fe  Fe3       1.0  0.38125  0.16427  0.18331  1.0000
  S   S5        1.0  0.40144  0.20033  0.18335  1.0000
  S   S6        1.0  0.35657  0.14879  0.20346  1.0000
  Fe  Fe4       1.0  0.38189  0.21184  0.16166  1.0000
  S   S7        1.0  0.36553  0.25202  0.16279  1.0000
  Fe  Fe5       1.0  0.43156  0.18269  0.16880  1.0000
  S   S8        1.0  0.47134  0.18618  0.17736  1.0000
  S   S9        1.0  0.36076  0.17601  0.16207  1.0000
  S   S10       1.0  0.41246  0.14517  0.17039  1.0000
  H   H3        1.0  0.26633  0.27343  0.19671  1.0000
  H   H4        1.0  0.41402  0.27730  0.16208  1.0000
  Fe  Fe6       1.0  0.05463  0.38444  0.07330  1.0000
  S   S11       1.0  0.03715  0.34921  0.06641  1.0000
  S   S12       1.0  0.09469  0.38644  0.08165  1.0000
  Fe  Fe7       1.0  0.02655  0.37095  0.04438  1.0000
  S   S13       1.0  0.03720  0.35609  0.02072  1.0000
  S   S14       1.0  0.04608  0.40534  0.05078  1.0000
  H   H5        1.0  0.26560  0.48350  0.19740  1.0000
  Fe  Fe8       1.0  0.23685  0.34574  0.16074  1.0000
  S   S15       1.0  0.19900  0.34009  0.17282  1.0000
  S   S16       1.0  0.25911  0.30925  0.15610  1.0000
  Fe  Fe9       1.0  0.22837  0.40352  0.15847  1.0000
  S   S17       1.0  0.19076  0.40072  0.17024  1.0000
  S   S18       1.0  0.24510  0.44216  0.15206  1.0000
  Fe  Fe10      1.0  0.20863  0.37226  0.18647  1.0000
  S   S19       1.0  0.20467  0.37829  0.21191  1.0000
  Fe  Fe11      1.0  0.18400  0.36904  0.15534  1.0000
  S   S20       1.0  0.14397  0.36512  0.14709  1.0000
  S   S21       1.0  0.24707  0.37656  0.17552  1.0000
  S   S22       1.0  0.22110  0.37310  0.14243  1.0000
  C   C4        1.0  0.18799  0.35893  0.22574  1.0000
  C   C5        1.0  0.17717  0.33669  0.22205  1.0000
  H   H6        1.0  0.23543  0.48132  0.19052  1.0000
  C   C6        1.0  0.31658  0.20600  0.18639  1.0000
  C   C7        1.0  0.00748  0.47501  0.06756  1.0000
  H   H7        1.0  0.17986  0.33046  0.21062  1.0000
  H   H8        1.0  0.34096  0.09707  0.23816  1.0000
  H   H9        1.0  0.03919  0.45075  0.07196  1.0000
  C   C8        1.0  0.20991  0.47463  0.16469  1.0000
  C   C9        1.0  0.23333  0.47183  0.15732  1.0000
  C   C10       1.0  0.28342  0.26406  0.20124  1.0000
  H   H10       1.0  0.19798  0.45861  0.16678  1.0000
  H   H11       1.0  0.23625  0.43858  0.18608  1.0000
  C   C11       1.0  0.10785  0.38041  0.10001  1.0000
  C   C12       1.0  0.09361  0.37199  0.11301  1.0000
  C   C13       1.0  0.10500  0.36742  0.12724  1.0000
  C   C14       1.0  0.13074  0.37119  0.12874  1.0000
  C   C15       1.0  0.14497  0.37956  0.11574  1.0000
  C   C16       1.0  0.13360  0.38408  0.10150  1.0000
  H   H12       1.0  0.07384  0.36897  0.11211  1.0000
  H   H13       1.0  0.09374  0.36088  0.13716  1.0000
  H   H14       1.0  0.16476  0.38257  0.11663  1.0000
  H   H15       1.0  0.14488  0.39060  0.09158  1.0000
  H   H16       1.0  0.44690  0.23364  0.18315  1.0000
  H   H17       1.0  0.24040  0.29073  0.23948  1.0000
  C   C17       1.0  0.18528  0.36627  0.24081  1.0000
  H   H18       1.0  0.29078  0.43235  0.19594  1.0000
  C   C18       1.0  0.03137  0.46935  0.07272  1.0000
  H   H19       1.0  0.28168  0.45591  0.21616  1.0000
  C   C19       1.0  0.10646  0.38069  0.03650  1.0000
  C   C20       1.0  0.33569  0.26745  0.16076  1.0000
  C   C21       1.0  0.31583  0.25701  0.15356  1.0000
  C   C22       1.0  0.29277  0.27012  0.15221  1.0000
  C   C23       1.0  0.28899  0.29386  0.15803  1.0000
  C   C24       1.0  0.30883  0.30423  0.16529  1.0000
  C   C25       1.0  0.33194  0.29118  0.16658  1.0000
  H   H20       1.0  0.31829  0.23896  0.14885  1.0000
  H   H21       1.0  0.27773  0.26185  0.14648  1.0000
  H   H22       1.0  0.30644  0.32244  0.16979  1.0000
  H   H23       1.0  0.34707  0.29966  0.17208  1.0000
  C   C26       1.0  0.36002  0.15542  0.22277  1.0000
  H   H24       1.0  0.19710  0.43859  0.19517  1.0000
  C   C27       1.0  0.35185  0.22100  0.21088  1.0000
  C   C28       1.0  0.38168  0.16611  0.22769  1.0000
  H   H25       1.0  0.10799  0.38641  0.04834  1.0000
  H   H26       1.0  0.42146  0.24954  0.20376  1.0000
  H   H27       1.0  0.39649  0.17157  0.21946  1.0000
  H   H28       1.0  0.44386  0.24947  0.13764  1.0000
  H   H29       1.0  0.28185  0.20474  0.17348  1.0000
  H   H30       1.0  0.03661  0.45994  0.02190  1.0000
  C   C29       1.0  0.39848  0.11041  0.11939  1.0000
  C   C30       1.0  0.38553  0.09970  0.10779  1.0000
  C   C31       1.0  0.39613  0.07997  0.09964  1.0000
  C   C32       1.0  0.42004  0.07073  0.10287  1.0000
  C   C33       1.0  0.43296  0.08134  0.11450  1.0000
  C   C34       1.0  0.42226  0.10091  0.12275  1.0000
  H   H31       1.0  0.36718  0.10689  0.10500  1.0000
  H   H32       1.0  0.38594  0.07223  0.09069  1.0000
  H   H33       1.0  0.45146  0.07444  0.11714  1.0000
  H   H34       1.0  0.43253  0.10885  0.13158  1.0000
  C   C35       1.0  0.37262  0.03302  0.13031  1.0000
  C   C36       1.0  0.33062  0.23652  0.20335  1.0000
  N   N1        1.0  0.11285  0.33353  0.04353  1.0000
  C   C37       1.0  0.13924  0.33467  0.03694  1.0000
  C   C38       1.0  0.11350  0.33707  0.06042  1.0000
  C   C39       1.0  0.09666  0.35384  0.03624  1.0000
  C   C40       1.0  0.10206  0.30864  0.04048  1.0000
  C   C41       1.0  0.14220  0.33435  0.01937  1.0000
  C   C42       1.0  0.12463  0.31517  0.07037  1.0000
  H   H35       1.0  0.30361  0.23237  0.22988  1.0000
  C   C43       1.0  0.07555  0.30334  0.04730  1.0000
  H   H36       1.0  0.14887  0.35154  0.04041  1.0000
  H   H37       1.0  0.15050  0.31859  0.04168  1.0000
  H   H38       1.0  0.09457  0.34120  0.06534  1.0000
  H   H39       1.0  0.12461  0.35380  0.06252  1.0000
  H   H40       1.0  0.09304  0.35031  0.02416  1.0000
  H   H41       1.0  0.07785  0.35388  0.04204  1.0000
  H   H42       1.0  0.10051  0.30705  0.02797  1.0000
  H   H43       1.0  0.11465  0.29275  0.04401  1.0000
  H   H44       1.0  0.21494  0.45823  0.22525  1.0000
  H   H45       1.0  0.26637  0.49127  0.14867  1.0000
  H   H46       1.0  0.47868  0.26331  0.14947  1.0000
  H   H47       1.0  0.14423  0.31093  0.06687  1.0000
  H   H48       1.0  0.12470  0.32057  0.08239  1.0000
  H   H49       1.0  0.47612  0.30309  0.14850  1.0000
  H   H50       1.0  0.46282  0.25742  0.19180  1.0000
  H   H51       1.0  0.28077  0.42157  0.23604  1.0000
  H   H52       1.0  0.40608  0.25838  0.18657  1.0000
  H   H53       1.0  0.32646  0.21750  0.17705  1.0000
  H   H54       1.0  0.27173  0.22309  0.22763  1.0000
  H   H55       1.0  0.29895  0.27722  0.19829  1.0000
  H   H56       1.0  0.33212  0.04252  0.13005  1.0000
  C   C44       1.0  0.16282  0.32252  0.23317  1.0000
  H   H57       1.0  0.05475  0.48152  0.03107  1.0000
  H   H58       1.0  0.44180  0.28328  0.13713  1.0000
  C   C45       1.0  0.03626  0.47899  0.02619  1.0000
  H   H59       1.0  0.06420  0.48376  0.08234  1.0000
  H   H60       1.0  0.47121  0.23547  0.16015  1.0000
  N   N2        1.0  0.11447  0.35347  0.19774  1.0000
  C   C46       1.0  0.13632  0.36995  0.19274  1.0000
  C   C47       1.0  0.12209  0.32688  0.19501  1.0000
  C   C48       1.0  0.10909  0.35618  0.21463  1.0000
  C   C49       1.0  0.09255  0.36233  0.18846  1.0000
  C   C50       1.0  0.13398  0.39754  0.19679  1.0000
  C   C51       1.0  0.12806  0.32133  0.17824  1.0000
  C   C52       1.0  0.09555  0.33452  0.22383  1.0000
  C   C53       1.0  0.06860  0.34671  0.19037  1.0000
  H   H61       1.0  0.15386  0.36238  0.19774  1.0000
  H   H62       1.0  0.13976  0.37040  0.18013  1.0000
  H   H63       1.0  0.10766  0.31331  0.19927  1.0000
  H   H64       1.0  0.13881  0.32136  0.20164  1.0000
  H   H65       1.0  0.12679  0.35841  0.22065  1.0000
  H   H66       1.0  0.09792  0.37348  0.21645  1.0000
  H   H67       1.0  0.08670  0.38150  0.19131  1.0000
  H   H68       1.0  0.09775  0.36480  0.17601  1.0000
  H   H69       1.0  0.15142  0.40736  0.19299  1.0000
  H   H70       1.0  0.16230  0.33621  0.01598  1.0000
  H   H71       1.0  0.13191  0.39950  0.20928  1.0000
  H   H72       1.0  0.11237  0.32628  0.17070  1.0000
  H   H73       1.0  0.14518  0.33087  0.17369  1.0000
  H   H74       1.0  0.13177  0.30099  0.17760  1.0000
  H   H75       1.0  0.10787  0.31776  0.22527  1.0000
  H   H76       1.0  0.07792  0.32941  0.21881  1.0000
  H   H77       1.0  0.09086  0.34025  0.23556  1.0000
  H   H78       1.0  0.05655  0.35273  0.20008  1.0000
  H   H79       1.0  0.07205  0.32635  0.19176  1.0000
  H   H80       1.0  0.05799  0.34940  0.17973  1.0000
  S   S23       1.0  0.40384  0.00982  0.01989  1.0000
  N   N3        1.0  0.45186  0.26760  0.16855  1.0000
  H   H81       1.0  0.12458  0.38329  0.03014  1.0000
  H   H82       1.0  0.07250  0.28285  0.04830  1.0000
  H   H83       1.0  0.25766  0.46006  0.23015  1.0000
  C   C54       1.0  0.34541  0.07885  0.24436  1.0000
  H   H84       1.0  0.49269  0.19912  0.14626  1.0000
  H   H85       1.0  0.42366  0.02355  0.13224  1.0000
  C   C55       1.0  0.45535  0.29493  0.17078  1.0000
  N   N4        1.0  0.24424  0.45248  0.20798  1.0000
  C   C56       1.0  0.38459  0.16888  0.24340  1.0000
  H   H86       1.0  0.40773  0.09312  0.24069  1.0000
  C   C57       1.0  0.24940  0.43491  0.19549  1.0000
  H   H87       1.0  0.42133  0.24494  0.16205  1.0000
  C   C58       1.0  0.46290  0.31193  0.15652  1.0000
  H   H88       1.0  0.38929  0.04299  0.12526  1.0000
  H   H89       1.0  0.47839  0.06782  0.07269  1.0000
  H   H90       1.0  0.48604  0.03542  0.07201  1.0000
  H   H91       1.0  0.39277  0.07047  0.21882  1.0000
  H   H92       1.0  0.02131  0.47894  0.03524  1.0000
  H   H93       1.0  0.21568  0.31260  0.24488  1.0000
  H   H94       1.0  0.13605  0.31645  0.01522  1.0000
  C   C59       1.0  0.44732  0.25425  0.18411  1.0000
  H   H95       1.0  0.19569  0.47126  0.19934  1.0000
  H   H96       1.0  0.09290  0.39375  0.03081  1.0000
  C   C60       1.0  0.29585  0.19191  0.17888  1.0000
  H   H97       1.0  0.11322  0.29810  0.07042  1.0000
  H   H98       1.0  0.20752  0.25607  0.24307  1.0000
  H   H99       1.0  0.33027  0.19145  0.19029  1.0000
  H   H100      1.0  0.36652  0.09210  0.21704  1.0000
  C   C61       1.0  0.34098  0.14843  0.23361  1.0000
  C   C62       1.0  0.40787  0.99858  0.00105  1.0000
  C   C63       1.0  0.19660  0.45180  0.20437  1.0000
  H   H101      1.0  0.21723  0.42740  0.21948  1.0000
  H   H102      1.0  0.15417  0.30552  0.23017  1.0000
  H   H103      1.0  0.17887  0.44834  0.21110  1.0000
  H   H104      1.0  0.36776  0.23345  0.21254  1.0000
  C   C64       1.0  0.21862  0.44723  0.21506  1.0000
  H   H105      1.0  0.41435  0.26504  0.13650  1.0000
  H   H106      1.0  0.06110  0.31247  0.03999  1.0000
  S   S24       1.0  0.01955  0.39785  0.08508  1.0000
  C   C65       1.0  0.24601  0.47896  0.20111  1.0000
  H   H107      1.0  0.24591  0.41519  0.19970  1.0000
  C   C66       1.0  0.26304  0.44882  0.22031  1.0000
  H   H108      1.0  0.27752  0.42213  0.17916  1.0000
  C   C67       1.0  0.02971  0.36464  0.00120  1.0000
  Fe  Fe12      1.0  0.00936  0.41496  0.06211  1.0000
  H   H109      1.0  0.32566  0.25104  0.21137  1.0000
  C   C68       1.0  0.29154  0.21671  0.22749  1.0000
  H   H110      1.0  0.43771  0.30330  0.17533  1.0000
  H   H111      1.0  0.35001  0.05262  0.11266  1.0000
  C   C69       1.0  0.38571  0.08939  0.22120  1.0000
  H   H112      1.0  0.28064  0.26134  0.21378  1.0000
  H   H113      1.0  0.35405  0.02398  0.09070  1.0000
  H   H114      1.0  0.34596  0.21255  0.22232  1.0000
  H   H115      1.0  0.42333  0.28117  0.19618  1.0000
  C   C70       1.0  0.27577  0.43637  0.18778  1.0000
  C   C71       1.0  0.43295  0.26571  0.14164  1.0000
  H   H116      1.0  0.39754  0.10300  0.21420  1.0000
  H   H117      1.0  0.42445  0.00531  0.11553  1.0000
  C   C72       1.0  0.47466  0.25566  0.16133  1.0000
  H   H118      1.0  0.29146  0.24526  0.18117  1.0000
  H   H119      1.0  0.38101  0.04427  0.23845  1.0000
  H   H120      1.0  0.34273  0.06452  0.23597  1.0000
  H   H121      1.0  0.37365  0.03384  0.14294  1.0000
  C   C73       1.0  0.42925  0.26384  0.15921  1.0000
  H   H122      1.0  0.46877  0.29777  0.17987  1.0000
  H   H123      1.0  0.33867  0.24711  0.19299  1.0000
  H   H124      1.0  0.13226  0.35014  0.01335  1.0000
  C   C74       1.0  0.26675  0.42170  0.22704  1.0000
  C   C75       1.0  0.04549  0.48800  0.07863  1.0000
  C   C76       1.0  0.24832  0.49311  0.15447  1.0000
  H   H125      1.0  0.28652  0.17801  0.18702  1.0000
  C   C77       1.0  0.35028  0.04954  0.12527  1.0000
  H   H126      1.0  0.27888  0.45468  0.18138  1.0000
  H   H127      1.0  0.35908  0.20615  0.20372  1.0000
  H   H128      1.0  0.29413  0.20261  0.23721  1.0000
  H   H129      1.0  0.26952  0.22960  0.19385  1.0000
  C   C78       1.0  0.28774  0.23937  0.19343  1.0000
  H   H130      1.0  0.28165  0.19501  0.20926  1.0000
  H   H131      1.0  0.21343  0.29528  0.22848  1.0000
  H   H132      1.0  0.11858  0.40754  0.19080  1.0000
  H   H133      1.0  0.35248  0.06835  0.12964  1.0000
  C   C79       1.0  0.29869  0.20471  0.21242  1.0000
  H   H134      1.0  0.32407  0.14033  0.22989  1.0000
  S   S25       1.0  0.38912  0.00485  0.06604  1.0000
  N   N5        1.0  0.30823  0.22194  0.19927  1.0000
  H   H135      1.0  0.30449  0.18125  0.16956  1.0000
  H   H136      1.0  0.07273  0.30926  0.05907  1.0000
  H   H137      1.0  0.24938  0.41385  0.23257  1.0000
  H   H138      1.0  0.33416  0.01431  0.10652  1.0000
  H   H139      1.0  0.38904  0.01834  0.10386  1.0000
  H   H140      1.0  0.00184  0.39254  0.00609  1.0000
  H   H141      1.0  0.38247  0.11468  0.23925  1.0000
  C   C80       1.0  0.49422  0.05425  0.07201  1.0000
  Fe  Fe13      1.0  0.00120  0.36387  0.07716  1.0000
  C   C81       1.0  0.42113  0.00471  0.12808  1.0000
  N   N6        1.0  0.37288  0.00620  0.12606  1.0000
  H   H142      1.0  0.47305  0.32830  0.16017  1.0000
  C   C82       1.0  0.37511  0.00467  0.10894  1.0000
  C   C83       1.0  0.38753  0.09468  0.23824  1.0000
  H   H143      1.0  0.44616  0.31882  0.15036  1.0000
  H   H144      1.0  0.19377  0.38336  0.24380  1.0000
  C   C84       1.0  0.35099  0.00888  0.09987  1.0000
  H   H145      1.0  0.33257  0.00218  0.12996  1.0000
  H   H146      1.0  0.00687  0.39624  0.12794  1.0000
  H   H147      1.0  0.01551  0.49152  0.00656  1.0000
  H   H148      1.0  0.99677  0.43259  0.11203  1.0000
  H   H149      1.0  0.14721  0.49628  0.15765  1.0000
  C   C85       1.0  0.19843  0.24492  0.27231  1.0000
  H   H150      1.0  0.19398  0.42352  0.44411  1.0000
  S   S26       1.0  0.47050  0.14686  0.37607  1.0000
  Fe  Fe14      1.0  0.34506  0.13086  0.32813  1.0000
  S   S27       1.0  0.30846  0.11077  0.32653  1.0000
  S   S28       1.0  0.36080  0.12955  0.35223  1.0000
  Fe  Fe15      1.0  0.34708  0.14469  0.29348  1.0000
  S   S29       1.0  0.31126  0.12544  0.28987  1.0000
  S   S30       1.0  0.37143  0.16281  0.27403  1.0000
  Fe  Fe16      1.0  0.29675  0.14411  0.31094  1.0000
  S   S31       1.0  0.25667  0.16100  0.31156  1.0000
  Fe  Fe17      1.0  0.32599  0.09408  0.30573  1.0000
  S   S32       1.0  0.33102  0.05422  0.29783  1.0000
  S   S33       1.0  0.33221  0.16502  0.31382  1.0000
  S   S34       1.0  0.36288  0.11261  0.30813  1.0000
  Fe  Fe18      1.0  0.13620  0.47059  0.39691  1.0000
  H   H151      1.0  0.09413  0.44396  0.45942  1.0000
  S   S35       1.0  0.13760  0.42990  0.39002  1.0000
  C   C86       1.0  0.00967  0.26574  0.30550  1.0000
  H   H152      1.0  0.36431  0.10811  0.26459  1.0000
  H   H153      1.0  0.06211  0.46310  0.49399  1.0000
  N   N7        1.0  0.15640  0.42350  0.45454  1.0000
  H   H154      1.0  0.16091  0.23194  0.27862  1.0000
  S   S36       1.0  0.11426  0.47801  0.41881  1.0000
  H   H155      1.0  0.46445  0.09511  0.35246  1.0000
  Fe  Fe19      1.0  0.16182  0.28844  0.31533  1.0000
  S   S37       1.0  0.17185  0.32396  0.30128  1.0000
  S   S38       1.0  0.19787  0.26525  0.32055  1.0000
  Fe  Fe20      1.0  0.10498  0.30397  0.31578  1.0000
  S   S39       1.0  0.11289  0.33916  0.30116  1.0000
  S   S40       1.0  0.06441  0.30285  0.32566  1.0000
  Fe  Fe21      1.0  0.13919  0.31569  0.28734  1.0000
  S   S41       1.0  0.14080  0.31208  0.26152  1.0000
  Fe  Fe22      1.0  0.14475  0.34413  0.31670  1.0000
  S   S42       1.0  0.15096  0.38367  0.32443  1.0000
  S   S43       1.0  0.12938  0.27972  0.30094  1.0000
  S   S44       1.0  0.13660  0.30952  0.33175  1.0000
  C   C87       1.0  0.03346  0.27333  0.30968  1.0000
  C   C88       1.0  0.03611  0.29566  0.31682  1.0000
  C   C89       1.0  0.01466  0.31064  0.31923  1.0000
  H   H156      1.0  0.04957  0.26129  0.30800  1.0000
  H   H157      1.0  0.01630  0.32780  0.32488  1.0000
  H   H158      1.0  0.15256  0.43576  0.42143  1.0000
  H   H159      1.0  0.16911  0.35782  0.26354  1.0000
  C   C90       1.0  0.14162  0.41754  0.37164  1.0000
  C   C91       1.0  0.14489  0.43283  0.35816  1.0000
  C   C92       1.0  0.14796  0.42212  0.34389  1.0000
  C   C93       1.0  0.14761  0.39602  0.34284  1.0000
  C   C94       1.0  0.14425  0.38074  0.35632  1.0000
  C   C95       1.0  0.14128  0.39144  0.37059  1.0000
  H   H160      1.0  0.14521  0.45291  0.35872  1.0000
  H   H161      1.0  0.15060  0.43417  0.33358  1.0000
  H   H162      1.0  0.14415  0.36065  0.35576  1.0000
  H   H163      1.0  0.13883  0.37937  0.38090  1.0000
  H   H164      1.0  0.11533  0.43845  0.47445  1.0000
  C   C96       1.0  0.48990  0.12427  0.48722  1.0000
  H   H165      1.0  0.38201  0.01492  0.26090  1.0000
  H   H166      1.0  0.47746  0.06726  0.36142  1.0000
  C   C97       1.0  0.19243  0.43458  0.47220  1.0000
  H   H167      1.0  0.37341  0.03845  0.27355  1.0000
  H   H168      1.0  0.42608  0.06309  0.41604  1.0000
  C   C98       1.0  0.37168  0.03294  0.26168  1.0000
  C   C99       1.0  0.38247  0.05956  0.37337  1.0000
  H   H169      1.0  0.21681  0.32828  0.27535  1.0000
  C   C100      1.0  0.24053  0.25929  0.26593  1.0000
  C   C101      1.0  0.24104  0.19063  0.31327  1.0000
  C   C102      1.0  0.21504  0.19233  0.31140  1.0000
  C   C103      1.0  0.20157  0.21491  0.31333  1.0000
  C   C104      1.0  0.21381  0.23619  0.31749  1.0000
  C   C105      1.0  0.23980  0.23445  0.31944  1.0000
  C   C106      1.0  0.25338  0.21209  0.31705  1.0000
  H   H170      1.0  0.20515  0.17594  0.30854  1.0000
  H   H171      1.0  0.18162  0.21570  0.31189  1.0000
  H   H172      1.0  0.24958  0.25070  0.32262  1.0000
  H   H173      1.0  0.27336  0.21146  0.31829  1.0000
  C   C107      1.0  0.32301  0.02348  0.30528  1.0000
  C   C108      1.0  0.39958  0.09205  0.27107  1.0000
  H   H174      1.0  0.30054  0.03445  0.32461  1.0000
  H   H175      1.0  0.09869  0.33071  0.35410  1.0000
  C   C109      1.0  0.36597  0.16094  0.25432  1.0000
  H   H176      1.0  0.32934  0.14514  0.25755  1.0000
  C   C110      1.0  0.43998  0.14160  0.36958  1.0000
  C   C111      1.0  0.42015  0.13451  0.37968  1.0000
  C   C112      1.0  0.39614  0.13097  0.37416  1.0000
  C   C113      1.0  0.39157  0.13436  0.35844  1.0000
  C   C114      1.0  0.41141  0.14142  0.34830  1.0000
  C   C115      1.0  0.43536  0.14525  0.35387  1.0000
  H   H177      1.0  0.42323  0.13219  0.39182  1.0000
  H   H178      1.0  0.38095  0.12575  0.38215  1.0000
  H   H179      1.0  0.40821  0.14432  0.33621  1.0000
  H   H180      1.0  0.45031  0.15120  0.34592  1.0000
  C   C116      1.0  0.22693  0.31003  0.27529  1.0000
  H   H181      1.0  0.44459  0.02107  0.39016  1.0000
  H   H182      1.0  0.12442  0.42981  0.44016  1.0000
  H   H183      1.0  0.38430  0.07227  0.36287  1.0000
  H   H184      1.0  0.00786  0.24805  0.30041  1.0000
  N   N8        1.0  0.27801  0.16489  0.36057  1.0000
  C   C117      1.0  0.28556  0.18472  0.34826  1.0000
  C   C118      1.0  0.25530  0.15222  0.35519  1.0000
  C   C119      1.0  0.29953  0.14650  0.36226  1.0000
  C   C120      1.0  0.27274  0.17760  0.37518  1.0000
  C   C121      1.0  0.31072  0.19765  0.35018  1.0000
  C   C122      1.0  0.23152  0.16866  0.35375  1.0000
  C   C123      1.0  0.29363  0.11979  0.36892  1.0000
  C   C124      1.0  0.26227  0.16128  0.38903  1.0000
  H   H185      1.0  0.28679  0.17666  0.33686  1.0000
  H   H186      1.0  0.27133  0.20000  0.34736  1.0000
  H   H187      1.0  0.24981  0.13574  0.36278  1.0000
  H   H188      1.0  0.25954  0.14447  0.34388  1.0000
  H   H189      1.0  0.30889  0.14395  0.35092  1.0000
  H   H190      1.0  0.31421  0.15386  0.36935  1.0000
  H   H191      1.0  0.29011  0.18580  0.37912  1.0000
  H   H192      1.0  0.26014  0.19417  0.37335  1.0000
  H   H193      1.0  0.31394  0.21156  0.34035  1.0000
  H   H194      1.0  0.31072  0.20805  0.36067  1.0000
  H   H195      1.0  0.32680  0.18438  0.34998  1.0000
  H   H196      1.0  0.23401  0.18496  0.34545  1.0000
  H   H197      1.0  0.21644  0.15739  0.34939  1.0000
  H   H198      1.0  0.22475  0.17503  0.36497  1.0000
  H   H199      1.0  0.28343  0.10928  0.36068  1.0000
  H   H200      1.0  0.28317  0.11934  0.38002  1.0000
  H   H201      1.0  0.31153  0.10951  0.37080  1.0000
  H   H202      1.0  0.27765  0.15244  0.39570  1.0000
  H   H203      1.0  0.24932  0.14675  0.38598  1.0000
  H   H204      1.0  0.25093  0.17322  0.39660  1.0000
  N   N9        1.0  0.06520  0.38565  0.34349  1.0000
  C   C125      1.0  0.06287  0.39774  0.32753  1.0000
  C   C126      1.0  0.03962  0.37654  0.34880  1.0000
  C   C127      1.0  0.08277  0.36356  0.34233  1.0000
  C   C128      1.0  0.07540  0.40463  0.35355  1.0000
  C   C129      1.0  0.08750  0.40590  0.31907  1.0000
  C   C130      1.0  0.01886  0.39678  0.34906  1.0000
  S   S45       1.0  0.47739  0.03943  0.41536  1.0000
  C   C131      1.0  0.07003  0.40051  0.37101  1.0000
  H   H205      1.0  0.05350  0.38493  0.32008  1.0000
  H   H206      1.0  0.05094  0.41489  0.32766  1.0000
  H   H207      1.0  0.03956  0.36713  0.36041  1.0000
  H   H208      1.0  0.03347  0.36185  0.34138  1.0000
  H   H209      1.0  0.07669  0.35144  0.33338  1.0000
  H   H210      1.0  0.10183  0.36971  0.33855  1.0000
  H   H211      1.0  0.09596  0.40618  0.35166  1.0000
  H   H212      1.0  0.06774  0.42358  0.35026  1.0000
  H   H213      1.0  0.09839  0.38955  0.31524  1.0000
  H   H214      1.0  0.08319  0.41762  0.30856  1.0000
  H   H215      1.0  0.09926  0.41716  0.32606  1.0000
  H   H216      1.0  0.18580  0.27896  0.24940  1.0000
  H   H217      1.0  0.01269  0.27825  0.34640  1.0000
  H   H218      1.0  0.01287  0.40243  0.33734  1.0000
  H   H219      1.0  0.16669  0.40500  0.42464  1.0000
  H   H220      1.0  0.39673  0.06173  0.40772  1.0000
  H   H221      1.0  0.36542  0.04843  0.37225  1.0000
  H   H222      1.0  0.08654  0.40649  0.37706  1.0000
  H   H223      1.0  0.06632  0.38108  0.37532  1.0000
  H   H224      1.0  0.05449  0.41290  0.37476  1.0000
  C   C132      1.0  0.13183  0.43625  0.45088  1.0000
  H   H225      1.0  0.02135  0.30549  0.35509  1.0000
  C   C133      1.0  0.00100  0.47682  0.39844  1.0000
  H   H226      1.0  0.10417  0.41271  0.46426  1.0000
  H   H227      1.0  0.01376  0.27823  0.36702  1.0000
  H   H228      1.0  0.32248  0.09252  0.26352  1.0000
  C   C134      1.0  0.42822  0.06917  0.39124  1.0000
  H   H229      1.0  0.19522  0.43828  0.48433  1.0000
  H   H230      1.0  0.16272  0.26514  0.27601  1.0000
  C   C135      1.0  0.17133  0.35184  0.25202  1.0000
  H   H231      1.0  0.20510  0.28203  0.28789  1.0000
  H   H232      1.0  0.17051  0.35924  0.45767  1.0000
  C   C136      1.0  0.00859  0.28928  0.35646  1.0000
  H   H233      1.0  0.13941  0.38986  0.46503  1.0000
  H   H234      1.0  0.17766  0.45225  0.44165  1.0000
  C   C137      1.0  0.16424  0.43171  0.46986  1.0000
  H   H235      1.0  0.23760  0.30862  0.28594  1.0000
  H   H236      1.0  0.42317  0.08699  0.36262  1.0000
  C   C138      1.0  0.15245  0.39568  0.45532  1.0000
  H   H237      1.0  0.24341  0.23141  0.28538  1.0000
  C   C139      1.0  0.02471  0.47415  0.39139  1.0000
  H   H238      1.0  0.34374  0.00610  0.28720  1.0000
  N   N10       1.0  0.42975  0.05376  0.37745  1.0000
  H   H239      1.0  0.46751  0.04220  0.38281  1.0000
  C   C140      1.0  0.40515  0.04159  0.37513  1.0000
  C   C141      1.0  0.44953  0.03379  0.38002  1.0000
  H   H240      1.0  0.41866  0.03561  0.40703  1.0000
  C   C142      1.0  0.25037  0.25033  0.28168  1.0000
  H   H241      1.0  0.41010  0.07412  0.27186  1.0000
  H   H242      1.0  0.20409  0.22775  0.26649  1.0000
  H   H243      1.0  0.43894  0.00462  0.36497  1.0000
  H   H244      1.0  0.18971  0.38216  0.44764  1.0000
  H   H245      1.0  0.09978  0.49262  0.49053  1.0000
  H   H246      1.0  0.30622  0.07376  0.25125  1.0000
  H   H247      1.0  0.40617  0.03116  0.36458  1.0000
  H   H248      1.0  0.02788  0.46027  0.38311  1.0000
  H   H249      1.0  0.18476  0.38193  0.46830  1.0000
  H   H250      1.0  0.15662  0.41906  0.47946  1.0000
  H   H251      1.0  0.19989  0.45101  0.46517  1.0000
  C   C143      1.0  0.11045  0.43236  0.46311  1.0000
  C   C144      1.0  0.16981  0.24752  0.27149  1.0000
  H   H252      1.0  0.27106  0.24881  0.28090  1.0000
  H   H253      1.0  0.46038  0.02750  0.35590  1.0000
  H   H254      1.0  0.24400  0.24382  0.25820  1.0000
  C   C145      1.0  0.32429  0.07572  0.25680  1.0000
  H   H255      1.0  0.09587  0.35647  0.36572  1.0000
  C   C146      1.0  0.43623  0.07068  0.36346  1.0000
  H   H256      1.0  0.41041  0.10660  0.26421  1.0000
  C   C147      1.0  0.17519  0.43166  0.44198  1.0000
  N   N11       1.0  0.21340  0.26718  0.26591  1.0000
  H   H257      1.0  0.43382  0.06101  0.35278  1.0000
  H   H258      1.0  0.39772  0.09855  0.28282  1.0000
  H   H259      1.0  0.24002  0.31137  0.26527  1.0000
  H   H260      1.0  0.14327  0.39016  0.44490  1.0000
  C   C148      1.0  0.15970  0.33012  0.24816  1.0000
  H   H261      1.0  0.37909  0.07080  0.38340  1.0000
  H   H262      1.0  0.02455  0.41352  0.35475  1.0000
  C   C149      1.0  0.20755  0.28886  0.27565  1.0000
  C   C150      1.0  0.08626  0.34661  0.35697  1.0000
  H   H263      1.0  0.20207  0.24070  0.28461  1.0000
  C   C151      1.0  0.16913  0.42528  0.42565  1.0000
  H   H264      1.0  0.18933  0.29765  0.27261  1.0000
  H   H265      1.0  0.32666  0.05911  0.26476  1.0000
  H   H266      1.0  0.13443  0.45679  0.44884  1.0000
  H   H267      1.0  0.18492  0.43114  0.41769  1.0000
  C   C152      1.0  0.33216  0.00293  0.29747  1.0000
  H   H268      1.0  0.20359  0.41775  0.46967  1.0000
  H   H269      1.0  0.16353  0.24622  0.25966  1.0000
  C   C153      1.0  0.41664  0.05620  0.40610  1.0000
  C   C154      1.0  0.30788  0.01890  0.31851  1.0000
  H   H270      1.0  0.15623  0.45039  0.47209  1.0000
  C   C155      1.0  0.37326  0.08923  0.26495  1.0000
  H   H271      1.0  0.24532  0.26346  0.29057  1.0000
  S   S46       1.0  0.47214  0.11002  0.41870  1.0000
  C   C156      1.0  0.46266  0.08173  0.36265  1.0000
  H   H272      1.0  0.25306  0.27436  0.26129  1.0000
  C   C157      1.0  0.17597  0.37918  0.45734  1.0000
  H   H273      1.0  0.41686  0.08628  0.38874  1.0000
  C   C158      1.0  0.45495  0.01682  0.36673  1.0000
  H   H274      1.0  0.40059  0.02734  0.38459  1.0000
  H   H275      1.0  0.47096  0.00423  0.36973  1.0000
  S   S47       1.0  0.16963  0.49120  0.40432  1.0000
  H   H276      1.0  0.36241  0.07809  0.27393  1.0000
  H   H277      1.0  0.40165  0.17664  0.24715  1.0000
  H   H278      1.0  0.44705  0.07573  0.39397  1.0000
  H   H279      1.0  0.06863  0.33819  0.36166  1.0000
  H   H280      1.0  0.00216  0.38904  0.35552  1.0000
  H   H281      1.0  0.47016  0.12361  0.48520  1.0000
  Fe  Fe23      1.0  0.48937  0.12819  0.39711  1.0000
  H   H282      1.0  0.46603  0.09237  0.37273  1.0000
  C   C159      1.0  0.20579  0.27311  0.24967  1.0000
  H   H283      1.0  0.40339  0.05252  0.25148  1.0000
  H   H284      1.0  0.35198  0.02909  0.25947  1.0000
  S   S48       1.0  0.49530  0.13337  0.45568  1.0000
  C   C160      1.0  0.34394  0.15108  0.24931  1.0000
  C   C161      1.0  0.38296  0.05225  0.24972  1.0000
  H   H285      1.0  0.06247  0.48781  0.38935  1.0000
  H   H286      1.0  0.33762  0.00544  0.35425  1.0000
  H   H287      1.0  0.35222  0.00216  0.33600  1.0000
  H   H288      1.0  0.37091  0.00244  0.35285  1.0000
  N   N12       1.0  0.37205  0.07836  0.24956  1.0000
  C   C162      1.0  0.04423  0.48970  0.39489  1.0000
  H   H289      1.0  0.48555  0.12414  0.32479  1.0000
  C   C163      1.0  0.99706  0.49459  0.40923  1.0000
  C   C164      1.0  0.11940  0.49500  0.48773  1.0000
  H   H290      1.0  0.49487  0.15162  0.34264  1.0000
  Fe  Fe24      1.0  0.49571  0.07682  0.41340  1.0000
  C   C165      1.0  0.49538  0.01697  0.40629  1.0000
  Fe  Fe25      1.0  0.31351  0.09214  0.67282  1.0000
  S   S49       1.0  0.34814  0.10990  0.68031  1.0000
  S   S50       1.0  0.31095  0.05107  0.68215  1.0000
  Fe  Fe26      1.0  0.29396  0.14384  0.65949  1.0000
  S   S51       1.0  0.32848  0.16395  0.66563  1.0000
  S   S52       1.0  0.26084  0.16469  0.64819  1.0000
  Fe  Fe27      1.0  0.34980  0.13050  0.65703  1.0000
  S   S53       1.0  0.38939  0.12557  0.64679  1.0000
  Fe  Fe28      1.0  0.32412  0.14140  0.68814  1.0000
  S   S54       1.0  0.32011  0.15670  0.71176  1.0000
  S   S55       1.0  0.31568  0.11160  0.64922  1.0000
  S   S56       1.0  0.28897  0.12247  0.68227  1.0000
  H   H291      1.0  0.45167  0.14173  0.52323  1.0000
  S   S57       1.0  0.45054  0.15215  0.58382  1.0000
  Fe  Fe29      1.0  0.15977  0.28017  0.66949  1.0000
  S   S58       1.0  0.17366  0.31914  0.66323  1.0000
  S   S59       1.0  0.19129  0.25157  0.67504  1.0000
  Fe  Fe30      1.0  0.10485  0.30009  0.67405  1.0000
  S   S60       1.0  0.11649  0.33978  0.66855  1.0000
  S   S61       1.0  0.06432  0.29694  0.68324  1.0000
  Fe  Fe31      1.0  0.13947  0.32468  0.64927  1.0000
  S   S62       1.0  0.13488  0.34079  0.62477  1.0000
  Fe  Fe32      1.0  0.14931  0.33047  0.68311  1.0000
  S   S63       1.0  0.16316  0.35720  0.69983  1.0000
  S   S64       1.0  0.12661  0.28481  0.65412  1.0000
  S   S65       1.0  0.13655  0.29176  0.68998  1.0000
  Fe  Fe33      1.0  0.15165  0.46991  0.57607  1.0000
  S   S66       1.0  0.17506  0.44165  0.59019  1.0000
  H   H292      1.0  0.03486  0.49546  0.49854  1.0000
  S   S67       1.0  0.12103  0.46010  0.56084  1.0000
  H   H293      1.0  0.38368  0.07402  0.66432  1.0000
  C   C166      1.0  0.03597  0.49495  0.57723  1.0000
  C   C167      1.0  0.25027  0.23866  0.71862  1.0000
  S   S68       1.0  0.06063  0.47641  0.58421  1.0000
  H   H294      1.0  0.48648  0.16281  0.52117  1.0000
  C   C168      1.0  0.01120  0.28242  0.65262  1.0000
  C   C169      1.0  0.03454  0.28542  0.65922  1.0000
  C   C170      1.0  0.03565  0.29434  0.67381  1.0000
  C   C171      1.0  0.01316  0.30055  0.68156  1.0000
  C   C172      1.0  0.07681  0.36862  0.63778  1.0000
  H   H295      1.0  0.01055  0.27503  0.64148  1.0000
  H   H296      1.0  0.05160  0.28010  0.65322  1.0000
  H   H297      1.0  0.01368  0.30727  0.69288  1.0000
  H   H298      1.0  0.08202  0.36694  0.73052  1.0000
  C   C173      1.0  0.14469  0.37030  0.61639  1.0000
  C   C174      1.0  0.13363  0.37990  0.60291  1.0000
  C   C175      1.0  0.14181  0.40246  0.59528  1.0000
  C   C176      1.0  0.16184  0.41524  0.60073  1.0000
  C   C177      1.0  0.17287  0.40567  0.61426  1.0000
  C   C178      1.0  0.16403  0.38359  0.62222  1.0000
  H   H299      1.0  0.11896  0.36963  0.59813  1.0000
  H   H300      1.0  0.13338  0.40939  0.58479  1.0000
  H   H301      1.0  0.18844  0.41536  0.61853  1.0000
  H   H302      1.0  0.17279  0.37644  0.63255  1.0000
  C   C179      1.0  0.16420  0.34862  0.71963  1.0000
  C   C180      1.0  0.15529  0.32558  0.72573  1.0000
  N   N13       1.0  0.46707  0.18581  0.53761  1.0000
  C   C181      1.0  0.17405  0.36525  0.72947  1.0000
  H   H303      1.0  0.14792  0.31259  0.71825  1.0000
  C   C182      1.0  0.47414  0.19746  0.55205  1.0000
  H   H304      1.0  0.18106  0.38312  0.72485  1.0000
  C   C183      1.0  0.09031  0.34998  0.72551  1.0000
  C   C184      1.0  0.20977  0.22684  0.66743  1.0000
  C   C185      1.0  0.23061  0.21766  0.67547  1.0000
  C   C186      1.0  0.24626  0.19863  0.66984  1.0000
  C   C187      1.0  0.24134  0.18840  0.65602  1.0000
  C   C188      1.0  0.22038  0.19744  0.64801  1.0000
  C   C189      1.0  0.20458  0.21633  0.65373  1.0000
  H   H305      1.0  0.23478  0.22524  0.68615  1.0000
  H   H306      1.0  0.26220  0.19188  0.67619  1.0000
  H   H307      1.0  0.21619  0.18951  0.63740  1.0000
  H   H308      1.0  0.18830  0.22249  0.64759  1.0000
  C   C190      1.0  0.34415  0.16161  0.72444  1.0000
  C   C191      1.0  0.36928  0.16245  0.71958  1.0000
  H   H309      1.0  0.06416  0.27758  0.73799  1.0000
  H   H310      1.0  0.42354  0.13820  0.53443  1.0000
  H   H311      1.0  0.37448  0.16015  0.70771  1.0000
  H   H312      1.0  0.31174  0.11115  0.72968  1.0000
  H   H313      1.0  0.26086  0.24040  0.72910  1.0000
  C   C192      1.0  0.40516  0.13273  0.62885  1.0000
  C   C193      1.0  0.39452  0.14744  0.61694  1.0000
  C   C194      1.0  0.40849  0.15311  0.60316  1.0000
  C   C195      1.0  0.43299  0.14376  0.60103  1.0000
  C   C196      1.0  0.44332  0.12865  0.61285  1.0000
  C   C197      1.0  0.42958  0.12337  0.62667  1.0000
  H   H314      1.0  0.37578  0.15484  0.61846  1.0000
  H   H315      1.0  0.40030  0.16490  0.59414  1.0000
  H   H316      1.0  0.46220  0.12162  0.61156  1.0000
  H   H317      1.0  0.43809  0.11216  0.63583  1.0000
  C   C198      1.0  0.31288  0.01933  0.65806  1.0000
  C   C199      1.0  0.31383  0.02163  0.67382  1.0000
  C   C200      1.0  0.31369  0.09485  0.72249  1.0000
  H   H318      1.0  0.31031  0.03586  0.65050  1.0000
  C   C201      1.0  0.37757  0.05817  0.65790  1.0000
  H   H319      1.0  0.46140  0.22128  0.56995  1.0000
  N   N14       1.0  0.21893  0.27602  0.72134  1.0000
  C   C202      1.0  0.22011  0.30408  0.71838  1.0000
  H   H320      1.0  0.08856  0.26455  0.72707  1.0000
  C   C203      1.0  0.19387  0.26785  0.71634  1.0000
  C   C204      1.0  0.24000  0.26421  0.71225  1.0000
  C   C205      1.0  0.21631  0.31429  0.70173  1.0000
  H   H321      1.0  0.47133  0.00039  0.52555  1.0000
  C   C206      1.0  0.44694  0.16707  0.54208  1.0000
  H   H322      1.0  0.26049  0.27945  0.73906  1.0000
  H   H323      1.0  0.20615  0.31354  0.72584  1.0000
  H   H324      1.0  0.23857  0.31116  0.72139  1.0000
  H   H325      1.0  0.43892  0.19897  0.56605  1.0000
  H   H326      1.0  0.02819  0.36641  0.64771  1.0000
  H   H327      1.0  0.42626  0.16456  0.52107  1.0000
  H   H328      1.0  0.19137  0.27313  0.70405  1.0000
  H   H329      1.0  0.23433  0.26190  0.70034  1.0000
  H   H330      1.0  0.25649  0.27667  0.71093  1.0000
  H   H331      1.0  0.22844  0.30468  0.69338  1.0000
  H   H332      1.0  0.19654  0.31314  0.69860  1.0000
  H   H333      1.0  0.22094  0.33447  0.70061  1.0000
  H   H334      1.0  0.43023  0.17621  0.54725  1.0000
  H   H335      1.0  0.10865  0.34692  0.73085  1.0000
  H   H336      1.0  0.43574  0.05191  0.60491  1.0000
  C   C207      1.0  0.41877  0.05788  0.61148  1.0000
  H   H337      1.0  0.40130  0.02271  0.61146  1.0000
  Fe  Fe34      1.0  0.48491  0.12944  0.57668  1.0000
  H   H338      1.0  0.40588  0.06603  0.60284  1.0000
  H   H339      1.0  0.05221  0.30788  0.62882  1.0000
  N   N15       1.0  0.21760  0.29549  0.62546  1.0000
  C   C208      1.0  0.22286  0.32258  0.62768  1.0000
  C   C209      1.0  0.22408  0.28045  0.63997  1.0000
  C   C210      1.0  0.19003  0.29340  0.62260  1.0000
  C   C211      1.0  0.23336  0.28785  0.61189  1.0000
  C   C212      1.0  0.21510  0.34159  0.61461  1.0000
  C   C213      1.0  0.25137  0.28153  0.64479  1.0000
  C   C214      1.0  0.17716  0.26857  0.62787  1.0000
  C   C215      1.0  0.23323  0.25997  0.60870  1.0000
  H   H340      1.0  0.21331  0.32845  0.63840  1.0000
  H   H341      1.0  0.24312  0.32554  0.62904  1.0000
  H   H342      1.0  0.22014  0.26037  0.63923  1.0000
  H   H343      1.0  0.21207  0.28640  0.64974  1.0000
  H   H344      1.0  0.17898  0.30778  0.62864  1.0000
  H   H345      1.0  0.18631  0.29738  0.61026  1.0000
  H   H346      1.0  0.22738  0.29817  0.60119  1.0000
  H   H347      1.0  0.25318  0.29303  0.61308  1.0000
  H   H348      1.0  0.19499  0.34070  0.61220  1.0000
  H   H349      1.0  0.21839  0.36081  0.61804  1.0000
  H   H350      1.0  0.22646  0.33938  0.60394  1.0000
  H   H351      1.0  0.25372  0.26831  0.65498  1.0000
  H   H352      1.0  0.26480  0.27547  0.63581  1.0000
  H   H353      1.0  0.25622  0.30027  0.64830  1.0000
  H   H354      1.0  0.18678  0.25190  0.62365  1.0000
  H   H355      1.0  0.15790  0.26893  0.62361  1.0000
  H   H356      1.0  0.17539  0.26634  0.64054  1.0000
  H   H357      1.0  0.23969  0.24765  0.61846  1.0000
  H   H358      1.0  0.24641  0.25685  0.59890  1.0000
  H   H359      1.0  0.21466  0.25415  0.60528  1.0000
  N   N16       1.0  0.07353  0.32776  0.72896  1.0000
  C   C216      1.0  0.43689  0.15230  0.52925  1.0000
  C   C217      1.0  0.04965  0.33290  0.72057  1.0000
  C   C218      1.0  0.07228  0.38766  0.65008  1.0000
  H   H360      1.0  0.06350  0.47582  0.54973  1.0000
  C   C219      1.0  0.33653  0.05614  0.71786  1.0000
  H   H361      1.0  0.08379  0.35139  0.64399  1.0000
  C   C220      1.0  0.40739  0.03480  0.62040  1.0000
  H   H362      1.0  0.41352  0.04773  0.64834  1.0000
  H   H363      1.0  0.04458  0.35317  0.72033  1.0000
  H   H364      1.0  0.42486  0.07229  0.61893  1.0000
  C   C221      1.0  0.37932  0.01435  0.63965  1.0000
  H   H365      1.0  0.07621  0.30636  0.61430  1.0000
  H   H366      1.0  0.04155  0.33630  0.64689  1.0000
  C   C222      1.0  0.33766  0.16500  0.73985  1.0000
  H   H367      1.0  0.34215  0.06508  0.70645  1.0000
  H   H368      1.0  0.04480  0.44890  0.55327  1.0000
  H   H369      1.0  0.37834  0.08448  0.71141  1.0000
  H   H370      1.0  0.35875  0.08814  0.63269  1.0000
  C   C223      1.0  0.37118  0.09914  0.71880  1.0000
  H   H371      1.0  0.05826  0.40225  0.64696  1.0000
  H   H372      1.0  0.06304  0.45244  0.53586  1.0000
  C   C224      1.0  0.03440  0.35236  0.63953  1.0000
  H   H373      1.0  0.26364  0.23118  0.70999  1.0000
  H   H374      1.0  0.48931  0.21124  0.54961  1.0000
  N   N17       1.0  0.38630  0.03940  0.63183  1.0000
  H   H375      1.0  0.03395  0.39816  0.62773  1.0000
  H   H376      1.0  0.06633  0.37799  0.66121  1.0000
  H   H377      1.0  0.04851  0.34258  0.60849  1.0000
  C   C225      1.0  0.36227  0.07946  0.62170  1.0000
  H   H378      1.0  0.10789  0.34241  0.70309  1.0000
  H   H379      1.0  0.34623  0.08489  0.61450  1.0000
  H   H380      1.0  0.36071  0.11343  0.71188  1.0000
  S   S69       1.0  0.48127  0.10541  0.55679  1.0000
  H   H381      1.0  0.37801  0.04125  0.66591  1.0000
  H   H382      1.0  0.27575  0.10183  0.71544  1.0000
  H   H383      1.0  0.07496  0.46961  0.51137  1.0000
  C   C226      1.0  0.15575  0.31941  0.74156  1.0000
  H   H384      1.0  0.07709  0.41144  0.61889  1.0000
  H   H385      1.0  0.34615  0.04505  0.63043  1.0000
  H   H386      1.0  0.08980  0.30688  0.71074  1.0000
  N   N18       1.0  0.33163  0.07564  0.72925  1.0000
  H   H387      1.0  0.43796  0.21101  0.52926  1.0000
  H   H388      1.0  0.37908  0.08798  0.61600  1.0000
  H   H389      1.0  0.45902  0.18085  0.50671  1.0000
  C   C227      1.0  0.38773  0.16671  0.73008  1.0000
  H   H390      1.0  0.38769  0.10862  0.72291  1.0000
  C   C228      1.0  0.36374  0.05065  0.62399  1.0000
  C   C229      1.0  0.05752  0.46375  0.50643  1.0000
  H   H391      1.0  0.37506  0.04412  0.72329  1.0000
  C   C230      1.0  0.35639  0.03604  0.72216  1.0000
  H   H392      1.0  0.31717  0.00125  0.69570  1.0000
  C   C231      1.0  0.01060  0.34406  0.63203  1.0000
  C   C232      1.0  0.45777  0.20609  0.52637  1.0000
  C   C233      1.0  0.08690  0.30499  0.72337  1.0000
  H   H393      1.0  0.40005  0.07450  0.63913  1.0000
  H   H394      1.0  0.35660  0.00107  0.62131  1.0000
  H   H395      1.0  0.01557  0.46179  0.53402  1.0000
  H   H396      1.0  0.02833  0.29872  0.72805  1.0000
  C   C234      1.0  0.02878  0.47640  0.53696  1.0000
  H   H397      1.0  0.01439  0.32925  0.62401  1.0000
  H   H398      1.0  0.48175  0.18298  0.56041  1.0000
  H   H399      1.0  0.35803  0.06201  0.65466  1.0000
  H   H400      1.0  0.07991  0.35092  0.61060  1.0000
  H   H401      1.0  0.00079  0.36004  0.62610  1.0000
  H   H402      1.0  0.05218  0.32854  0.70836  1.0000
  H   H403      1.0  0.35814  0.02296  0.71284  1.0000
  H   H404      1.0  0.01837  0.47057  0.50762  1.0000
  H   H405      1.0  0.16871  0.23683  0.71546  1.0000
  C   C235      1.0  0.09642  0.35705  0.70843  1.0000
  H   H406      1.0  0.07954  0.36117  0.70176  1.0000
  H   H407      1.0  0.10623  0.30330  0.72749  1.0000
  S   S70       1.0  0.48265  0.03814  0.57691  1.0000
  C   C236      1.0  0.45316  0.21173  0.56052  1.0000
  C   C237      1.0  0.06285  0.34430  0.61719  1.0000
  H   H408      1.0  0.35112  0.10483  0.73974  1.0000
  H   H409      1.0  0.46857  0.22348  0.52730  1.0000
  H   H410      1.0  0.44363  0.21009  0.50335  1.0000
  H   H411      1.0  0.08374  0.31705  0.63227  1.0000
  H   H412      1.0  0.08988  0.39777  0.65156  1.0000
  H   H413      1.0  0.36211  0.04321  0.61252  1.0000
  H   H414      1.0  0.31918  0.04583  0.71598  1.0000
  C   C238      1.0  0.35534  0.08859  0.73274  1.0000
  N   N19       1.0  0.05466  0.36284  0.62865  1.0000
  C   C239      1.0  0.02594  0.31924  0.72693  1.0000
  H   H415      1.0  0.07605  0.39177  0.60293  1.0000
  H   H416      1.0  0.10787  0.37423  0.70746  1.0000
  H   H417      1.0  0.32099  0.10267  0.71117  1.0000
  C   C240      1.0  0.18854  0.23969  0.71808  1.0000
  H   H418      1.0  0.40713  0.16759  0.72622  1.0000
  C   C241      1.0  0.04484  0.38603  0.62003  1.0000
  H   H419      1.0  0.49543  0.15682  0.54001  1.0000
  C   C242      1.0  0.28722  0.08561  0.71974  1.0000
  H   H420      1.0  0.09315  0.37470  0.63030  1.0000
  C   C243      1.0  0.03531  0.48189  0.50872  1.0000
  H   H421      1.0  0.27753  0.07767  0.73030  1.0000
  H   H422      1.0  0.03121  0.38102  0.61151  1.0000
  H   H423      1.0  0.44408  0.22630  0.55299  1.0000
  C   C244      1.0  0.06898  0.31755  0.62376  1.0000
  C   C245      1.0  0.39556  0.05537  0.64390  1.0000
  C   C246      1.0  0.48996  0.17231  0.53166  1.0000
  C   C247      1.0  0.05153  0.46275  0.54410  1.0000
  H   H424      1.0  0.01935  0.32618  0.73805  1.0000
  H   H425      1.0  0.22071  0.24983  0.74137  1.0000
  C   C248      1.0  0.07407  0.27960  0.72672  1.0000
  H   H426      1.0  0.17856  0.27755  0.72264  1.0000
  C   C249      1.0  0.06465  0.40244  0.61112  1.0000
  H   H427      1.0  0.19974  0.22951  0.70952  1.0000
  H   H428      1.0  0.00778  0.46903  0.58604  1.0000
  C   C250      1.0  0.45960  0.20075  0.50920  1.0000
  H   H429      1.0  0.45362  0.15314  0.55105  1.0000
  H   H430      1.0  0.47657  0.20936  0.50355  1.0000
  H   H431      1.0  0.06106  0.27601  0.71757  1.0000
  H   H432      1.0  0.28739  0.07193  0.71080  1.0000
  S   S71       1.0  0.12794  0.49517  0.59019  1.0000
  C   C251      1.0  0.01144  0.48666  0.57966  1.0000
  H   H433      1.0  0.01064  0.32331  0.71890  1.0000
  H   H434      1.0  0.36765  0.07598  0.73981  1.0000
  H   H435      1.0  0.05513  0.41782  0.60436  1.0000
  H   H436      1.0  0.42300  0.02447  0.62618  1.0000
  Fe  Fe35      1.0  0.09837  0.48739  0.57399  1.0000
  H   H437      1.0  0.36342  0.01638  0.64802  1.0000
  H   H438      1.0  0.39503  0.00633  0.64645  1.0000
  H   H439      1.0  0.31824  0.16458  0.74367  1.0000
  C   C252      1.0  0.22034  0.27025  0.73836  1.0000
  H   H440      1.0  0.05283  0.44459  0.51115  1.0000
  H   H441      1.0  0.19117  0.23132  0.72979  1.0000
  H   H442      1.0  0.01938  0.48589  0.54653  1.0000
  H   H443      1.0  0.23574  0.22441  0.72103  1.0000
  H   H444      1.0  0.48470  0.11925  0.51190  1.0000
  H   H445      1.0  0.35102  0.02479  0.73280  1.0000
  C   C253      1.0  0.31660  0.99978  0.68349  1.0000
  S   S72       1.0  0.12451  0.49235  0.51917  1.0000
  N   N20       1.0  0.03369  0.49491  0.52344  1.0000
  C   C254      1.0  0.32088  0.06313  0.74389  1.0000
  H   H446      1.0  0.30525  0.05063  0.74158  1.0000
  Fe  Fe36      1.0  0.13299  0.49335  0.54503  1.0000
  C   C255      1.0  0.13625  0.49590  0.49965  1.0000
  H   H447      1.0  0.99741  0.33611  0.64112  1.0000
  H   H448      1.0  0.20321  0.27728  0.74442  1.0000
  Fe  Fe37      1.0  0.38855  0.15182  0.81441  1.0000
  S   S73       1.0  0.39303  0.18590  0.82738  1.0000
  S   S74       1.0  0.38138  0.11192  0.82416  1.0000
  Fe  Fe38      1.0  0.39782  0.18130  0.78345  1.0000
  S   S75       1.0  0.40382  0.21759  0.79446  1.0000
  S   S76       1.0  0.40505  0.17604  0.75816  1.0000
  Fe  Fe39      1.0  0.42656  0.19384  0.81137  1.0000
  S   S77       1.0  0.46373  0.20090  0.82243  1.0000
  Fe  Fe40      1.0  0.36976  0.20659  0.80936  1.0000
  S   S78       1.0  0.33365  0.22767  0.81658  1.0000
  S   S79       1.0  0.42272  0.15880  0.79929  1.0000
  S   S80       1.0  0.36310  0.17132  0.79743  1.0000
  Fe  Fe41      1.0  0.40629  0.01972  0.89735  1.0000
  S   S81       1.0  0.39975  0.06128  0.89084  1.0000
  C   C256      1.0  0.46996  0.02183  0.95576  1.0000
  Fe  Fe42      1.0  0.23472  0.34762  0.80472  1.0000
  S   S82       1.0  0.19819  0.32792  0.80989  1.0000
  S   S83       1.0  0.27512  0.33217  0.80256  1.0000
  Fe  Fe43      1.0  0.20781  0.39870  0.79699  1.0000
  S   S84       1.0  0.16966  0.38193  0.80083  1.0000
  S   S85       1.0  0.21183  0.43964  0.78781  1.0000
  Fe  Fe44      1.0  0.18533  0.36222  0.82189  1.0000
  S   S86       1.0  0.16625  0.36804  0.84527  1.0000
  Fe  Fe45      1.0  0.18515  0.34926  0.78845  1.0000
  S   S87       1.0  0.16429  0.32798  0.77134  1.0000
  S   S88       1.0  0.22315  0.38054  0.81846  1.0000
  S   S89       1.0  0.22194  0.36743  0.78280  1.0000
  Fe  Fe46      1.0  0.03896  0.36024  0.89374  1.0000
  S   S90       1.0  0.01433  0.38511  0.87906  1.0000
  S   S91       1.0  0.06350  0.33443  0.87969  1.0000
  Fe  Fe47      1.0  0.01591  0.37864  0.92423  1.0000
  H   H449      1.0  0.01415  0.28746  0.87802  1.0000
  Fe  Fe48      1.0  0.02280  0.41388  0.89532  1.0000
  S   S92       1.0  0.03474  0.45173  0.88530  1.0000
  H   H450      1.0  0.08741  0.42782  0.83712  1.0000
  S   S93       1.0  0.04966  0.39010  0.90913  1.0000
  C   C257      1.0  0.01839  0.37595  0.96977  1.0000
  H   H451      1.0  0.05913  0.34312  0.74976  1.0000
  H   H452      1.0  0.26742  0.46439  0.78113  1.0000
  H   H453      1.0  0.12011  0.47920  0.83203  1.0000
  H   H454      1.0  0.00796  0.24512  0.87669  1.0000
  C   C258      1.0  0.02129  0.47621  0.89506  1.0000
  H   H455      1.0  0.00360  0.24751  0.85629  1.0000
  H   H456      1.0  0.29782  0.47219  0.78818  1.0000
  S   S94       1.0  0.43824  0.01101  0.91300  1.0000
  H   H457      1.0  0.09181  0.42359  0.85708  1.0000
  H   H458      1.0  0.15840  0.44689  0.79930  1.0000
  C   C259      1.0  0.13682  0.35905  0.85392  1.0000
  C   C260      1.0  0.12778  0.37143  0.86672  1.0000
  C   C261      1.0  0.10487  0.36484  0.87424  1.0000
  C   C262      1.0  0.09106  0.34509  0.86942  1.0000
  C   C263      1.0  0.10004  0.33269  0.85661  1.0000
  C   C264      1.0  0.12259  0.33987  0.84874  1.0000
  H   H459      1.0  0.13871  0.38609  0.87095  1.0000
  H   H460      1.0  0.09837  0.37439  0.88415  1.0000
  H   H461      1.0  0.08964  0.31727  0.85284  1.0000
  H   H462      1.0  0.12935  0.33004  0.83900  1.0000
  C   C265      1.0  0.21447  0.46794  0.79719  1.0000
  C   C266      1.0  0.22110  0.46819  0.81246  1.0000
  H   H463      1.0  0.35088  0.17207  0.76214  1.0000
  H   H464      1.0  0.22448  0.45076  0.81901  1.0000
  H   H465      1.0  0.44661  0.08257  0.82017  1.0000
  C   C267      1.0  0.31744  0.25652  0.81182  1.0000
  C   C268      1.0  0.32857  0.27649  0.80310  1.0000
  C   C269      1.0  0.31527  0.29928  0.80033  1.0000
  C   C270      1.0  0.29049  0.30243  0.80597  1.0000
  C   C271      1.0  0.27921  0.28231  0.81445  1.0000
  C   C272      1.0  0.29265  0.25967  0.81744  1.0000
  H   H466      1.0  0.34758  0.27455  0.79872  1.0000
  H   H467      1.0  0.32432  0.31461  0.79378  1.0000
  H   H468      1.0  0.26028  0.28433  0.81897  1.0000
  H   H469      1.0  0.28377  0.24451  0.82424  1.0000
  C   C273      1.0  0.38835  0.09836  0.84256  1.0000
  C   C274      1.0  0.39249  0.11286  0.85488  1.0000
  C   C275      1.0  0.39603  0.10121  0.86957  1.0000
  C   C276      1.0  0.39602  0.07499  0.87204  1.0000
  C   C277      1.0  0.39252  0.06053  0.85962  1.0000
  C   C278      1.0  0.38847  0.07218  0.84502  1.0000
  H   H470      1.0  0.39248  0.13302  0.85319  1.0000
  H   H471      1.0  0.39870  0.11256  0.87911  1.0000
  H   H472      1.0  0.39235  0.04037  0.86135  1.0000
  H   H473      1.0  0.38515  0.06078  0.83560  1.0000
  N   N21       1.0  0.47234  0.11568  0.83871  1.0000
  H   H474      1.0  0.01489  0.33627  0.83831  1.0000
  H   H475      1.0  0.05146  0.42505  0.98176  1.0000
  H   H476      1.0  0.43632  0.12523  0.82939  1.0000
  S   S95       1.0  0.01039  0.38386  0.95026  1.0000
  C   C279      1.0  0.04576  0.44271  0.97537  1.0000
  H   H477      1.0  0.30589  0.37526  0.82176  1.0000
  H   H478      1.0  0.17557  0.42109  0.85367  1.0000
  H   H479      1.0  0.08192  0.47662  0.94975  1.0000
  C   C280      1.0  0.45022  0.14928  0.85438  1.0000
  H   H480      1.0  0.12820  0.44648  0.79186  1.0000
  H   H481      1.0  0.10771  0.44653  0.81710  1.0000
  H   H482      1.0  0.29301  0.40543  0.82459  1.0000
  H   H483      1.0  0.46234  0.07402  0.87100  1.0000
  H   H484      1.0  0.08458  0.31774  0.76821  1.0000
  H   H485      1.0  0.05894  0.48967  0.96192  1.0000
  H   H486      1.0  0.12665  0.41933  0.81484  1.0000
  H   H487      1.0  0.01610  0.47935  0.96189  1.0000
  C   C281      1.0  0.99946  0.47248  0.90408  1.0000
  C   C282      1.0  0.31154  0.08085  0.75613  1.0000
  H   H488      1.0  0.44030  0.10591  0.80545  1.0000
  H   H489      1.0  0.04134  0.42308  0.95500  1.0000
  H   H490      1.0  0.07294  0.44279  0.91349  1.0000
  C   C283      1.0  0.04212  0.35231  0.98932  1.0000
  H   H491      1.0  0.32676  0.09246  0.75994  1.0000
  C   C284      1.0  0.00610  0.38842  0.98165  1.0000
  N   N22       1.0  0.04467  0.46228  0.94758  1.0000
  C   C285      1.0  0.99942  0.32824  0.86194  1.0000
  H   H492      1.0  0.46190  0.13839  0.81853  1.0000
  H   H493      1.0  0.27002  0.47726  0.79910  1.0000
  H   H494      1.0  0.04629  0.34809  0.96489  1.0000
  H   H495      1.0  0.45450  0.16621  0.86038  1.0000
  H   H496      1.0  0.48163  0.15479  0.83898  1.0000
  H   H497      1.0  0.45726  0.01406  0.96510  1.0000
  H   H498      1.0  0.30809  0.45160  0.76714  1.0000
  H   H499      1.0  0.39882  0.01894  0.96356  1.0000
  H   H500      1.0  0.14063  0.47267  0.84724  1.0000
  H   H501      1.0  0.01325  0.48668  0.94216  1.0000
  H   H502      1.0  0.05472  0.31069  0.74949  1.0000
  H   H503      1.0  0.16664  0.41404  0.82718  1.0000
  H   H504      1.0  0.00683  0.33030  0.87346  1.0000
  H   H505      1.0  0.47199  0.10546  0.87177  1.0000
  C   C286      1.0  0.99776  0.45146  0.94974  1.0000
  H   H506      1.0  0.24530  0.27181  0.75736  1.0000
  H   H507      1.0  0.17768  0.44334  0.82056  1.0000
  S   S96       1.0  0.00713  0.34654  0.90981  1.0000
  H   H508      1.0  0.44156  0.13567  0.86298  1.0000
  C   C287      1.0  0.05113  0.43997  0.95813  1.0000
  C   C288      1.0  0.21074  0.49093  0.78881  1.0000
  H   H509      1.0  0.27958  0.37299  0.77416  1.0000
  C   C289      1.0  0.12740  0.43975  0.81652  1.0000
  H   H510      1.0  0.05660  0.45794  0.97973  1.0000
  H   H511      1.0  0.29592  0.09312  0.75219  1.0000
  C   C290      1.0  0.35611  0.16923  0.75035  1.0000
  H   H512      1.0  0.48722  0.01719  0.90143  1.0000
  C   C291      1.0  0.13872  0.45247  0.80162  1.0000
  C   C292      1.0  0.02102  0.33487  0.85026  1.0000
  H   H513      1.0  0.45850  0.03539  0.94880  1.0000
  H   H514      1.0  0.27308  0.39205  0.75734  1.0000
  H   H515      1.0  0.02418  0.28430  0.85911  1.0000
  N   N23       1.0  0.29249  0.41753  0.79067  1.0000
  C   C293      1.0  0.29191  0.39379  0.80098  1.0000
  C   C294      1.0  0.27619  0.41332  0.77745  1.0000
  C   C295      1.0  0.28124  0.43821  0.79966  1.0000
  C   C296      1.0  0.31930  0.42292  0.78578  1.0000
  C   C297      1.0  0.30449  0.39464  0.81646  1.0000
  C   C298      1.0  0.28399  0.39117  0.76788  1.0000
  C   C299      1.0  0.27921  0.46424  0.79123  1.0000
  C   C300      1.0  0.32392  0.43955  0.77082  1.0000
  H   H516      1.0  0.27234  0.38770  0.80352  1.0000
  H   H517      1.0  0.30131  0.37814  0.79521  1.0000
  H   H518      1.0  0.27467  0.43001  0.76942  1.0000
  H   H519      1.0  0.25660  0.41001  0.78170  1.0000
  H   H520      1.0  0.26215  0.43298  0.80415  1.0000
  H   H521      1.0  0.49246  0.08252  0.86318  1.0000
  H   H522      1.0  0.32897  0.43165  0.79506  1.0000
  H   H523      1.0  0.32966  0.40508  0.78403  1.0000
  H   H524      1.0  0.29231  0.44116  0.80983  1.0000
  C   C301      1.0  0.09108  0.32019  0.75602  1.0000
  C   C302      1.0  0.47950  0.00126  0.94552  1.0000
  C   C303      1.0  0.40392  0.00642  0.97316  1.0000
  H   H525      1.0  0.33504  0.05065  0.74951  1.0000
  H   H526      1.0  0.30405  0.39143  0.76438  1.0000
  H   H527      1.0  0.18211  0.37207  0.75283  1.0000
  C   C304      1.0  0.00703  0.28345  0.86666  1.0000
  H   H528      1.0  0.43652  0.15530  0.84567  1.0000
  H   H529      1.0  0.33970  0.45222  0.77236  1.0000
  H   H530      1.0  0.16799  0.48220  0.81634  1.0000
  H   H531      1.0  0.10095  0.30264  0.75330  1.0000
  N   N24       1.0  0.31091  0.15120  0.84188  1.0000
  C   C305      1.0  0.31936  0.17799  0.84123  1.0000
  C   C306      1.0  0.31287  0.14278  0.82580  1.0000
  C   C307      1.0  0.32887  0.13589  0.85162  1.0000
  C   C308      1.0  0.28465  0.14986  0.84881  1.0000
  C   C309      1.0  0.32198  0.18952  0.85673  1.0000
  C   C310      1.0  0.29924  0.15963  0.81370  1.0000
  C   C311      1.0  0.32474  0.10749  0.85334  1.0000
  C   C312      1.0  0.26787  0.12888  0.84387  1.0000
  H   H532      1.0  0.33769  0.18005  0.83486  1.0000
  H   H533      1.0  0.30604  0.19049  0.83483  1.0000
  H   H534      1.0  0.30591  0.12353  0.82519  1.0000
  H   H535      1.0  0.33283  0.14165  0.82181  1.0000
  H   H536      1.0  0.34833  0.13892  0.84704  1.0000
  H   H537      1.0  0.32843  0.14192  0.86352  1.0000
  H   H538      1.0  0.28503  0.14802  0.86153  1.0000
  H   H539      1.0  0.27409  0.16761  0.84617  1.0000
  H   H540      1.0  0.30528  0.18642  0.86443  1.0000
  H   H541      1.0  0.33901  0.18242  0.86248  1.0000
  H   H542      1.0  0.32427  0.21006  0.85462  1.0000
  H   H543      1.0  0.28030  0.16535  0.81773  1.0000
  H   H544      1.0  0.31010  0.17675  0.81037  1.0000
  H   H545      1.0  0.29753  0.14947  0.80317  1.0000
  H   H546      1.0  0.30754  0.10283  0.86027  1.0000
  H   H547      1.0  0.34027  0.09861  0.85985  1.0000
  H   H548      1.0  0.32506  0.09879  0.84223  1.0000
  H   H549      1.0  0.26214  0.13246  0.83190  1.0000
  H   H550      1.0  0.25044  0.12839  0.85116  1.0000
  H   H551      1.0  0.27655  0.11010  0.84511  1.0000
  N   N25       1.0  0.14022  0.44397  0.83113  1.0000
  C   C313      1.0  0.12672  0.42852  0.84384  1.0000
  C   C314      1.0  0.16661  0.43392  0.83005  1.0000
  H   H552      1.0  0.20167  0.43046  0.84174  1.0000
  H   H553      1.0  0.47187  0.09636  0.80822  1.0000
  C   C315      1.0  0.09861  0.43424  0.84644  1.0000
  C   C316      1.0  0.18185  0.43520  0.84455  1.0000
  C   C317      1.0  0.46085  0.09493  0.84900  1.0000
  C   C318      1.0  0.03663  0.35795  0.97377  1.0000
  H   H554      1.0  0.12844  0.40828  0.84183  1.0000
  H   H555      1.0  0.13520  0.43076  0.85503  1.0000
  C   C319      1.0  0.22389  0.49113  0.81920  1.0000
  C   C320      1.0  0.04721  0.45477  0.93133  1.0000
  H   H556      1.0  0.03988  0.46979  0.92338  1.0000
  H   H557      1.0  0.32367  0.40209  0.81518  1.0000
  C   C321      1.0  0.40148  0.01441  0.98823  1.0000
  H   H558      1.0  0.17310  0.49320  0.83491  1.0000
  C   C322      1.0  0.47293  0.08927  0.86455  1.0000
  C   C323      1.0  0.16533  0.33614  0.75145  1.0000
  H   H559      1.0  0.44072  0.09867  0.85132  1.0000
  H   H560      1.0  0.09475  0.45427  0.84805  1.0000
  C   C324      1.0  0.07384  0.44823  0.92546  1.0000
  H   H561      1.0  0.08201  0.43213  0.93221  1.0000
  C   C325      1.0  0.45580  0.12115  0.82535  1.0000
  H   H562      1.0  0.18134  0.45403  0.84901  1.0000
  C   C326      1.0  0.99860  0.25596  0.86724  1.0000
  C   C327      1.0  0.49437  0.19525  0.81468  1.0000
  H   H563      1.0  0.33009  0.42794  0.76131  1.0000
  C   C328      1.0  0.01823  0.47119  0.95057  1.0000
  H   H564      1.0  0.20581  0.49103  0.77696  1.0000
  H   H565      1.0  0.46143  0.07701  0.84329  1.0000
  H   H566      1.0  0.03571  0.43810  0.92973  1.0000
  H   H567      1.0  0.08651  0.46440  0.92516  1.0000
  H   H568      1.0  0.07131  0.43508  0.95687  1.0000
  H   H569      1.0  0.13668  0.47308  0.80140  1.0000
  H   H570      1.0  0.48875  0.13696  0.85593  1.0000
  H   H571      1.0  0.30435  0.06947  0.76637  1.0000
  H   H572      1.0  0.48292  0.18605  0.79253  1.0000
  H   H573      1.0  0.39447  0.03306  0.99001  1.0000
  C   C329      1.0  0.45385  0.10007  0.81432  1.0000
  H   H574      1.0  0.99686  0.44450  0.93815  1.0000
  H   H575      1.0  0.48514  0.03257  0.96032  1.0000
  C   C330      1.0  0.13881  0.47111  0.83472  1.0000
  C   C331      1.0  0.15867  0.48879  0.82678  1.0000
  C   C332      1.0  0.47461  0.13926  0.84697  1.0000
  H   H576      1.0  0.03702  0.32166  0.85136  1.0000
  H   H577      1.0  0.99901  0.29681  0.83757  1.0000
  C   C333      1.0  0.06213  0.48321  0.95022  1.0000
  H   H578      1.0  0.22918  0.49107  0.83098  1.0000
  H   H579      1.0  0.02560  0.44540  0.97817  1.0000
  H   H580      1.0  0.10440  0.33589  0.75531  1.0000
  H   H581      1.0  0.00004  0.43545  0.95822  1.0000
  H   H582      1.0  0.02827  0.35352  0.85249  1.0000
  H   H583      1.0  0.05597  0.33805  0.99216  1.0000
  H   H584      1.0  0.48750  0.01070  0.93477  1.0000
  H   H585      1.0  0.48204  0.99727  0.98229  1.0000
  H   H586      1.0  0.14863  0.30161  0.74622  1.0000
  C   C334      1.0  0.06826  0.32561  0.74603  1.0000
  C   C335      1.0  0.38124  0.17025  0.74548  1.0000
  H   H587      1.0  0.23940  0.30154  0.74773  1.0000
  C   C336      1.0  0.24282  0.28145  0.74589  1.0000
  C   C337      1.0  0.17472  0.35901  0.74533  1.0000
  Fe  Fe49      1.0  0.39893  0.96556  0.07527  1.0000
  S   S97       1.0  0.37304  0.93746  0.08830  1.0000
  C   C338      1.0  0.16258  0.67370  0.24191  1.0000
  S   S98       1.0  0.41914  0.95605  0.05335  1.0000
  Fe  Fe50      1.0  0.37132  0.78483  0.16452  1.0000
  S   S99       1.0  0.36175  0.81947  0.17712  1.0000
  S   S100      1.0  0.34053  0.76082  0.15510  1.0000
  Fe  Fe51      1.0  0.42850  0.79472  0.16533  1.0000
  S   S101      1.0  0.42221  0.82868  0.17851  1.0000
  S   S102      1.0  0.46699  0.78384  0.15515  1.0000
  Fe  Fe52      1.0  0.39298  0.80654  0.19228  1.0000
  S   S103      1.0  0.39146  0.80265  0.21830  1.0000
  Fe  Fe53      1.0  0.39179  0.83901  0.16205  1.0000
  S   S104      1.0  0.39551  0.87974  0.15250  1.0000
  S   S105      1.0  0.40145  0.77113  0.18031  1.0000
  S   S106      1.0  0.39909  0.80570  0.14830  1.0000
  Fe  Fe54      1.0  0.03552  0.61127  0.05000  1.0000
  H   H588      1.0  0.08443  0.69914  0.01258  1.0000
  Fe  Fe55      1.0  0.05392  0.62797  0.08105  1.0000
  H   H589      1.0  0.26301  0.65165  0.20226  1.0000
  S   S107      1.0  0.07933  0.65333  0.09326  1.0000
  Fe  Fe56      1.0  0.04036  0.57431  0.07814  1.0000
  C   C339      1.0  0.01696  0.63344  0.00198  1.0000
  S   S108      1.0  0.06756  0.59952  0.06504  1.0000
  S   S109      1.0  0.02359  0.64227  0.06522  1.0000
  Fe  Fe57      1.0  0.24714  0.63828  0.16453  1.0000
  S   S110      1.0  0.21272  0.66118  0.15904  1.0000
  S   S111      1.0  0.28595  0.65509  0.16822  1.0000
  Fe  Fe58      1.0  0.21618  0.58900  0.16998  1.0000
  S   S112      1.0  0.18016  0.61017  0.16598  1.0000
  S   S113      1.0  0.20827  0.54726  0.17593  1.0000
  Fe  Fe59      1.0  0.20046  0.62907  0.14573  1.0000
  S   S114      1.0  0.18504  0.62620  0.12188  1.0000
  Fe  Fe60      1.0  0.19536  0.63992  0.17978  1.0000
  S   S115      1.0  0.17245  0.66242  0.19663  1.0000
  S   S116      1.0  0.23660  0.60746  0.14946  1.0000
  S   S117      1.0  0.22970  0.61756  0.18560  1.0000
  C   C340      1.0  0.21756  0.51919  0.16734  1.0000
  H   H590      1.0  0.23760  0.76295  0.19345  1.0000
  C   C341      1.0  0.24049  0.51665  0.15940  1.0000
  H   H591      1.0  0.27889  0.67963  0.20508  1.0000
  H   H592      1.0  0.25258  0.53262  0.15748  1.0000
  H   H593      1.0  0.03793  0.54433  0.04688  1.0000
  C   C342      1.0  0.16068  0.67517  0.22589  1.0000
  C   C343      1.0  0.17487  0.65917  0.21678  1.0000
  C   C344      1.0  0.19120  0.64180  0.22383  1.0000
  H   H594      1.0  0.25143  0.68446  0.18302  1.0000
  H   H595      1.0  0.14810  0.68875  0.22052  1.0000
  H   H596      1.0  0.20232  0.62948  0.21696  1.0000
  H   H597      1.0  0.25248  0.66971  0.21763  1.0000
  C   C345      1.0  0.10734  0.64325  0.10223  1.0000
  C   C346      1.0  0.12395  0.62639  0.09555  1.0000
  C   C347      1.0  0.14759  0.62152  0.10172  1.0000
  C   C348      1.0  0.15456  0.63246  0.11504  1.0000
  C   C349      1.0  0.13754  0.64846  0.12212  1.0000
  C   C350      1.0  0.11430  0.65421  0.11556  1.0000
  H   H598      1.0  0.11899  0.61789  0.08528  1.0000
  H   H599      1.0  0.16068  0.60940  0.09601  1.0000
  H   H600      1.0  0.14264  0.65717  0.13231  1.0000
  H   H601      1.0  0.10173  0.66744  0.12075  1.0000
  H   H602      1.0  0.20708  0.54320  0.13577  1.0000
  C   C351      1.0  0.22718  0.72517  0.16962  1.0000
  H   H603      1.0  0.31583  0.77083  0.23864  1.0000
  C   C352      1.0  0.19302  0.64026  0.23986  1.0000
  H   H604      1.0  0.42816  0.71808  0.16648  1.0000
  H   H605      1.0  0.36638  0.72511  0.13571  1.0000
  C   C353      1.0  0.32345  0.73278  0.16039  1.0000
  C   C354      1.0  0.32982  0.71609  0.17266  1.0000
  C   C355      1.0  0.31763  0.69282  0.17517  1.0000
  C   C356      1.0  0.29838  0.68607  0.16578  1.0000
  C   C357      1.0  0.29111  0.70334  0.15405  1.0000
  C   C358      1.0  0.30369  0.72633  0.15131  1.0000
  H   H606      1.0  0.34471  0.72072  0.17991  1.0000
  H   H607      1.0  0.32351  0.67971  0.18429  1.0000
  H   H608      1.0  0.27655  0.69852  0.14661  1.0000
  H   H609      1.0  0.29844  0.73899  0.14181  1.0000
  C   C359      1.0  0.37925  0.82595  0.22999  1.0000
  H   H610      1.0  0.47159  0.84149  0.14907  1.0000
  S   S118      1.0  0.48851  0.94870  0.06253  1.0000
  C   C360      1.0  0.36623  0.84687  0.22390  1.0000
  C   C361      1.0  0.47167  0.87314  0.10365  1.0000
  C   C362      1.0  0.35343  0.68753  0.13612  1.0000
  H   H611      1.0  0.36416  0.84951  0.21168  1.0000
  C   C363      1.0  0.38966  0.89444  0.13422  1.0000
  C   C364      1.0  0.37189  0.88569  0.12467  1.0000
  C   C365      1.0  0.36723  0.89882  0.11053  1.0000
  C   C366      1.0  0.38082  0.92030  0.10557  1.0000
  C   C367      1.0  0.39925  0.92842  0.11488  1.0000
  C   C368      1.0  0.40322  0.91593  0.12925  1.0000
  H   H612      1.0  0.36120  0.86929  0.12836  1.0000
  H   H613      1.0  0.35285  0.89242  0.10346  1.0000
  H   H614      1.0  0.40992  0.94479  0.11122  1.0000
  H   H615      1.0  0.41696  0.92290  0.13655  1.0000
  H   H616      1.0  0.07042  0.53866  0.04423  1.0000
  H   H617      1.0  0.42179  0.96196  0.00807  1.0000
  H   H618      1.0  0.27029  0.76515  0.19278  1.0000
  C   C369      1.0  0.03620  0.61619  0.00522  1.0000
  H   H619      1.0  0.17418  0.51397  0.13632  1.0000
  C   C370      1.0  0.21640  0.72039  0.18615  1.0000
  C   C371      1.0  0.32684  0.78716  0.24141  1.0000
  H   H620      1.0  0.19887  0.72893  0.23015  1.0000
  H   H621      1.0  0.24746  0.49930  0.22220  1.0000
  H   H622      1.0  0.33596  0.79448  0.23045  1.0000
  H   H623      1.0  0.20719  0.73821  0.18895  1.0000
  N   N26       1.0  0.23485  0.71125  0.19794  1.0000
  C   C372      1.0  0.25812  0.72676  0.19709  1.0000
  H   H624      1.0  0.04965  0.51291  0.04579  1.0000
  H   H625      1.0  0.00515  0.64996  0.23649  1.0000
  H   H626      1.0  0.25405  0.75916  0.21109  1.0000
  H   H627      1.0  0.21168  0.73079  0.16202  1.0000
  S   S119      1.0  0.43295  0.97727  0.08660  1.0000
  Fe  Fe61      1.0  0.45255  0.97053  0.06430  1.0000
  H   H628      1.0  0.07611  0.72240  0.03746  1.0000
  H   H629      1.0  0.00683  0.64190  0.01125  1.0000
  H   H630      1.0  0.34537  0.88028  0.22890  1.0000
  C   C373      1.0  0.25450  0.75500  0.19885  1.0000
  S   S120      1.0  0.05428  0.53584  0.08553  1.0000
  H   H631      1.0  0.48580  0.97794  0.08910  1.0000
  H   H632      1.0  0.14158  0.52356  0.11357  1.0000
  C   C374      1.0  0.04647  0.67780  0.02925  1.0000
  C   C375      1.0  0.24224  0.68489  0.19449  1.0000
  H   H633      1.0  0.44057  0.89505  0.09335  1.0000
  C   C376      1.0  0.20383  0.73079  0.21771  1.0000
  H   H634      1.0  0.48116  0.80204  0.18444  1.0000
  N   N27       1.0  0.39767  0.70140  0.14258  1.0000
  C   C377      1.0  0.41833  0.71813  0.13605  1.0000
  C   C378      1.0  0.40626  0.67459  0.14194  1.0000
  C   C379      1.0  0.39122  0.70638  0.15900  1.0000
  C   C380      1.0  0.37473  0.70657  0.13336  1.0000
  C   C381      1.0  0.41234  0.66583  0.12579  1.0000
  H   H635      1.0  0.45533  0.91013  0.10847  1.0000
  H   H636      1.0  0.43648  0.71279  0.14121  1.0000
  H   H637      1.0  0.42140  0.71596  0.12359  1.0000
  H   H638      1.0  0.39227  0.66166  0.14774  1.0000
  H   H639      1.0  0.42359  0.67119  0.14837  1.0000
  H   H640      1.0  0.07430  0.65929  0.00359  1.0000
  H   H641      1.0  0.17227  0.57300  0.11384  1.0000
  H   H642      1.0  0.37949  0.70796  0.12087  1.0000
  H   H643      1.0  0.43000  0.75675  0.13197  1.0000
  H   H644      1.0  0.42933  0.67495  0.12055  1.0000
  H   H645      1.0  0.41633  0.64540  0.12671  1.0000
  H   H646      1.0  0.39668  0.66894  0.11798  1.0000
  H   H647      1.0  0.37707  0.69294  0.16400  1.0000
  H   H648      1.0  0.23605  0.70840  0.16499  1.0000
  H   H649      1.0  0.43872  0.84693  0.14684  1.0000
  N   N28       1.0  0.45930  0.85801  0.11690  1.0000
  H   H650      1.0  0.00345  0.53596  0.07580  1.0000
  C   C382      1.0  0.22292  0.71013  0.21390  1.0000
  N   N29       1.0  0.02706  0.52499  0.01669  1.0000
  C   C383      1.0  0.43172  0.85563  0.11470  1.0000
  C   C384      1.0  0.45710  0.85598  0.14654  1.0000
  C   C385      1.0  0.09390  0.65381  0.00548  1.0000
  H   H651      1.0  0.09672  0.63522  0.00073  1.0000
  C   C386      1.0  0.42425  0.84237  0.10049  1.0000
  C   C387      1.0  0.11879  0.56816  0.14812  1.0000
  H   H652      1.0  0.10967  0.55149  0.10142  1.0000
  H   H653      1.0  0.39678  0.97364  0.13033  1.0000
  H   H654      1.0  0.05141  0.55591  0.02051  1.0000
  H   H655      1.0  0.18441  0.49984  0.17585  1.0000
  C   C388      1.0  0.20219  0.49811  0.16973  1.0000
  H   H656      1.0  0.42252  0.84514  0.12468  1.0000
  H   H657      1.0  0.42208  0.87406  0.11449  1.0000
  C   C389      1.0  0.16029  0.52658  0.14182  1.0000
  Fe  Fe62      1.0  0.41279  0.99606  0.04479  1.0000
  C   C390      1.0  0.46273  0.87132  0.13130  1.0000
  C   C391      1.0  0.35560  0.86426  0.23369  1.0000
  H   H658      1.0  0.13942  0.56595  0.09973  1.0000
  S   S121      1.0  0.04600  0.60808  0.02428  1.0000
  H   H659      1.0  0.12157  0.56053  0.16003  1.0000
  C   C392      1.0  0.41685  0.97449  0.99844  1.0000
  H   H660      1.0  0.45671  0.86866  0.15607  1.0000
  H   H661      1.0  0.42203  0.82200  0.10333  1.0000
  H   H662      1.0  0.43765  0.84513  0.09066  1.0000
  H   H663      1.0  0.40622  0.85038  0.09646  1.0000
  N   N30       1.0  0.09455  0.67394  0.03187  1.0000
  C   C393      1.0  0.11320  0.67394  0.04436  1.0000
  C   C394      1.0  0.09757  0.69799  0.02210  1.0000
  C   C395      1.0  0.10065  0.65174  0.02249  1.0000
  C   C396      1.0  0.06882  0.67164  0.03942  1.0000
  C   C397      1.0  0.11448  0.64984  0.05496  1.0000
  C   C398      1.0  0.09379  0.72226  0.03049  1.0000
  H   H664      1.0  0.48209  0.87834  0.13180  1.0000
  C   C399      1.0  0.01146  0.51760  0.07468  1.0000
  H   H665      1.0  0.13237  0.67749  0.03939  1.0000
  H   H666      1.0  0.10901  0.68921  0.05211  1.0000
  H   H667      1.0  0.36175  0.95319  0.13625  1.0000
  H   H668      1.0  0.11658  0.69870  0.01647  1.0000
  C   C400      1.0  0.03569  0.51224  0.07938  1.0000
  H   H669      1.0  0.09191  0.63442  0.02784  1.0000
  H   H670      1.0  0.06591  0.65233  0.04454  1.0000
  H   H671      1.0  0.06678  0.68387  0.04919  1.0000
  H   H672      1.0  0.09671  0.64669  0.06163  1.0000
  H   H673      1.0  0.11949  0.63306  0.04873  1.0000
  H   H674      1.0  0.12909  0.65194  0.06342  1.0000
  H   H675      1.0  0.09299  0.73841  0.02189  1.0000
  H   H676      1.0  0.10971  0.72555  0.03779  1.0000
  H   H677      1.0  0.02893  0.67548  0.03633  1.0000
  C   C401      1.0  0.34798  0.96520  0.12999  1.0000
  H   H678      1.0  0.21429  0.56796  0.12175  1.0000
  H   H679      1.0  0.04642  0.69739  0.02437  1.0000
  H   H680      1.0  0.04532  0.66481  0.02011  1.0000
  H   H681      1.0  0.18618  0.72845  0.21174  1.0000
  H   H682      1.0  0.47054  0.90870  0.09004  1.0000
  H   H683      1.0  0.10471  0.55712  0.14278  1.0000
  C   C402      1.0  0.26015  0.67109  0.20568  1.0000
  H   H684      1.0  0.11027  0.58714  0.14856  1.0000
  H   H685      1.0  0.14320  0.58748  0.13125  1.0000
  C   C403      1.0  0.17588  0.55558  0.12108  1.0000
  H   H686      1.0  0.38227  0.72513  0.15981  1.0000
  C   C404      1.0  0.04989  0.53547  0.02348  1.0000
  H   H687      1.0  0.11695  0.53180  0.12613  1.0000
  H   H688      1.0  0.39684  0.75342  0.13222  1.0000
  C   C405      1.0  0.45855  0.89810  0.09877  1.0000
  N   N31       1.0  0.15288  0.54791  0.13068  1.0000
  H   H689      1.0  0.24075  0.74066  0.16868  1.0000
  H   H690      1.0  0.21263  0.69236  0.21637  1.0000
  H   H691      1.0  0.40592  0.70980  0.18147  1.0000
  C   C406      1.0  0.19947  0.56052  0.12995  1.0000
  C   C407      1.0  0.12444  0.55959  0.10808  1.0000
  H   H692      1.0  0.42090  0.68555  0.17151  1.0000
  C   C408      1.0  0.13941  0.50918  0.14854  1.0000
  C   C409      1.0  0.41308  0.70476  0.17000  1.0000
  H   H693      1.0  0.18120  0.54106  0.11299  1.0000
  H   H694      1.0  0.12110  0.64760  0.02224  1.0000
  H   H695      1.0  0.10633  0.66704  0.99866  1.0000
  H   H696      1.0  0.29557  0.81195  0.23913  1.0000
  H   H697      1.0  0.01920  0.56037  0.00408  1.0000
  H   H698      1.0  0.16986  0.53380  0.15167  1.0000
  C   C410      1.0  0.14394  0.57025  0.13903  1.0000
  H   H699      1.0  0.41359  0.75096  0.14979  1.0000
  H   H700      1.0  0.45054  0.88830  0.13146  1.0000
  C   C411      1.0  0.41409  0.74632  0.13768  1.0000
  H   H701      1.0  0.11583  0.57584  0.11356  1.0000
  H   H702      1.0  0.34759  0.68470  0.14833  1.0000
  H   H703      1.0  0.33679  0.69475  0.12997  1.0000
  H   H704      1.0  0.23742  0.70987  0.22267  1.0000
  S   S122      1.0  0.00923  0.58384  0.06235  1.0000
  H   H705      1.0  0.32925  0.95844  0.13407  1.0000
  S   S123      1.0  0.02858  0.60180  0.09522  1.0000
  C   C412      1.0  0.13386  0.53943  0.11995  1.0000
  H   H706      1.0  0.26950  0.72413  0.18638  1.0000
  C   C413      1.0  0.05178  0.53238  0.04104  1.0000
  H   H707      1.0  0.15771  0.57495  0.14746  1.0000
  H   H708      1.0  0.35836  0.66918  0.13165  1.0000
  H   H709      1.0  0.27092  0.72020  0.20624  1.0000
  H   H710      1.0  0.22541  0.67305  0.19415  1.0000
  C   C414      1.0  0.02161  0.54017  0.00201  1.0000
  H   H711      1.0  0.19617  0.57476  0.13839  1.0000
  H   H712      1.0  0.46117  0.82012  0.12723  1.0000
  C   C415      1.0  0.99744  0.49906  0.06864  1.0000
  H   H713      1.0  0.20079  0.70693  0.18590  1.0000
  Fe  Fe63      1.0  0.99922  0.61367  0.07855  1.0000
  C   C416      1.0  0.23708  0.49966  0.21151  1.0000
  H   H714      1.0  0.24035  0.51814  0.20527  1.0000
  H   H715      1.0  0.06726  0.52726  0.01843  1.0000
  H   H716      1.0  0.47394  0.86217  0.09335  1.0000
  H   H717      1.0  0.46823  0.82257  0.10738  1.0000
  H   H718      1.0  0.49107  0.87792  0.10634  1.0000
  H   H719      1.0  0.39397  0.99326  0.14581  1.0000
  H   H720      1.0  0.12360  0.51935  0.15380  1.0000
  H   H721      1.0  0.34976  0.96221  0.11761  1.0000
  C   C417      1.0  0.47082  0.83219  0.11805  1.0000
  H   H722      1.0  0.04827  0.49674  0.00492  1.0000
  H   H723      1.0  0.21108  0.74982  0.21504  1.0000
  C   C418      1.0  0.35029  0.99298  0.13331  1.0000
  H   H724      1.0  0.43605  0.99256  0.13314  1.0000
  H   H725      1.0  0.00901  0.56589  0.03128  1.0000
  H   H726      1.0  0.00718  0.51673  0.03851  1.0000
  C   C419      1.0  0.03161  0.49827  0.01276  1.0000
  C   C420      1.0  0.00405  0.52609  0.02709  1.0000
  C   C421      1.0  0.39549  0.99353  0.13308  1.0000
  H   H727      1.0  0.02666  0.68925  0.23859  1.0000
  H   H728      1.0  0.13255  0.49727  0.13974  1.0000
  H   H729      1.0  0.38280  0.98605  0.10607  1.0000
  H   H730      1.0  0.00361  0.53442  0.99741  1.0000
  H   H731      1.0  0.35004  0.99390  0.14597  1.0000
  H   H732      1.0  0.34669  0.99176  0.09403  1.0000
  H   H733      1.0  0.21675  0.49877  0.21427  1.0000
  H   H734      1.0  0.99813  0.70682  0.24130  1.0000
  H   H735      1.0  0.06409  0.59232  0.99513  1.0000
  H   H736      1.0  0.40328  0.97400  0.35093  1.0000
  S   S124      1.0  0.44962  0.87312  0.39399  1.0000
  H   H737      1.0  0.13171  0.82224  0.33047  1.0000
  Fe  Fe64      1.0  0.36418  0.87059  0.31867  1.0000
  S   S125      1.0  0.32707  0.87305  0.33140  1.0000
  S   S126      1.0  0.40384  0.86878  0.32788  1.0000
  Fe  Fe65      1.0  0.33946  0.87753  0.28744  1.0000
  S   S127      1.0  0.30082  0.88144  0.29819  1.0000
  S   S128      1.0  0.34283  0.88242  0.26148  1.0000
  Fe  Fe66      1.0  0.31911  0.90580  0.31448  1.0000
  S   S129      1.0  0.30383  0.94261  0.32329  1.0000
  Fe  Fe67      1.0  0.31183  0.84846  0.31385  1.0000
  S   S130      1.0  0.29007  0.81170  0.31909  1.0000
  S   S131      1.0  0.35670  0.90424  0.30258  1.0000
  S   S132      1.0  0.34995  0.84367  0.30231  1.0000
  H   H738      1.0  0.11352  0.77372  0.27368  1.0000
  S   S133      1.0  0.17688  0.55267  0.37722  1.0000
  Fe  Fe68      1.0  0.14454  0.67528  0.31954  1.0000
  S   S134      1.0  0.13081  0.71545  0.31807  1.0000
  S   S135      1.0  0.13362  0.65027  0.34088  1.0000
  Fe  Fe69      1.0  0.16114  0.67797  0.28582  1.0000
  S   S136      1.0  0.14800  0.71768  0.28188  1.0000
  S   S137      1.0  0.18140  0.65312  0.26912  1.0000
  Fe  Fe70      1.0  0.16633  0.72449  0.30398  1.0000
  S   S138      1.0  0.18568  0.76295  0.30327  1.0000
  Fe  Fe71      1.0  0.11356  0.70615  0.29620  1.0000
  S   S139      1.0  0.07513  0.72004  0.28817  1.0000
  S   S140      1.0  0.18132  0.68491  0.30726  1.0000
  S   S141      1.0  0.12544  0.66589  0.29828  1.0000
  H   H739      1.0  0.26112  0.81647  0.25734  1.0000
  H   H740      1.0  0.22859  0.52345  0.41232  1.0000
  C   C422      1.0  0.04484  0.71318  0.29641  1.0000
  C   C423      1.0  0.02391  0.72555  0.29008  1.0000
  H   H741      1.0  0.06415  0.80817  0.29373  1.0000
  H   H742      1.0  0.19172  0.58537  0.32795  1.0000
  C   C424      1.0  0.04107  0.69624  0.30911  1.0000
  H   H743      1.0  0.02657  0.73897  0.28041  1.0000
  C   C425      1.0  0.10247  0.77517  0.29765  1.0000
  H   H744      1.0  0.05694  0.68675  0.31424  1.0000
  C   C426      1.0  0.16462  0.57964  0.36707  1.0000
  C   C427      1.0  0.13912  0.58547  0.36763  1.0000
  C   C428      1.0  0.13007  0.60709  0.35948  1.0000
  C   C429      1.0  0.14628  0.62300  0.35053  1.0000
  C   C430      1.0  0.17184  0.61725  0.35004  1.0000
  C   C431      1.0  0.18094  0.59572  0.35831  1.0000
  H   H745      1.0  0.12633  0.57339  0.37439  1.0000
  H   H746      1.0  0.11031  0.61151  0.36011  1.0000
  H   H747      1.0  0.18461  0.62963  0.34352  1.0000
  H   H748      1.0  0.20074  0.59153  0.35795  1.0000
  H   H749      1.0  0.20043  0.61347  0.28843  1.0000
  H   H750      1.0  0.49578  0.85661  0.34877  1.0000
  H   H751      1.0  0.00988  0.65407  0.28848  1.0000
  H   H752      1.0  0.15251  0.59173  0.44402  1.0000
  C   C432      1.0  0.26076  0.79876  0.31464  1.0000
  C   C433      1.0  0.24220  0.81274  0.30700  1.0000
  C   C434      1.0  0.21948  0.80146  0.30368  1.0000
  C   C435      1.0  0.21494  0.77598  0.30778  1.0000
  C   C436      1.0  0.23355  0.76198  0.31534  1.0000
  C   C437      1.0  0.25614  0.77333  0.31882  1.0000
  H   H753      1.0  0.24525  0.83231  0.30378  1.0000
  H   H754      1.0  0.20530  0.81260  0.29788  1.0000
  H   H755      1.0  0.23047  0.74245  0.31866  1.0000
  H   H756      1.0  0.27024  0.76226  0.32476  1.0000
  H   H757      1.0  0.44843  0.79303  0.36482  1.0000
  C   C438      1.0  0.32632  0.97818  0.30272  1.0000
  C   C439      1.0  0.31108  0.97357  0.31588  1.0000
  C   C440      1.0  0.16953  0.58261  0.44874  1.0000
  H   H758      1.0  0.14262  0.79998  0.30704  1.0000
  H   H759      1.0  0.33346  0.96266  0.29651  1.0000
  C   C441      1.0  0.15297  0.50039  0.46817  1.0000
  H   H760      1.0  0.49128  0.76858  0.35841  1.0000
  H   H761      1.0  0.05308  0.76043  0.33204  1.0000
  H   H762      1.0  0.36067  0.95512  0.32246  1.0000
  C   C442      1.0  0.43679  0.87321  0.37556  1.0000
  C   C443      1.0  0.45109  0.87916  0.36217  1.0000
  C   C444      1.0  0.44073  0.87748  0.34774  1.0000
  C   C445      1.0  0.41566  0.87072  0.34645  1.0000
  C   C446      1.0  0.40115  0.86535  0.35984  1.0000
  C   C447      1.0  0.41170  0.86648  0.37429  1.0000
  H   H763      1.0  0.47019  0.88494  0.36295  1.0000
  H   H764      1.0  0.45212  0.88177  0.33747  1.0000
  H   H765      1.0  0.38198  0.85973  0.35905  1.0000
  H   H766      1.0  0.40043  0.86181  0.38456  1.0000
  Fe  Fe72      1.0  0.15244  0.52526  0.39197  1.0000
  H   H767      1.0  0.01305  0.52442  0.42072  1.0000
  C   C448      1.0  0.45864  0.81345  0.34388  1.0000
  H   H768      1.0  0.02554  0.58938  0.39077  1.0000
  H   H769      1.0  0.10920  0.82754  0.30087  1.0000
  H   H770      1.0  0.01176  0.56097  0.39756  1.0000
  H   H771      1.0  0.30197  0.76234  0.26298  1.0000
  H   H772      1.0  0.15475  0.56146  0.29614  1.0000
  H   H773      1.0  0.22549  0.58082  0.43910  1.0000
  H   H774      1.0  0.15467  0.60184  0.27733  1.0000
  H   H775      1.0  0.26972  0.74897  0.28092  1.0000
  C   C449      1.0  0.01671  0.69178  0.31535  1.0000
  H   H776      1.0  0.12179  0.61130  0.31702  1.0000
  H   H777      1.0  0.23061  0.62918  0.30371  1.0000
  H   H778      1.0  0.48233  0.85464  0.49364  1.0000
  H   H779      1.0  0.46779  0.98836  0.41074  1.0000
  H   H780      1.0  0.17197  0.61805  0.39473  1.0000
  H   H781      1.0  0.20101  0.62274  0.40324  1.0000
  C   C450      1.0  0.46066  0.80923  0.36136  1.0000
  C   C451      1.0  0.21561  0.61830  0.31008  1.0000
  C   C452      1.0  0.18776  0.60816  0.40049  1.0000
  H   H782      1.0  0.03325  0.56110  0.38136  1.0000
  H   H783      1.0  0.16313  0.61765  0.31856  1.0000
  H   H784      1.0  0.13791  0.78393  0.28481  1.0000
  H   H785      1.0  0.48726  0.84304  0.37411  1.0000
  H   H786      1.0  0.06700  0.74823  0.31536  1.0000
  H   H787      1.0  0.20960  0.52253  0.42944  1.0000
  C   C453      1.0  0.35787  0.86092  0.24961  1.0000
  H   H788      1.0  0.19960  0.55953  0.31701  1.0000
  H   H789      1.0  0.00276  0.52714  0.37883  1.0000
  C   C454      1.0  0.38173  0.82275  0.24591  1.0000
  C   C455      1.0  0.48607  0.99287  0.40575  1.0000
  H   H790      1.0  0.34198  0.78115  0.24906  1.0000
  H   H791      1.0  0.08309  0.77290  0.29408  1.0000
  S   S142      1.0  0.13208  0.53655  0.41329  1.0000
  H   H792      1.0  0.21074  0.60938  0.43281  1.0000
  C   C456      1.0  0.20366  0.55567  0.41373  1.0000
  H   H793      1.0  0.22466  0.60723  0.31952  1.0000
  H   H794      1.0  0.25517  0.58266  0.41979  1.0000
  C   C457      1.0  0.20329  0.60137  0.29902  1.0000
  H   H795      1.0  0.26768  0.81918  0.27688  1.0000
  H   H796      1.0  0.01282  0.68757  0.27140  1.0000
  C   C458      1.0  0.46651  0.80679  0.39482  1.0000
  C   C459      1.0  0.23951  0.59592  0.41729  1.0000
  H   H797      1.0  0.18954  0.50353  0.47724  1.0000
  C   C460      1.0  0.22055  0.53522  0.42129  1.0000
  C   C461      1.0  0.01793  0.57178  0.38695  1.0000
  H   H798      1.0  0.01411  0.67898  0.32534  1.0000
  H   H799      1.0  0.21337  0.56256  0.40294  1.0000
  C   C462      1.0  0.11747  0.78541  0.28328  1.0000
  C   C463      1.0  0.06925  0.82151  0.30212  1.0000
  H   H800      1.0  0.45139  0.82560  0.36642  1.0000
  H   H801      1.0  0.47084  0.82842  0.33879  1.0000
  H   H802      1.0  0.15799  0.57193  0.26957  1.0000
  H   H803      1.0  0.24702  0.61477  0.41878  1.0000
  C   C464      1.0  0.16709  0.58520  0.27674  1.0000
  H   H804      1.0  0.08432  0.79099  0.33379  1.0000
  H   H805      1.0  0.10923  0.75575  0.30032  1.0000
  H   H806      1.0  0.12830  0.58164  0.30991  1.0000
  H   H807      1.0  0.14858  0.57265  0.33218  1.0000
  H   H808      1.0  0.25690  0.77948  0.28240  1.0000
  H   H809      1.0  0.43917  0.81929  0.34131  1.0000
  C   C465      1.0  0.17174  0.57215  0.29265  1.0000
  H   H810      1.0  0.44703  0.80912  0.39111  1.0000
  H   H811      1.0  0.06885  0.84004  0.29565  1.0000
  H   H812      1.0  0.29001  0.99080  0.33389  1.0000
  H   H813      1.0  0.27373  0.77461  0.25606  1.0000
  H   H814      1.0  0.18483  0.59081  0.27061  1.0000
  H   H815      1.0  0.46568  0.79589  0.40605  1.0000
  N   N32       1.0  0.37200  0.95129  0.34588  1.0000
  H   H816      1.0  0.19636  0.59594  0.39203  1.0000
  C   C466      1.0  0.36364  0.92447  0.34775  1.0000
  C   C467      1.0  0.37753  0.95806  0.32912  1.0000
  C   C468      1.0  0.39403  0.95640  0.35539  1.0000
  H   H817      1.0  0.09530  0.82688  0.31920  1.0000
  C   C469      1.0  0.35470  0.91516  0.36404  1.0000
  C   C470      1.0  0.39933  0.94406  0.32140  1.0000
  C   C471      1.0  0.41445  0.93579  0.35684  1.0000
  H   H818      1.0  0.15362  0.54641  0.32011  1.0000
  H   H819      1.0  0.29601  0.85525  0.26970  1.0000
  H   H820      1.0  0.37831  0.91124  0.34406  1.0000
  H   H821      1.0  0.34798  0.92158  0.34008  1.0000
  H   H822      1.0  0.28701  0.77127  0.29027  1.0000
  Fe  Fe73      1.0  0.10152  0.51291  0.40568  1.0000
  S   S143      1.0  0.12052  0.50405  0.38336  1.0000
  H   H823      1.0  0.38749  0.95942  0.36735  1.0000
  H   H824      1.0  0.02509  0.71350  0.25137  1.0000
  H   H825      1.0  0.20231  0.63206  0.31480  1.0000
  H   H826      1.0  0.12609  0.79247  0.34114  1.0000
  H   H827      1.0  0.33605  0.92307  0.36706  1.0000
  H   H828      1.0  0.35247  0.89456  0.36446  1.0000
  H   H829      1.0  0.36816  0.91925  0.37278  1.0000
  H   H830      1.0  0.41755  0.94946  0.32565  1.0000
  H   H831      1.0  0.39977  0.94946  0.30894  1.0000
  H   H832      1.0  0.39725  0.92352  0.32249  1.0000
  H   H833      1.0  0.43294  0.94464  0.35751  1.0000
  H   H834      1.0  0.41606  0.92358  0.34724  1.0000
  H   H835      1.0  0.41186  0.92418  0.36775  1.0000
  N   N33       1.0  0.19567  0.57654  0.42363  1.0000
  C   C472      1.0  0.18180  0.56464  0.43754  1.0000
  C   C473      1.0  0.21734  0.59097  0.42891  1.0000
  C   C474      1.0  0.17755  0.59359  0.41508  1.0000
  H   H836      1.0  0.33293  0.96246  0.34526  1.0000
  C   C475      1.0  0.99958  0.72103  0.29630  1.0000
  H   H837      1.0  0.18699  0.54606  0.40987  1.0000
  H   H838      1.0  0.15630  0.79985  0.33309  1.0000
  H   H839      1.0  0.16682  0.55231  0.43411  1.0000
  H   H840      1.0  0.19442  0.55224  0.44453  1.0000
  H   H841      1.0  0.34586  0.96385  0.36340  1.0000
  H   H842      1.0  0.09946  0.76203  0.33055  1.0000
  H   H843      1.0  0.16120  0.58283  0.41178  1.0000
  H   H844      1.0  0.16989  0.60822  0.42240  1.0000
  H   H845      1.0  0.12337  0.60872  0.29701  1.0000
  H   H846      1.0  0.16208  0.62487  0.29862  1.0000
  C   C476      1.0  0.16985  0.50130  0.48006  1.0000
  H   H847      1.0  0.18262  0.59685  0.45212  1.0000
  C   C477      1.0  0.09545  0.81687  0.30849  1.0000
  H   H848      1.0  0.23507  0.59564  0.40513  1.0000
  H   H849      1.0  0.37332  0.83760  0.26790  1.0000
  H   H850      1.0  0.46236  0.79593  0.33809  1.0000
  C   C478      1.0  0.08854  0.77763  0.32482  1.0000
  N   N34       1.0  0.29801  0.80285  0.26352  1.0000
  H   H851      1.0  0.00613  0.58143  0.36442  1.0000
  C   C479      1.0  0.28753  0.77682  0.26505  1.0000
  H   H852      1.0  0.20557  0.62665  0.24522  1.0000
  C   C480      1.0  0.31596  0.80756  0.27582  1.0000
  C   C481      1.0  0.01631  0.51047  0.41248  1.0000
  C   C482      1.0  0.13599  0.80193  0.33109  1.0000
  C   C483      1.0  0.13061  0.78999  0.31603  1.0000
  C   C484      1.0  0.33732  0.78837  0.27867  1.0000
  N   N35       1.0  0.10367  0.79008  0.31159  1.0000
  C   C485      1.0  0.06360  0.76577  0.32118  1.0000
  C   C486      1.0  0.27465  0.76904  0.28061  1.0000
  C   C487      1.0  0.49254  0.96386  0.48556  1.0000
  C   C488      1.0  0.37119  0.84019  0.25568  1.0000
  C   C489      1.0  0.01419  0.69805  0.24717  1.0000
  H   H853      1.0  0.32521  0.82588  0.27331  1.0000
  H   H854      1.0  0.30596  0.80993  0.28700  1.0000
  H   H855      1.0  0.47420  0.82523  0.39690  1.0000
  H   H856      1.0  0.05477  0.82148  0.31153  1.0000
  H   H857      1.0  0.05142  0.77835  0.31420  1.0000
  H   H858      1.0  0.11202  0.80487  0.27971  1.0000
  H   H859      1.0  0.13805  0.77048  0.31718  1.0000
  H   H860      1.0  0.47320  0.96100  0.48198  1.0000
  H   H861      1.0  0.35447  0.79402  0.27193  1.0000
  H   H862      1.0  0.23622  0.54303  0.42721  1.0000
  C   C490      1.0  0.35021  0.96736  0.35095  1.0000
  C   C491      1.0  0.17868  0.65612  0.24898  1.0000
  H   H863      1.0  0.33282  0.76898  0.27647  1.0000
  H   H864      1.0  0.34169  0.78758  0.29099  1.0000
  N   N36       1.0  0.17916  0.58910  0.30471  1.0000
  H   H865      1.0  0.16962  0.54805  0.33741  1.0000
  C   C492      1.0  0.18456  0.57357  0.31922  1.0000
  C   C493      1.0  0.15991  0.60924  0.30758  1.0000
  C   C494      1.0  0.16253  0.55950  0.32741  1.0000
  C   C495      1.0  0.13209  0.60173  0.30778  1.0000
  H   H866      1.0  0.21750  0.58707  0.29579  1.0000
  H   H867      1.0  0.18641  0.55752  0.29100  1.0000
  C   C496      1.0  0.28219  0.84884  0.26183  1.0000
  S   S144      1.0  0.06314  0.52907  0.40898  1.0000
  H   H868      1.0  0.32159  0.82505  0.24737  1.0000
  H   H869      1.0  0.28882  0.85334  0.24983  1.0000
  H   H870      1.0  0.47573  0.77357  0.38325  1.0000
  H   H871      1.0  0.26491  0.86008  0.26373  1.0000
  C   C497      1.0  0.48341  0.79274  0.38351  1.0000
  H   H872      1.0  0.16327  0.57155  0.45934  1.0000
  Fe  Fe74      1.0  0.49043  0.87975  0.39943  1.0000
  C   C498      1.0  0.03984  0.50814  0.40526  1.0000
  H   H873      1.0  0.39185  0.80665  0.25069  1.0000
  C   C499      1.0  0.27623  0.82086  0.26509  1.0000
  C   C500      1.0  0.30189  0.99411  0.32372  1.0000
  H   H874      1.0  0.38220  0.97813  0.32705  1.0000
  N   N37       1.0  0.48645  0.80492  0.36750  1.0000
  H   H875      1.0  0.49422  0.86328  0.46610  1.0000
  Fe  Fe75      1.0  0.14640  0.50111  0.42525  1.0000
  S   S145      1.0  0.16483  0.50142  0.44871  1.0000
  C   C501      1.0  0.00769  0.67900  0.26076  1.0000
  H   H876      1.0  0.00127  0.53868  0.35958  1.0000
  C   C502      1.0  0.12761  0.49730  0.47216  1.0000
  H   H877      1.0  0.02095  0.66296  0.25965  1.0000
  C   C503      1.0  0.31006  0.80795  0.24778  1.0000
  H   H878      1.0  0.15145  0.68602  0.24879  1.0000
  C   C504      1.0  0.99664  0.57800  0.37585  1.0000
  H   H879      1.0  0.49332  0.95584  0.39857  1.0000
  H   H880      1.0  0.11428  0.49652  0.46325  1.0000
  H   H881      1.0  0.46887  0.92263  0.49486  1.0000
  C   C505      1.0  0.35336  0.99593  0.34828  1.0000
  Fe  Fe76      1.0  0.33108  0.86220  0.68906  1.0000
  S   S146      1.0  0.29664  0.88110  0.67945  1.0000
  S   S147      1.0  0.32653  0.85344  0.71491  1.0000
  Fe  Fe77      1.0  0.35446  0.85676  0.65692  1.0000
  S   S148      1.0  0.32093  0.87431  0.64568  1.0000
  S   S149      1.0  0.38653  0.83931  0.64293  1.0000
  Fe  Fe78      1.0  0.32296  0.90317  0.66329  1.0000
  S   S150      1.0  0.31965  0.94404  0.65349  1.0000
  Fe  Fe79      1.0  0.29741  0.85062  0.66289  1.0000
  S   S151      1.0  0.25994  0.83190  0.65820  1.0000
  S   S152      1.0  0.35760  0.88629  0.67393  1.0000
  S   S153      1.0  0.33080  0.83112  0.67304  1.0000
  H   H882      1.0  0.05933  0.52437  0.56727  1.0000
  H   H883      1.0  0.48242  0.98523  0.58395  1.0000
  S   S154      1.0  0.46165  0.89353  0.59292  1.0000
  Fe  Fe80      1.0  0.14363  0.66668  0.68777  1.0000
  S   S155      1.0  0.13874  0.70730  0.68001  1.0000
  S   S156      1.0  0.13732  0.64904  0.71197  1.0000
  Fe  Fe81      1.0  0.15141  0.64994  0.65479  1.0000
  S   S157      1.0  0.14781  0.68962  0.64469  1.0000
  S   S158      1.0  0.15714  0.61132  0.64499  1.0000
  Fe  Fe82      1.0  0.17191  0.70134  0.66376  1.0000
  S   S159      1.0  0.20946  0.72291  0.66208  1.0000
  Fe  Fe83      1.0  0.11499  0.69287  0.66173  1.0000
  S   S160      1.0  0.07713  0.70922  0.65424  1.0000
  S   S161      1.0  0.17757  0.66104  0.67266  1.0000
  S   S162      1.0  0.11774  0.65294  0.67067  1.0000
  H   H884      1.0  0.28567  0.76845  0.60599  1.0000
  C   C506      1.0  0.01874  0.67700  0.67961  1.0000
  S   S163      1.0  0.10791  0.51996  0.55760  1.0000
  C   C507      1.0  0.08913  0.58152  0.62651  1.0000
  H   H885      1.0  0.13469  0.62779  0.74284  1.0000
  Fe  Fe84      1.0  0.13956  0.52606  0.57310  1.0000
  S   S164      1.0  0.14416  0.56652  0.57966  1.0000
  H   H886      1.0  0.05234  0.59284  0.61973  1.0000
  H   H887      1.0  0.05456  0.56191  0.62741  1.0000
  H   H888      1.0  0.30483  0.82044  0.59339  1.0000
  H   H889      1.0  0.22192  0.84690  0.69619  1.0000
  C   C508      1.0  0.46827  0.94047  0.51711  1.0000
  C   C509      1.0  0.36120  0.81625  0.60768  1.0000
  H   H890      1.0  0.08590  0.58401  0.63890  1.0000
  H   H891      1.0  0.30576  0.77252  0.62743  1.0000
  H   H892      1.0  0.37532  0.83128  0.60693  1.0000
  C   C510      1.0  0.15381  0.59947  0.62662  1.0000
  C   C511      1.0  0.14949  0.61499  0.61349  1.0000
  C   C512      1.0  0.14712  0.60460  0.59922  1.0000
  C   C513      1.0  0.14857  0.57857  0.59788  1.0000
  C   C514      1.0  0.15273  0.56304  0.61103  1.0000
  C   C515      1.0  0.15555  0.57345  0.62524  1.0000
  H   H893      1.0  0.14827  0.63502  0.61428  1.0000
  H   H894      1.0  0.14402  0.61686  0.58915  1.0000
  H   H895      1.0  0.15402  0.54301  0.61023  1.0000
  H   H896      1.0  0.15899  0.56120  0.63526  1.0000
  C   C516      1.0  0.30736  0.80298  0.60081  1.0000
  C   C517      1.0  0.02581  0.71473  0.65651  1.0000
  C   C518      1.0  0.04682  0.70153  0.66216  1.0000
  C   C519      1.0  0.04308  0.68257  0.67375  1.0000
  N   N38       1.0  0.49285  0.95397  0.51512  1.0000
  H   H897      1.0  0.02847  0.72961  0.64767  1.0000
  H   H898      1.0  0.05900  0.67232  0.67828  1.0000
  C   C520      1.0  0.15892  0.64892  0.72677  1.0000
  H   H899      1.0  0.35159  0.79732  0.63996  1.0000
  H   H900      1.0  0.22323  0.60977  0.70424  1.0000
  H   H901      1.0  0.26678  0.79675  0.60534  1.0000
  C   C521      1.0  0.18228  0.66008  0.72451  1.0000
  H   H902      1.0  0.31274  0.78482  0.70454  1.0000
  N   N39       1.0  0.31512  0.80879  0.61651  1.0000
  H   H903      1.0  0.18729  0.66963  0.71359  1.0000
  C   C522      1.0  0.29447  0.78239  0.69929  1.0000
  C   C523      1.0  0.24640  0.80133  0.65952  1.0000
  C   C524      1.0  0.22026  0.79920  0.65910  1.0000
  C   C525      1.0  0.20860  0.77558  0.66001  1.0000
  C   C526      1.0  0.22294  0.75351  0.66109  1.0000
  C   C527      1.0  0.24914  0.75567  0.66140  1.0000
  C   C528      1.0  0.26077  0.77930  0.66073  1.0000
  H   H904      1.0  0.20883  0.81599  0.65808  1.0000
  H   H905      1.0  0.18850  0.77444  0.65969  1.0000
  H   H906      1.0  0.26052  0.73883  0.66220  1.0000
  H   H907      1.0  0.28084  0.78039  0.66099  1.0000
  C   C529      1.0  0.31736  0.97358  0.66178  1.0000
  H   H908      1.0  0.49145  0.81378  0.64222  1.0000
  C   C530      1.0  0.31847  0.97594  0.67753  1.0000
  H   H909      1.0  0.29536  0.85982  0.61507  1.0000
  H   H910      1.0  0.32055  0.95937  0.68514  1.0000
  C   C531      1.0  0.40710  0.85468  0.62895  1.0000
  C   C532      1.0  0.42493  0.84042  0.62097  1.0000
  C   C533      1.0  0.44151  0.85180  0.60975  1.0000
  C   C534      1.0  0.44061  0.87771  0.60645  1.0000
  C   C535      1.0  0.42275  0.89191  0.61442  1.0000
  C   C536      1.0  0.40608  0.88053  0.62556  1.0000
  H   H911      1.0  0.42585  0.82040  0.62343  1.0000
  H   H912      1.0  0.45492  0.84054  0.60364  1.0000
  H   H913      1.0  0.42181  0.91194  0.61197  1.0000
  H   H914      1.0  0.39248  0.89179  0.63154  1.0000
  H   H915      1.0  0.21662  0.76397  0.69674  1.0000
  C   C537      1.0  0.37517  0.84407  0.72389  1.0000
  C   C538      1.0  0.34977  0.84451  0.72814  1.0000
  C   C539      1.0  0.23459  0.76914  0.70155  1.0000
  H   H916      1.0  0.38110  0.84902  0.71216  1.0000
  C   C540      1.0  0.28196  0.84433  0.61720  1.0000
  H   H917      1.0  0.07964  0.50461  0.61021  1.0000
  C   C541      1.0  0.02084  0.53193  0.56288  1.0000
  H   H918      1.0  0.48002  0.99396  0.54474  1.0000
  H   H919      1.0  0.24927  0.76389  0.69311  1.0000
  C   C542      1.0  0.19923  0.65882  0.73643  1.0000
  H   H920      1.0  0.05014  0.54490  0.51176  1.0000
  C   C543      1.0  0.48722  0.83316  0.64537  1.0000
  S   S165      1.0  0.16586  0.50157  0.55952  1.0000
  H   H921      1.0  0.09639  0.52284  0.62227  1.0000
  H   H922      1.0  0.34112  0.83366  0.62602  1.0000
  C   C544      1.0  0.28340  0.80594  0.73406  1.0000
  C   C545      1.0  0.06408  0.52947  0.51286  1.0000
  H   H923      1.0  0.03287  0.52419  0.60432  1.0000
  H   H924      1.0  0.23680  0.83734  0.72197  1.0000
  H   H925      1.0  0.32062  0.79660  0.64882  1.0000
  C   C546      1.0  0.00592  0.66610  0.62784  1.0000
  H   H926      1.0  0.06738  0.52105  0.50176  1.0000
  H   H927      1.0  0.10307  0.56626  0.62543  1.0000
  H   H928      1.0  0.01621  0.66242  0.68864  1.0000
  H   H929      1.0  0.27327  0.84028  0.60640  1.0000
  H   H930      1.0  0.36918  0.80049  0.61481  1.0000
  C   C547      1.0  0.27917  0.80714  0.69908  1.0000
  H   H931      1.0  0.28521  0.76583  0.70491  1.0000
  H   H932      1.0  0.29270  0.82194  0.70118  1.0000
  H   H933      1.0  0.21712  0.80150  0.71071  1.0000
  H   H934      1.0  0.06265  0.52400  0.62255  1.0000
  H   H935      1.0  0.27348  0.81155  0.68716  1.0000
  H   H936      1.0  0.20677  0.61040  0.72222  1.0000
  C   C548      1.0  0.24146  0.85147  0.69856  1.0000
  H   H937      1.0  0.31336  0.99390  0.63993  1.0000
  H   H938      1.0  0.13032  0.59689  0.70546  1.0000
  H   H939      1.0  0.21367  0.58093  0.71461  1.0000
  H   H940      1.0  0.23073  0.80626  0.69192  1.0000
  H   H941      1.0  0.45744  0.97466  0.53736  1.0000
  H   H942      1.0  0.05452  0.51961  0.53657  1.0000
  H   H943      1.0  0.23616  0.75779  0.71249  1.0000
  H   H944      1.0  0.15491  0.56485  0.71846  1.0000
  C   C549      1.0  0.02541  0.64460  0.62776  1.0000
  C   C550      1.0  0.20817  0.60051  0.71148  1.0000
  H   H945      1.0  0.01075  0.67943  0.61792  1.0000
  C   C551      1.0  0.48749  0.89813  0.63733  1.0000
  H   H946      1.0  0.16822  0.60208  0.71274  1.0000
  H   H947      1.0  0.45234  0.95368  0.51508  1.0000
  C   C552      1.0  0.47487  0.98500  0.53429  1.0000
  H   H948      1.0  0.00987  0.67638  0.63809  1.0000
  C   C553      1.0  0.15271  0.63651  0.74102  1.0000
  C   C554      1.0  0.33366  0.78724  0.64088  1.0000
  H   H949      1.0  0.47710  0.83209  0.65669  1.0000
  H   H950      1.0  0.41264  0.83768  0.73160  1.0000
  H   H951      1.0  0.32230  0.79225  0.59489  1.0000
  H   H952      1.0  0.30062  0.82707  0.63626  1.0000
  C   C555      1.0  0.32232  0.78467  0.62517  1.0000
  H   H953      1.0  0.17491  0.49988  0.50457  1.0000
  C   C556      1.0  0.46456  0.91831  0.50714  1.0000
  C   C557      1.0  0.07968  0.52316  0.61514  1.0000
  H   H954      1.0  0.02525  0.63342  0.63887  1.0000
  H   H955      1.0  0.00108  0.64276  0.59846  1.0000
  H   H956      1.0  0.02127  0.54569  0.61830  1.0000
  N   N40       1.0  0.17868  0.58437  0.69171  1.0000
  C   C558      1.0  0.19848  0.58878  0.67910  1.0000
  C   C559      1.0  0.18294  0.60287  0.70355  1.0000
  C   C560      1.0  0.15378  0.59014  0.68471  1.0000
  C   C561      1.0  0.18032  0.55754  0.69802  1.0000
  C   C562      1.0  0.19957  0.56994  0.66646  1.0000
  H   H957      1.0  0.12742  0.56590  0.69839  1.0000
  C   C563      1.0  0.13030  0.58602  0.69518  1.0000
  C   C564      1.0  0.16898  0.55138  0.71435  1.0000
  H   H958      1.0  0.19638  0.60787  0.67337  1.0000
  H   H959      1.0  0.21748  0.58807  0.68373  1.0000
  H   H960      1.0  0.18395  0.54902  0.72276  1.0000
  H   H961      1.0  0.18154  0.62235  0.69835  1.0000
  H   H962      1.0  0.15310  0.60993  0.67997  1.0000
  H   H963      1.0  0.15093  0.57869  0.67487  1.0000
  H   H964      1.0  0.17150  0.54509  0.69015  1.0000
  H   H965      1.0  0.20028  0.55149  0.69843  1.0000
  H   H966      1.0  0.21413  0.57602  0.65769  1.0000
  H   H967      1.0  0.20492  0.55088  0.67098  1.0000
  H   H968      1.0  0.18201  0.56911  0.66033  1.0000
  H   H969      1.0  0.25347  0.84936  0.68819  1.0000
  H   H970      1.0  0.30097  0.80644  0.72698  1.0000
  H   H971      1.0  0.26489  0.77536  0.72511  1.0000
  H   H972      1.0  0.44477  0.91240  0.50833  1.0000
  C   C565      1.0  0.37131  0.99418  0.62913  1.0000
  H   H973      1.0  0.11377  0.59272  0.68874  1.0000
  H   H974      1.0  0.15962  0.53300  0.71467  1.0000
  H   H975      1.0  0.02312  0.63205  0.61847  1.0000
  H   H976      1.0  0.48543  0.87074  0.62105  1.0000
  C   C566      1.0  0.28343  0.78741  0.60031  1.0000
  C   C567      1.0  0.29405  0.82095  0.62528  1.0000
  H   H977      1.0  0.27944  0.78486  0.58818  1.0000
  H   H978      1.0  0.29909  0.77786  0.68732  1.0000
  C   C568      1.0  0.33672  0.82659  0.61481  1.0000
  H   H979      1.0  0.33581  0.77369  0.61824  1.0000
  H   H980      1.0  0.02452  0.54944  0.55637  1.0000
  H   H981      1.0  0.35895  0.81073  0.59587  1.0000
  H   H982      1.0  0.26676  0.85131  0.62485  1.0000
  H   H983      1.0  0.47861  0.88736  0.64727  1.0000
  H   H984      1.0  0.36337  0.97812  0.63633  1.0000
  H   H985      1.0  0.33181  0.84358  0.60751  1.0000
  H   H986      1.0  0.24158  0.87154  0.70097  1.0000
  C   C569      1.0  0.04060  0.51765  0.56894  1.0000
  H   H987      1.0  0.33764  0.76831  0.64623  1.0000
  H   H988      1.0  0.08200  0.53798  0.51564  1.0000
  H   H989      1.0  0.38745  0.98662  0.62252  1.0000
  H   H990      1.0  0.27895  0.80741  0.62865  1.0000
  H   H991      1.0  0.26793  0.84529  0.71601  1.0000
  C   C570      1.0  0.99640  0.52333  0.56493  1.0000
  C   C571      1.0  0.05674  0.50979  0.52580  1.0000
  N   N41       1.0  0.06629  0.56716  0.60330  1.0000
  C   C572      1.0  0.07822  0.58817  0.59335  1.0000
  C   C573      1.0  0.06422  0.57565  0.61937  1.0000
  C   C574      1.0  0.04043  0.56373  0.59766  1.0000
  C   C575      1.0  0.08209  0.54377  0.60194  1.0000
  C   C576      1.0  0.08007  0.58474  0.57600  1.0000
  C   C577      1.0  0.02461  0.54293  0.60599  1.0000
  C   C578      1.0  0.16161  0.49916  0.49564  1.0000
  H   H992      1.0  0.06823  0.60624  0.59494  1.0000
  H   H993      1.0  0.09766  0.59107  0.59670  1.0000
  H   H994      1.0  0.02944  0.58152  0.59799  1.0000
  H   H995      1.0  0.04127  0.55913  0.58553  1.0000
  H   H996      1.0  0.07836  0.53494  0.59114  1.0000
  H   H997      1.0  0.10224  0.54864  0.60099  1.0000
  H   H998      1.0  0.06177  0.58768  0.57063  1.0000
  H   H999      1.0  0.09286  0.59904  0.57043  1.0000
  H   H1000     1.0  0.08807  0.56630  0.57335  1.0000
  H   H1001     1.0  0.09712  0.59929  0.62141  1.0000
  H   H1002     1.0  0.46552  0.93251  0.52915  1.0000
  H   H1003     1.0  0.04434  0.65279  0.62617  1.0000
  H   H1004     1.0  0.21727  0.66748  0.73458  1.0000
  H   H1005     1.0  0.30031  0.68548  0.73428  1.0000
  C   C579      1.0  0.00145  0.70916  0.66238  1.0000
  H   H1006     1.0  0.47366  0.84183  0.63741  1.0000
  N   N42       1.0  0.25686  0.80838  0.71007  1.0000
  C   C580      1.0  0.25105  0.83558  0.71249  1.0000
  C   C581      1.0  0.26145  0.79566  0.72559  1.0000
  C   C582      1.0  0.23412  0.79745  0.70353  1.0000
  C   C583      1.0  0.39300  0.83759  0.73493  1.0000
  C   C584      1.0  0.31453  0.99546  0.65211  1.0000
  H   H1007     1.0  0.07340  0.49769  0.52750  1.0000
  H   H1008     1.0  0.01330  0.52561  0.51188  1.0000
  H   H1009     1.0  0.28382  0.65767  0.74114  1.0000
  H   H1010     1.0  0.01211  0.52592  0.53208  1.0000
  H   H1011     1.0  0.47549  0.98537  0.50268  1.0000
  H   H1012     1.0  0.47227  0.90866  0.63137  1.0000
  C   C585      1.0  0.99774  0.69014  0.67393  1.0000
  C   C586      1.0  0.49246  0.97328  0.50180  1.0000
  H   H1013     1.0  0.99875  0.66907  0.73509  1.0000
  C   C587      1.0  0.01194  0.51319  0.52256  1.0000
  H   H1014     1.0  0.00600  0.54304  0.60080  1.0000
  H   H1015     1.0  0.27920  0.82489  0.73791  1.0000
  H   H1016     1.0  0.29568  0.72546  0.74237  1.0000
  H   H1017     1.0  0.47588  0.90193  0.51120  1.0000
  H   H1018     1.0  0.28679  0.79367  0.74450  1.0000
  C   C588      1.0  0.34242  0.83810  0.74346  1.0000
  C   C589      1.0  0.28989  0.67633  0.74427  1.0000
  H   H1019     1.0  0.24440  0.79702  0.73321  1.0000
  Fe  Fe85      1.0  0.49612  0.88425  0.57777  1.0000
  Fe  Fe86      1.0  0.40224  0.81103  0.78880  1.0000
  S   S166      1.0  0.40387  0.77026  0.79679  1.0000
  S   S167      1.0  0.40893  0.82527  0.76391  1.0000
  Fe  Fe87      1.0  0.39890  0.82845  0.82200  1.0000
  S   S168      1.0  0.39898  0.78861  0.83200  1.0000
  S   S169      1.0  0.40967  0.86353  0.83387  1.0000
  Fe  Fe88      1.0  0.43016  0.78211  0.81452  1.0000
  S   S170      1.0  0.46661  0.76390  0.82279  1.0000
  Fe  Fe89      1.0  0.37251  0.78001  0.81342  1.0000
  S   S171      1.0  0.33393  0.76078  0.81444  1.0000
  S   S172      1.0  0.43071  0.82174  0.80521  1.0000
  S   S173      1.0  0.37028  0.82088  0.80461  1.0000
  C   C590      1.0  0.44302  0.89228  0.79322  1.0000
  S   S174      1.0  0.41768  0.99141  0.88054  1.0000
  S   S175      1.0  0.42507  0.95223  0.91086  1.0000
  H   H1020     1.0  0.47694  0.96631  0.99022  1.0000
  Fe  Fe90      1.0  0.39431  0.96437  0.89539  1.0000
  S   S176      1.0  0.37038  0.93412  0.88620  1.0000
  H   H1021     1.0  0.38691  0.91058  0.95330  1.0000
  H   H1022     1.0  0.26189  0.63620  0.87664  1.0000
  C   C591      1.0  0.48379  0.95203  0.93269  1.0000
  Fe  Fe91      1.0  0.21961  0.58431  0.81282  1.0000
  S   S177      1.0  0.18488  0.60348  0.80364  1.0000
  S   S178      1.0  0.22401  0.54242  0.82005  1.0000
  Fe  Fe92      1.0  0.24594  0.63537  0.81663  1.0000
  S   S179      1.0  0.21258  0.65703  0.80823  1.0000
  S   S180      1.0  0.28310  0.65238  0.82332  1.0000
  Fe  Fe93      1.0  0.18877  0.62935  0.82273  1.0000
  S   S181      1.0  0.15703  0.64541  0.83769  1.0000
  Fe  Fe94      1.0  0.21165  0.62942  0.78998  1.0000
  S   S182      1.0  0.21531  0.64520  0.76514  1.0000
  S   S183      1.0  0.22230  0.60938  0.83243  1.0000
  S   S184      1.0  0.24612  0.60851  0.79796  1.0000
  Fe  Fe95      1.0  0.02126  0.62220  0.93198  1.0000
  S   S185      1.0  0.04419  0.58723  0.92936  1.0000
  H   H1023     1.0  0.35042  0.91353  0.91743  1.0000
  H   H1024     1.0  0.49149  0.93672  0.92590  1.0000
  H   H1025     1.0  0.27701  0.63157  0.85857  1.0000
  C   C592      1.0  0.07294  0.62739  0.83666  1.0000
  Fe  Fe96      1.0  0.05421  0.60316  0.90533  1.0000
  S   S186      1.0  0.09200  0.59367  0.89363  1.0000
  S   S187      1.0  0.03358  0.63958  0.90839  1.0000
  H   H1026     1.0  0.35672  0.89743  0.96865  1.0000
  C   C593      1.0  0.02464  0.51774  0.90410  1.0000
  H   H1027     1.0  0.03486  0.53489  0.90440  1.0000
  C   C594      1.0  0.02395  0.62967  0.97425  1.0000
  H   H1028     1.0  0.39440  0.93043  0.93720  1.0000
  H   H1029     1.0  0.03029  0.67068  0.82533  1.0000
  C   C595      1.0  0.08549  0.64851  0.82641  1.0000
  H   H1030     1.0  0.42049  0.86592  0.78282  1.0000
  H   H1031     1.0  0.48711  0.79556  0.79684  1.0000
  H   H1032     1.0  0.00346  0.65454  0.82126  1.0000
  H   H1033     1.0  0.16465  0.62574  0.76387  1.0000
  H   H1034     1.0  0.34188  0.93664  0.97254  1.0000
  C   C596      1.0  0.22004  0.51415  0.81084  1.0000
  H   H1035     1.0  0.14971  0.50702  0.82336  1.0000
  C   C597      1.0  0.32483  0.94387  0.92021  1.0000
  H   H1036     1.0  0.21041  0.53137  0.78897  1.0000
  C   C598      1.0  0.13956  0.63060  0.85336  1.0000
  C   C599      1.0  0.12267  0.64508  0.86186  1.0000
  C   C600      1.0  0.10818  0.63418  0.87428  1.0000
  C   C601      1.0  0.11017  0.60854  0.87826  1.0000
  C   C602      1.0  0.12738  0.59416  0.86992  1.0000
  C   C603      1.0  0.14196  0.60507  0.85753  1.0000
  H   H1037     1.0  0.12088  0.66491  0.85888  1.0000
  H   H1038     1.0  0.09556  0.64560  0.88086  1.0000
  H   H1039     1.0  0.12933  0.57437  0.87299  1.0000
  H   H1040     1.0  0.15494  0.59367  0.85118  1.0000
  C   C604      1.0  0.36015  0.89893  0.80466  1.0000
  C   C605      1.0  0.38565  0.83125  0.75026  1.0000
  C   C606      1.0  0.30652  0.67287  0.75826  1.0000
  C   C607      1.0  0.04742  0.61516  0.85962  1.0000
  C   C608      1.0  0.38735  0.89116  0.80082  1.0000
  H   H1041     1.0  0.25950  0.67247  0.88980  1.0000
  H   H1042     1.0  0.48288  0.80153  0.86398  1.0000
  H   H1043     1.0  0.35622  0.91875  0.80108  1.0000
  C   C609      1.0  0.32030  0.73042  0.81729  1.0000
  C   C610      1.0  0.33390  0.70900  0.82211  1.0000
  C   C611      1.0  0.32210  0.68548  0.82411  1.0000
  C   C612      1.0  0.29667  0.68282  0.82109  1.0000
  C   C613      1.0  0.28308  0.70423  0.81623  1.0000
  C   C614      1.0  0.29477  0.72779  0.81448  1.0000
  H   H1044     1.0  0.35348  0.71057  0.82439  1.0000
  H   H1045     1.0  0.33290  0.66917  0.82789  1.0000
  H   H1046     1.0  0.26361  0.70266  0.81374  1.0000
  H   H1047     1.0  0.28398  0.74416  0.81078  1.0000
  C   C615      1.0  0.30501  0.73469  0.75144  1.0000
  C   C616      1.0  0.36022  0.83134  0.75446  1.0000
  H   H1048     1.0  0.02951  0.65683  0.87359  1.0000
  H   H1049     1.0  0.35431  0.82664  0.76622  1.0000
  H   H1050     1.0  0.06892  0.61210  0.82916  1.0000
  C   C617      1.0  0.37977  0.88872  0.77377  1.0000
  Fe  Fe97      1.0  0.44755  0.98097  0.89702  1.0000
  C   C618      1.0  0.35675  0.94712  0.96585  1.0000
  C   C619      1.0  0.48866  0.97775  0.98176  1.0000
  C   C620      1.0  0.39812  0.88241  0.84865  1.0000
  C   C621      1.0  0.37457  0.87912  0.85591  1.0000
  C   C622      1.0  0.36632  0.89506  0.86735  1.0000
  C   C623      1.0  0.38152  0.91435  0.87175  1.0000
  C   C624      1.0  0.40508  0.91754  0.86451  1.0000
  C   C625      1.0  0.41323  0.90176  0.85301  1.0000
  H   H1051     1.0  0.36268  0.86439  0.85268  1.0000
  H   H1052     1.0  0.34805  0.89241  0.87283  1.0000
  H   H1053     1.0  0.41702  0.93224  0.86773  1.0000
  H   H1054     1.0  0.43146  0.90455  0.84751  1.0000
  C   C626      1.0  0.25852  0.63449  0.86443  1.0000
  S   S188      1.0  0.48563  0.96951  0.88822  1.0000
  C   C627      1.0  0.35193  0.94861  0.94862  1.0000
  C   C628      1.0  0.04273  0.61186  0.97754  1.0000
  C   C629      1.0  0.16964  0.63532  0.75296  1.0000
  H   H1055     1.0  0.24464  0.68621  0.78356  1.0000
  H   H1056     1.0  0.47922  0.87128  0.83579  1.0000
  H   H1057     1.0  0.16857  0.66475  0.87162  1.0000
  H   H1058     1.0  0.06192  0.61801  0.86801  1.0000
  C   C630      1.0  0.34316  0.88917  0.96135  1.0000
  H   H1059     1.0  0.04165  0.51637  0.94043  1.0000
  H   H1060     1.0  0.45961  0.88041  0.79061  1.0000
  H   H1061     1.0  0.06062  0.54291  0.99289  1.0000
  H   H1062     1.0  0.10067  0.64028  0.81927  1.0000
  N   N43       1.0  0.35472  0.92464  0.94059  1.0000
  H   H1063     1.0  0.37542  0.93939  0.96860  1.0000
  C   C631      1.0  0.38137  0.91533  0.94143  1.0000
  H   H1064     1.0  0.05570  0.67439  0.84309  1.0000
  C   C632      1.0  0.01119  0.64037  0.98663  1.0000
  H   H1065     1.0  0.31133  0.66711  0.78873  1.0000
  H   H1066     1.0  0.44918  0.91192  0.79143  1.0000
  H   H1067     1.0  0.43768  0.88750  0.80539  1.0000
  H   H1068     1.0  0.07426  0.52049  0.94208  1.0000
  H   H1069     1.0  0.34680  0.88668  0.79945  1.0000
  Fe  Fe98      1.0  0.41312  0.98311  0.92600  1.0000
  H   H1070     1.0  0.38979  0.89792  0.91973  1.0000
  H   H1071     1.0  0.07253  0.65848  0.81856  1.0000
  H   H1072     1.0  0.32607  0.88546  0.96868  1.0000
  H   H1073     1.0  0.09461  0.66206  0.83337  1.0000
  H   H1074     1.0  0.35011  0.87053  0.95818  1.0000
  C   C633      1.0  0.42241  0.88663  0.78226  1.0000
  H   H1075     1.0  0.38873  0.87053  0.80292  1.0000
  H   H1076     1.0  0.35666  0.89643  0.81726  1.0000
  H   H1077     1.0  0.30869  0.93414  0.92606  1.0000
  H   H1078     1.0  0.35569  0.67170  0.79184  1.0000
  H   H1079     1.0  0.27061  0.67097  0.79235  1.0000
  H   H1080     1.0  0.33222  0.89217  0.93810  1.0000
  H   H1081     1.0  0.38951  0.94927  0.80161  1.0000
  H   H1082     1.0  0.26239  0.66399  0.77335  1.0000
  S   S189      1.0  0.41581  0.97066  0.95181  1.0000
  H   H1083     1.0  0.28093  0.71490  0.78316  1.0000
  C   C634      1.0  0.02665  0.63265  0.83707  1.0000
  H   H1084     1.0  0.37179  0.88730  0.74971  1.0000
  C   C635      1.0  0.41268  0.98227  0.97058  1.0000
  C   C636      1.0  0.05282  0.65945  0.85229  1.0000
  H   H1085     1.0  0.35893  0.69432  0.77612  1.0000
  C   C637      1.0  0.04905  0.58735  0.85595  1.0000
  C   C638      1.0  0.03109  0.66840  0.86265  1.0000
  H   H1086     1.0  0.03312  0.64511  0.81288  1.0000
  Fe  Fe99      1.0  0.00970  0.57329  0.91937  1.0000
  H   H1087     1.0  0.41154  0.93183  0.77199  1.0000
  H   H1088     1.0  0.40646  0.88481  0.93558  1.0000
  C   C639      1.0  0.06006  0.50685  0.93922  1.0000
  H   H1089     1.0  0.31769  0.91480  0.94952  1.0000
  H   H1090     1.0  0.33270  0.95645  0.94772  1.0000
  H   H1091     1.0  0.35099  0.66218  0.77309  1.0000
  H   H1092     1.0  0.47006  0.94382  0.94131  1.0000
  H   H1093     1.0  0.46930  0.83912  0.83873  1.0000
  N   N44       1.0  0.04989  0.63411  0.84610  1.0000
  N   N45       1.0  0.30625  0.69357  0.76909  1.0000
  C   C640      1.0  0.32000  0.68425  0.78311  1.0000
  C   C641      1.0  0.28019  0.70073  0.77446  1.0000
  C   C642      1.0  0.31983  0.71630  0.76204  1.0000
  Fe  Fe100     1.0  0.99992  0.62091  0.89924  1.0000
  H   H1094     1.0  0.03357  0.58206  0.84886  1.0000
  C   C643      1.0  0.33596  0.90555  0.94692  1.0000
  H   H1095     1.0  0.32576  0.66972  0.75350  1.0000
  C   C644      1.0  0.41909  0.96642  0.98337  1.0000
  H   H1096     1.0  0.06728  0.58231  0.85050  1.0000
  H   H1097     1.0  0.31896  0.69849  0.79176  1.0000
  H   H1098     1.0  0.26934  0.71005  0.76517  1.0000
  C   C645      1.0  0.34991  0.93074  0.92388  1.0000
  H   H1099     1.0  0.32666  0.72781  0.77115  1.0000
  H   H1100     1.0  0.05062  0.50193  0.88791  1.0000
  H   H1101     1.0  0.46622  0.96458  0.96417  1.0000
  H   H1102     1.0  0.32220  0.94390  0.90769  1.0000
  H   H1103     1.0  0.43029  0.89196  0.77061  1.0000
  C   C646      1.0  0.48642  0.96743  0.96584  1.0000
  C   C647      1.0  0.26388  0.67903  0.78130  1.0000
  C   C648      1.0  0.03360  0.49906  0.89481  1.0000
  H   H1104     1.0  0.47419  0.96521  0.92449  1.0000
  C   C649      1.0  0.21336  0.51388  0.79558  1.0000
  H   H1105     1.0  0.49458  0.94819  0.96689  1.0000
  H   H1106     1.0  0.05301  0.60368  0.96822  1.0000
  H   H1107     1.0  0.01304  0.66892  0.85688  1.0000
  H   H1108     1.0  0.40384  0.88199  0.75336  1.0000
  H   H1109     1.0  0.30187  0.65454  0.76439  1.0000
  C   C650      1.0  0.19300  0.64648  0.75070  1.0000
  N   N46       1.0  0.22188  0.66729  0.86402  1.0000
  C   C651      1.0  0.20797  0.68217  0.85171  1.0000
  C   C652      1.0  0.20544  0.64572  0.86970  1.0000
  C   C653      1.0  0.24595  0.65788  0.85673  1.0000
  C   C654      1.0  0.22714  0.68444  0.87640  1.0000
  C   C655      1.0  0.22218  0.70422  0.84333  1.0000
  C   C656      1.0  0.18126  0.65271  0.87864  1.0000
  C   C657      1.0  0.23879  0.67245  0.89098  1.0000
  H   H1110     1.0  0.20247  0.66979  0.84274  1.0000
  H   H1111     1.0  0.19028  0.69025  0.85634  1.0000
  H   H1112     1.0  0.21527  0.63193  0.87737  1.0000
  H   H1113     1.0  0.20004  0.63489  0.85994  1.0000
  H   H1114     1.0  0.24287  0.65302  0.84483  1.0000
  H   H1115     1.0  0.26028  0.67279  0.85563  1.0000
  H   H1116     1.0  0.24035  0.69926  0.87198  1.0000
  H   H1117     1.0  0.21010  0.69517  0.87983  1.0000
  H   H1118     1.0  0.21053  0.71251  0.83403  1.0000
  H   H1119     1.0  0.22563  0.71930  0.85100  1.0000
  H   H1120     1.0  0.23999  0.69818  0.83781  1.0000
  S   S190      1.0  0.01710  0.64065  0.95504  1.0000
  H   H1121     1.0  0.02555  0.61405  0.83228  1.0000
  H   H1122     1.0  0.04161  0.52103  0.98358  1.0000
  H   H1123     1.0  0.29108  0.74549  0.75811  1.0000
  H   H1124     1.0  0.23239  0.65326  0.89418  1.0000
  H   H1125     1.0  0.23294  0.68340  0.90085  1.0000
  N   N47       1.0  0.39723  0.89891  0.78490  1.0000
  C   C658      1.0  0.38726  0.89334  0.75664  1.0000
  H   H1126     1.0  0.49231  0.84374  0.86099  1.0000
  C   C659      1.0  0.39857  0.92694  0.78193  1.0000
  H   H1127     1.0  0.41629  0.95913  0.79060  1.0000
  H   H1128     1.0  0.32285  0.83861  0.74690  1.0000
  C   C660      1.0  0.40628  0.94218  0.79534  1.0000
  H   H1129     1.0  0.39872  0.89851  0.80971  1.0000
  H   H1130     1.0  0.36453  0.96313  0.94300  1.0000
  H   H1131     1.0  0.35620  0.96639  0.96983  1.0000
  H   H1132     1.0  0.37989  0.93452  0.77870  1.0000
  C   C661      1.0  0.04171  0.53915  0.98897  1.0000
  H   H1133     1.0  0.07000  0.65966  0.85898  1.0000
  H   H1134     1.0  0.08793  0.61989  0.84422  1.0000
  H   H1135     1.0  0.04754  0.57551  0.86682  1.0000
  H   H1136     1.0  0.36496  0.94274  0.91845  1.0000
  C   C662      1.0  0.02367  0.65182  0.82336  1.0000
  H   H1137     1.0  0.36073  0.89703  0.77506  1.0000
  H   H1138     1.0  0.41883  0.93242  0.80353  1.0000
  H   H1139     1.0  0.37417  0.87735  0.93419  1.0000
  H   H1140     1.0  0.33685  0.71062  0.75538  1.0000
  C   C663      1.0  0.00329  0.51360  0.91352  1.0000
  H   H1141     1.0  0.24764  0.61741  0.86299  1.0000
  H   H1142     1.0  0.37747  0.86816  0.77615  1.0000
  S   S191      1.0  0.38009  0.99354  0.91138  1.0000
  H   H1143     1.0  0.42580  0.94766  0.98166  1.0000
  H   H1144     1.0  0.32486  0.96378  0.92294  1.0000
  C   C664      1.0  0.34797  0.67786  0.78059  1.0000
  H   H1145     1.0  0.18516  0.66171  0.88929  1.0000
  S   S192      1.0  0.02135  0.58556  0.89544  1.0000
  H   H1146     1.0  0.17085  0.63532  0.88207  1.0000
  C   C665      1.0  0.38798  0.89248  0.93218  1.0000
  H   H1147     1.0  0.03476  0.68775  0.86568  1.0000
  H   H1148     1.0  0.46243  0.99186  0.94222  1.0000
  H   H1149     1.0  0.00938  0.63338  0.84455  1.0000
  C   C666      1.0  0.48087  0.85243  0.83137  1.0000
  H   H1150     1.0  0.02933  0.61754  0.86601  1.0000
  C   C667      1.0  0.04899  0.60547  0.99286  1.0000
  H   H1151     1.0  0.03741  0.55384  0.97985  1.0000
  H   H1152     1.0  0.47254  0.85353  0.81993  1.0000
  H   H1153     1.0  0.06382  0.50296  0.92709  1.0000
  H   H1154     1.0  0.39051  0.91334  0.75328  1.0000
  H   H1155     1.0  0.49462  0.80068  0.84505  1.0000
  H   H1156     1.0  0.27225  0.68666  0.74637  1.0000
  H   H1157     1.0  0.00081  0.63980  0.74556  1.0000
  H   H1158     1.0  0.99671  0.65423  0.98431  1.0000
  H   H1159     1.0  0.31810  0.74855  0.74571  1.0000
  C   C668      1.0  0.69431  0.09156  0.22734  1.0000
  C   C669      1.0  0.51888  0.01858  0.04952  1.0000
  S   S193      1.0  0.61896  0.02590  0.06963  1.0000
  H   H1160     1.0  0.97617  0.43141  0.08989  1.0000
  H   H1161     1.0  0.49732  0.06352  0.04784  1.0000
  C   C670      1.0  0.53623  0.00019  0.04124  1.0000
  Fe  Fe101     1.0  0.65365  0.02959  0.08301  1.0000
  S   S194      1.0  0.66538  0.06888  0.08836  1.0000
  H   H1162     1.0  0.78283  0.30961  0.19138  1.0000
  Fe  Fe102     1.0  0.67646  0.21029  0.16602  1.0000
  S   S195      1.0  0.68168  0.17197  0.17815  1.0000
  S   S196      1.0  0.71389  0.23166  0.16236  1.0000
  Fe  Fe103     1.0  0.61974  0.20123  0.16315  1.0000
  S   S197      1.0  0.62212  0.16349  0.17532  1.0000
  S   S198      1.0  0.58248  0.21272  0.15241  1.0000
  Fe  Fe104     1.0  0.64678  0.18095  0.19163  1.0000
  S   S199      1.0  0.63776  0.17009  0.21676  1.0000
  Fe  Fe105     1.0  0.65670  0.15711  0.16078  1.0000
  S   S200      1.0  0.65821  0.11667  0.15354  1.0000
  S   S201      1.0  0.64217  0.21985  0.18052  1.0000
  S   S202      1.0  0.65363  0.19443  0.14759  1.0000
  H   H1163     1.0  0.56181  0.02277  0.06445  1.0000
  N   N48       1.0  0.79432  0.28712  0.21156  1.0000
  S   S203      1.0  0.97849  0.34164  0.09593  1.0000
  Fe  Fe106     1.0  0.85135  0.35080  0.18278  1.0000
  S   S204      1.0  0.81667  0.37357  0.18682  1.0000
  S   S205      1.0  0.86787  0.32540  0.20176  1.0000
  Fe  Fe107     1.0  0.85311  0.36489  0.14816  1.0000
  S   S206      1.0  0.81771  0.38805  0.15020  1.0000
  S   S207      1.0  0.86920  0.36569  0.12357  1.0000
  Fe  Fe108     1.0  0.83480  0.40322  0.17066  1.0000
  S   S208      1.0  0.84218  0.44345  0.17672  1.0000
  Fe  Fe109     1.0  0.80286  0.35598  0.16602  1.0000
  S   S209      1.0  0.76301  0.34012  0.16590  1.0000
  S   S210      1.0  0.87073  0.38117  0.16799  1.0000
  S   S211      1.0  0.83697  0.33209  0.16256  1.0000
  C   C671      1.0  0.86790  0.33251  0.22125  1.0000
  C   C672      1.0  0.87739  0.31469  0.23210  1.0000
  C   C673      1.0  0.51039  0.06100  0.05741  1.0000
  C   C674      1.0  0.85825  0.35509  0.22619  1.0000
  H   H1164     1.0  0.88487  0.29715  0.22840  1.0000
  H   H1165     1.0  0.56375  0.04166  0.03841  1.0000
  H   H1166     1.0  0.85083  0.36895  0.21797  1.0000
  C   C675      1.0  0.81216  0.47766  0.16013  1.0000
  C   C676      1.0  0.83365  0.47349  0.16855  1.0000
  H   H1167     1.0  0.80091  0.46198  0.15761  1.0000
  H   H1168     1.0  0.60669  0.11748  0.21699  1.0000
  C   C677      1.0  0.94824  0.34905  0.10357  1.0000
  C   C678      1.0  0.93030  0.36166  0.09468  1.0000
  C   C679      1.0  0.90623  0.36640  0.10100  1.0000
  C   C680      1.0  0.89988  0.35909  0.11635  1.0000
  C   C681      1.0  0.91786  0.34668  0.12531  1.0000
  C   C682      1.0  0.94179  0.34143  0.11888  1.0000
  H   H1169     1.0  0.93482  0.36725  0.08282  1.0000
  H   H1170     1.0  0.89242  0.37580  0.09391  1.0000
  H   H1171     1.0  0.91324  0.34076  0.13710  1.0000
  H   H1172     1.0  0.95542  0.33143  0.12582  1.0000
  S   S212      1.0  0.67557  0.00211  0.06887  1.0000
  H   H1173     1.0  0.84568  0.27212  0.20474  1.0000
  C   C683      1.0  0.72701  0.26189  0.16419  1.0000
  C   C684      1.0  0.71238  0.28338  0.16615  1.0000
  C   C685      1.0  0.72372  0.30696  0.16678  1.0000
  C   C686      1.0  0.74987  0.30953  0.16570  1.0000
  C   C687      1.0  0.76456  0.28795  0.16412  1.0000
  C   C688      1.0  0.75321  0.26444  0.16323  1.0000
  H   H1174     1.0  0.69226  0.28192  0.16688  1.0000
  H   H1175     1.0  0.71205  0.32339  0.16802  1.0000
  H   H1176     1.0  0.78465  0.28937  0.16345  1.0000
  H   H1177     1.0  0.76480  0.24803  0.16174  1.0000
  C   C689      1.0  0.65947  0.16143  0.23092  1.0000
  C   C690      1.0  0.68521  0.16125  0.22770  1.0000
  H   H1178     1.0  0.51835  0.18540  0.19186  1.0000
  H   H1179     1.0  0.83818  0.25602  0.18844  1.0000
  N   N49       1.0  0.53075  0.04242  0.05372  1.0000
  H   H1180     1.0  0.69236  0.16730  0.21637  1.0000
  H   H1181     1.0  0.54588  0.07324  0.07728  1.0000
  H   H1182     1.0  0.70304  0.10873  0.22198  1.0000
  C   C691      1.0  0.55197  0.20362  0.15931  1.0000
  C   C692      1.0  0.53222  0.20450  0.14912  1.0000
  H   H1183     1.0  0.73080  0.27147  0.21181  1.0000
  H   H1184     1.0  0.83422  0.28903  0.18780  1.0000
  C   C693      1.0  0.54679  0.19621  0.17469  1.0000
  H   H1185     1.0  0.53596  0.21021  0.13720  1.0000
  H   H1186     1.0  0.56169  0.19547  0.18269  1.0000
  C   C694      1.0  0.66391  0.08168  0.10664  1.0000
  C   C695      1.0  0.65733  0.06732  0.12007  1.0000
  C   C696      1.0  0.65605  0.07830  0.13428  1.0000
  C   C697      1.0  0.66112  0.10381  0.13529  1.0000
  C   C698      1.0  0.66784  0.11816  0.12188  1.0000
  C   C699      1.0  0.66922  0.10715  0.10767  1.0000
  H   H1187     1.0  0.65330  0.04772  0.11952  1.0000
  H   H1188     1.0  0.65096  0.06693  0.14455  1.0000
  H   H1189     1.0  0.67212  0.13772  0.12245  1.0000
  H   H1190     1.0  0.67449  0.11843  0.09740  1.0000
  C   C700      1.0  0.65327  0.07220  0.19460  1.0000
  H   H1191     1.0  0.51814  0.07991  0.05848  1.0000
  H   H1192     1.0  0.98205  0.43563  0.13010  1.0000
  C   C701      1.0  0.53385  0.06045  0.02563  1.0000
  S   S213      1.0  0.99005  0.45230  0.05959  1.0000
  H   H1193     1.0  0.92369  0.40210  0.14319  1.0000
  H   H1194     1.0  0.98659  0.38579  0.11413  1.0000
  N   N50       1.0  0.95639  0.43003  0.11196  1.0000
  C   C702      1.0  0.95948  0.42251  0.09572  1.0000
  H   H1195     1.0  0.81122  0.31830  0.19830  1.0000
  C   C703      1.0  0.94954  0.45730  0.11245  1.0000
  C   C704      1.0  0.93577  0.41491  0.11999  1.0000
  C   C705      1.0  0.93727  0.42838  0.08533  1.0000
  C   C706      1.0  0.74815  0.27916  0.20610  1.0000
  C   C707      1.0  0.49913  0.25762  0.16986  1.0000
  C   C708      1.0  0.93026  0.41970  0.13698  1.0000
  H   H1196     1.0  0.79771  0.47500  0.22386  1.0000
  H   H1197     1.0  0.96322  0.40210  0.09549  1.0000
  H   H1198     1.0  0.82865  0.29954  0.22068  1.0000
  H   H1199     1.0  0.76239  0.28877  0.22763  1.0000
  H   H1200     1.0  0.93030  0.46098  0.10843  1.0000
  C   C709      1.0  0.70172  0.15300  0.23914  1.0000
  H   H1201     1.0  0.91778  0.41849  0.11428  1.0000
  H   H1202     1.0  0.93904  0.39461  0.11904  1.0000
  H   H1203     1.0  0.94239  0.42228  0.07374  1.0000
  H   H1204     1.0  0.92032  0.41794  0.08931  1.0000
  H   H1205     1.0  0.93295  0.44864  0.08391  1.0000
  H   H1206     1.0  0.54171  0.00756  0.02950  1.0000
  H   H1207     1.0  0.50479  0.05549  0.08255  1.0000
  H   H1208     1.0  0.75274  0.26757  0.19636  1.0000
  S   S214      1.0  0.98895  0.38193  0.05467  1.0000
  H   H1209     1.0  0.51785  0.04835  0.02383  1.0000
  C   C710      1.0  0.98097  0.42526  0.11958  1.0000
  H   H1210     1.0  0.51092  0.00806  0.05989  1.0000
  H   H1211     1.0  0.68074  0.09659  0.23654  1.0000
  C   C711      1.0  0.61908  0.10902  0.20822  1.0000
  N   N51       1.0  0.58576  0.13629  0.12744  1.0000
  C   C712      1.0  0.60938  0.14786  0.12040  1.0000
  C   C713      1.0  0.59141  0.10894  0.13121  1.0000
  C   C714      1.0  0.57916  0.14943  0.14182  1.0000
  C   C715      1.0  0.56544  0.14022  0.11610  1.0000
  C   C716      1.0  0.60838  0.17633  0.11638  1.0000
  C   C717      1.0  0.59645  0.09292  0.11740  1.0000
  C   C718      1.0  0.56383  0.13488  0.15464  1.0000
  C   C719      1.0  0.54012  0.12800  0.12054  1.0000
  H   H1212     1.0  0.62503  0.14446  0.12830  1.0000
  H   H1213     1.0  0.61527  0.13930  0.10963  1.0000
  H   H1214     1.0  0.57605  0.09949  0.13801  1.0000
  H   H1215     1.0  0.60778  0.10685  0.13866  1.0000
  H   H1216     1.0  0.59632  0.15521  0.14736  1.0000
  H   H1217     1.0  0.56872  0.16711  0.13899  1.0000
  H   H1218     1.0  0.56108  0.16050  0.11408  1.0000
  H   H1219     1.0  0.57171  0.13457  0.10456  1.0000
  H   H1220     1.0  0.59569  0.18135  0.10694  1.0000
  H   H1221     1.0  0.60313  0.18708  0.12639  1.0000
  H   H1222     1.0  0.60040  0.07335  0.12169  1.0000
  H   H1223     1.0  0.58001  0.09240  0.11014  1.0000
  H   H1224     1.0  0.61304  0.09903  0.11031  1.0000
  H   H1225     1.0  0.55841  0.14777  0.16363  1.0000
  H   H1226     1.0  0.57524  0.11972  0.16028  1.0000
  H   H1227     1.0  0.54640  0.12724  0.15065  1.0000
  H   H1228     1.0  0.52823  0.14040  0.12753  1.0000
  H   H1229     1.0  0.54179  0.10940  0.12666  1.0000
  H   H1230     1.0  0.80200  0.30459  0.23242  1.0000
  H   H1231     1.0  0.72158  0.15260  0.23651  1.0000
  H   H1232     1.0  0.80431  0.24870  0.20732  1.0000
  H   H1233     1.0  0.91551  0.43431  0.13811  1.0000
  H   H1234     1.0  0.63575  0.08153  0.22377  1.0000
  C   C720      1.0  0.55935  0.05851  0.07399  1.0000
  C   C721      1.0  0.98745  0.39762  0.12396  1.0000
  H   H1235     1.0  0.63918  0.08201  0.18728  1.0000
  H   H1236     1.0  0.67343  0.05950  0.22188  1.0000
  N   N52       1.0  0.79456  0.31644  0.11799  1.0000
  C   C722      1.0  0.80476  0.34199  0.12027  1.0000
  C   C723      1.0  0.80941  0.29787  0.12779  1.0000
  C   C724      1.0  0.76761  0.31637  0.12365  1.0000
  C   C725      1.0  0.79678  0.31193  0.10118  1.0000
  C   C726      1.0  0.79030  0.36456  0.11298  1.0000
  C   C727      1.0  0.83787  0.29763  0.12433  1.0000
  C   C728      1.0  0.75358  0.29153  0.12367  1.0000
  C   C729      1.0  0.79700  0.28437  0.09690  1.0000
  H   H1237     1.0  0.80579  0.34492  0.13269  1.0000
  H   H1238     1.0  0.82420  0.34370  0.11546  1.0000
  H   H1239     1.0  0.80309  0.27847  0.12712  1.0000
  H   H1240     1.0  0.80650  0.30160  0.14008  1.0000
  H   H1241     1.0  0.76613  0.32257  0.13551  1.0000
  H   H1242     1.0  0.75628  0.33002  0.11666  1.0000
  H   H1243     1.0  0.78150  0.32190  0.09492  1.0000
  H   H1244     1.0  0.81447  0.32006  0.09607  1.0000
  H   H1245     1.0  0.77243  0.36791  0.11939  1.0000
  H   H1246     1.0  0.80162  0.38163  0.11366  1.0000
  H   H1247     1.0  0.78693  0.36259  0.10074  1.0000
  H   H1248     1.0  0.84632  0.28082  0.13030  1.0000
  H   H1249     1.0  0.84271  0.29702  0.11197  1.0000
  H   H1250     1.0  0.84684  0.31406  0.12877  1.0000
  H   H1251     1.0  0.73490  0.29391  0.12940  1.0000
  H   H1252     1.0  0.76281  0.27590  0.13025  1.0000
  H   H1253     1.0  0.75014  0.28654  0.11188  1.0000
  H   H1254     1.0  0.78682  0.28316  0.08617  1.0000
  H   H1255     1.0  0.78812  0.27092  0.10543  1.0000
  H   H1256     1.0  0.81637  0.27797  0.09417  1.0000
  N   N53       1.0  0.66362  0.08971  0.20548  1.0000
  C   C730      1.0  0.68232  0.07593  0.21548  1.0000
  C   C731      1.0  0.67412  0.11276  0.19688  1.0000
  C   C732      1.0  0.66122  0.01012  0.00797  1.0000
  C   C733      1.0  0.67193  0.06066  0.18318  1.0000
  C   C734      1.0  0.70081  0.11072  0.18955  1.0000
  H   H1257     1.0  0.69787  0.06765  0.20882  1.0000
  H   H1258     1.0  0.66155  0.11940  0.18761  1.0000
  H   H1259     1.0  0.67440  0.12852  0.20451  1.0000
  C   C735      1.0  0.83233  0.27178  0.19542  1.0000
  C   C736      1.0  0.81071  0.29089  0.22476  1.0000
  H   H1260     1.0  0.50247  0.02239  0.04229  1.0000
  H   H1261     1.0  0.97510  0.38973  0.13346  1.0000
  H   H1262     1.0  0.68698  0.04954  0.18878  1.0000
  H   H1263     1.0  0.67979  0.07503  0.17474  1.0000
  H   H1264     1.0  0.70053  0.11750  0.17730  1.0000
  H   H1265     1.0  0.70921  0.09182  0.18980  1.0000
  H   H1266     1.0  0.71364  0.12321  0.19502  1.0000
  H   H1267     1.0  0.66172  0.04760  0.17641  1.0000
  H   H1268     1.0  0.76547  0.32773  0.21918  1.0000
  H   H1269     1.0  0.62731  0.18261  0.11235  1.0000
  H   H1270     1.0  0.74364  0.29854  0.20173  1.0000
  H   H1271     1.0  0.60804  0.09465  0.20307  1.0000
  H   H1272     1.0  0.70931  0.08033  0.23303  1.0000
  H   H1273     1.0  0.79385  0.26662  0.19112  1.0000
  C   C737      1.0  0.76908  0.27824  0.21773  1.0000
  H   H1274     1.0  0.64340  0.05648  0.20112  1.0000
  C   C738      1.0  0.50232  0.19162  0.16974  1.0000
  C   C739      1.0  0.80516  0.26772  0.20143  1.0000
  C   C740      1.0  0.52214  0.19048  0.17986  1.0000
  H   H1275     1.0  0.64851  0.11188  0.22361  1.0000
  H   H1276     1.0  0.82116  0.46792  0.20949  1.0000
  C   C741      1.0  0.64232  0.09759  0.21599  1.0000
  C   C742      1.0  0.85858  0.35996  0.24178  1.0000
  H   H1277     1.0  0.53027  0.12458  0.10997  1.0000
  H   H1278     1.0  0.62397  0.12421  0.19953  1.0000
  H   H1279     1.0  0.82916  0.48665  0.22416  1.0000
  H   H1280     1.0  0.77029  0.25849  0.22247  1.0000
  H   H1281     1.0  0.86466  0.49114  0.17819  1.0000
  H   H1282     1.0  0.80561  0.20392  0.24459  1.0000
  H   H1283     1.0  0.51485  0.25050  0.16268  1.0000
  C   C743      1.0  0.54705  0.05367  0.04075  1.0000
  H   H1284     1.0  0.55528  0.07142  0.04394  1.0000
  C   C744      1.0  0.50762  0.19823  0.15424  1.0000
  H   H1285     1.0  0.79977  0.25895  0.24060  1.0000
  C   C745      1.0  0.79235  0.31163  0.20224  1.0000
  H   H1286     1.0  0.52704  0.08015  0.02518  1.0000
  C   C746      1.0  0.81682  0.26724  0.23496  1.0000
  H   H1287     1.0  0.54719  0.05799  0.01582  1.0000
  H   H1288     1.0  0.67059  0.01979  0.01649  1.0000
  H   H1289     1.0  0.77048  0.34627  0.20202  1.0000
  C   C747      1.0  0.54665  0.03625  0.06730  1.0000
  H   H1290     1.0  0.77851  0.19306  0.23553  1.0000
  H   H1291     1.0  0.79439  0.34417  0.21611  1.0000
  C   C748      1.0  0.78008  0.33353  0.21051  1.0000
  H   H1292     1.0  0.57416  0.06666  0.06608  1.0000
  H   H1293     1.0  0.50358  0.27714  0.17199  1.0000
  C   C749      1.0  0.84796  0.49417  0.17175  1.0000
  H   H1294     1.0  0.56873  0.05157  0.08457  1.0000
  S   S215      1.0  0.64260  0.00063  0.10146  1.0000
  H   H1295     1.0  0.94687  0.42527  0.14295  1.0000
  H   H1296     1.0  0.53551  0.02657  0.07679  1.0000
  H   H1297     1.0  0.89394  0.48663  0.13024  1.0000
  H   H1298     1.0  0.72130  0.00666  0.02953  1.0000
  H   H1299     1.0  0.98684  0.47343  0.10673  1.0000
  H   H1300     1.0  0.96651  0.47333  0.09076  1.0000
  C   C750      1.0  0.96724  0.47555  0.10319  1.0000
  H   H1301     1.0  0.49884  0.24571  0.18071  1.0000
  H   H1302     1.0  0.94898  0.46296  0.12444  1.0000
  H   H1303     1.0  0.96129  0.49507  0.10506  1.0000
  H   H1304     1.0  0.82728  0.25307  0.22854  1.0000
  C   C751      1.0  0.81370  0.48278  0.21675  1.0000
  H   H1305     1.0  0.82905  0.27253  0.24415  1.0000
  C   C752      1.0  0.99091  0.30323  0.31483  1.0000
  H   H1306     1.0  0.77461  0.21655  0.24840  1.0000
  Fe  Fe110     1.0  0.54200  0.10766  0.40446  1.0000
  C   C753      1.0  0.66697  0.14549  0.25718  1.0000
  S   S216      1.0  0.58173  0.09896  0.39525  1.0000
  Fe  Fe111     1.0  0.50587  0.12190  0.43117  1.0000
  C   C754      1.0  0.77063  0.16724  0.36777  1.0000
  S   S217      1.0  0.52835  0.08721  0.42664  1.0000
  H   H1307     1.0  0.93758  0.26060  0.39335  1.0000
  Fe  Fe112     1.0  0.73742  0.13327  0.32081  1.0000
  S   S218      1.0  0.70557  0.15420  0.30985  1.0000
  S   S219      1.0  0.77393  0.15035  0.32824  1.0000
  Fe  Fe113     1.0  0.71143  0.08178  0.31818  1.0000
  S   S220      1.0  0.67814  0.09987  0.30670  1.0000
  S   S221      1.0  0.71619  0.04045  0.32635  1.0000
  Fe  Fe114     1.0  0.70640  0.12417  0.29307  1.0000
  S   S222      1.0  0.71418  0.13356  0.26756  1.0000
  Fe  Fe115     1.0  0.68010  0.12823  0.32460  1.0000
  S   S223      1.0  0.64691  0.14555  0.33772  1.0000
  S   S224      1.0  0.73947  0.10410  0.30352  1.0000
  S   S225      1.0  0.71208  0.10923  0.33665  1.0000
  H   H1308     1.0  0.87116  0.47132  0.29691  1.0000
  S   S226      1.0  0.91399  0.44621  0.41688  1.0000
  H   H1309     1.0  0.82125  0.37380  0.32119  1.0000
  H   H1310     1.0  0.89823  0.45328  0.30019  1.0000
  H   H1311     1.0  0.55399  0.11531  0.33255  1.0000
  Fe  Fe116     1.0  0.88474  0.45787  0.39996  1.0000
  S   S227      1.0  0.86006  0.42999  0.38913  1.0000
  H   H1312     1.0  0.88624  0.45012  0.32981  1.0000
  Fe  Fe117     1.0  0.86272  0.27939  0.31361  1.0000
  S   S228      1.0  0.85618  0.32132  0.31282  1.0000
  S   S229      1.0  0.82543  0.25779  0.31565  1.0000
  Fe  Fe118     1.0  0.91958  0.28711  0.30693  1.0000
  S   S230      1.0  0.91553  0.32872  0.30486  1.0000
  S   S231      1.0  0.95826  0.26854  0.30417  1.0000
  Fe  Fe119     1.0  0.89087  0.32400  0.32619  1.0000
  S   S232      1.0  0.90413  0.34918  0.34433  1.0000
  Fe  Fe120     1.0  0.88126  0.32261  0.29163  1.0000
  S   S233      1.0  0.86893  0.34961  0.27205  1.0000
  S   S234      1.0  0.89588  0.28205  0.32877  1.0000
  S   S235      1.0  0.88689  0.28102  0.29188  1.0000
  C   C755      1.0  0.75811  0.20444  0.27757  1.0000
  H   H1313     1.0  0.75315  0.19930  0.37737  1.0000
  H   H1314     1.0  0.83713  0.37525  0.30295  1.0000
  C   C756      1.0  0.71628  0.14940  0.37103  1.0000
  C   C757      1.0  0.65046  0.15365  0.24572  1.0000
  C   C758      1.0  0.89774  0.48760  0.47466  1.0000
  C   C759      1.0  0.86835  0.34226  0.25262  1.0000
  H   H1315     1.0  0.78753  0.12699  0.29487  1.0000
  C   C760      1.0  0.89104  0.37124  0.35679  1.0000
  C   C761      1.0  0.90734  0.38643  0.36415  1.0000
  C   C762      1.0  0.89814  0.40450  0.37397  1.0000
  C   C763      1.0  0.87242  0.40748  0.37672  1.0000
  C   C764      1.0  0.85608  0.39217  0.36943  1.0000
  C   C765      1.0  0.86529  0.37418  0.35950  1.0000
  H   H1316     1.0  0.92729  0.38434  0.36219  1.0000
  H   H1317     1.0  0.91097  0.41606  0.37950  1.0000
  H   H1318     1.0  0.83616  0.39421  0.37155  1.0000
  H   H1319     1.0  0.85248  0.36245  0.35411  1.0000
  C   C766      1.0  0.70337  0.18577  0.39644  1.0000
  C   C767      1.0  0.78551  0.19939  0.24637  1.0000
  H   H1320     1.0  0.87727  0.42350  0.34253  1.0000
  H   H1321     1.0  0.70429  0.19710  0.33322  1.0000
  C   C768      1.0  0.78791  0.18034  0.32447  1.0000
  C   C769      1.0  0.81381  0.18270  0.32601  1.0000
  C   C770      1.0  0.82569  0.20606  0.32328  1.0000
  C   C771      1.0  0.81172  0.22760  0.31921  1.0000
  C   C772      1.0  0.78574  0.22525  0.31783  1.0000
  C   C773      1.0  0.77392  0.20185  0.32038  1.0000
  H   H1322     1.0  0.82487  0.16629  0.32927  1.0000
  H   H1323     1.0  0.84563  0.20742  0.32443  1.0000
  H   H1324     1.0  0.77467  0.24174  0.31478  1.0000
  H   H1325     1.0  0.75396  0.20053  0.31932  1.0000
  C   C774      1.0  0.71413  0.01289  0.31622  1.0000
  H   H1326     1.0  0.93377  0.30451  0.34974  1.0000
  H   H1327     1.0  0.72566  0.13978  0.36147  1.0000
  H   H1328     1.0  0.69734  0.03047  0.29631  1.0000
  H   H1329     1.0  0.94294  0.32973  0.37041  1.0000
  C   C775      1.0  0.69267  0.14496  0.25389  1.0000
  H   H1330     1.0  0.65980  0.13932  0.26849  1.0000
  C   C776      1.0  0.59980  0.11230  0.37933  1.0000
  C   C777      1.0  0.61751  0.09731  0.37180  1.0000
  C   C778      1.0  0.63220  0.10714  0.35914  1.0000
  C   C779      1.0  0.62948  0.13223  0.35391  1.0000
  C   C780      1.0  0.61217  0.14736  0.36165  1.0000
  C   C781      1.0  0.59750  0.13750  0.37431  1.0000
  H   H1331     1.0  0.61977  0.07787  0.37573  1.0000
  H   H1332     1.0  0.64552  0.09526  0.35340  1.0000
  H   H1333     1.0  0.61017  0.16688  0.35788  1.0000
  H   H1334     1.0  0.58475  0.14945  0.38041  1.0000
  C   C782      1.0  0.50696  0.12737  0.47458  1.0000
  C   C783      1.0  0.53243  0.12831  0.47754  1.0000
  C   C784      1.0  0.54967  0.10279  0.35622  1.0000
  H   H1335     1.0  0.85928  0.47990  0.47104  1.0000
  N   N54       1.0  0.72307  0.17673  0.37003  1.0000
  C   C785      1.0  0.70379  0.01303  0.30181  1.0000
  H   H1336     1.0  0.88027  0.44813  0.28366  1.0000
  N   N55       1.0  0.53499  0.14561  0.34386  1.0000
  H   H1337     1.0  0.94970  0.22677  0.35631  1.0000
  C   C786      1.0  0.54273  0.16389  0.33067  1.0000
  H   H1338     1.0  0.86902  0.39573  0.28866  1.0000
  S   S236      1.0  0.52157  0.14356  0.40963  1.0000
  H   H1339     1.0  0.50336  0.18169  0.35809  1.0000
  C   C787      1.0  0.52204  0.18078  0.32352  1.0000
  H   H1340     1.0  0.80461  0.19340  0.29303  1.0000
  H   H1341     1.0  0.95776  0.27546  0.33612  1.0000
  C   C788      1.0  0.78171  0.17833  0.25906  1.0000
  H   H1342     1.0  0.55135  0.15407  0.32092  1.0000
  H   H1343     1.0  0.55795  0.17610  0.33406  1.0000
  H   H1344     1.0  0.65823  0.01530  0.33586  1.0000
  C   C789      1.0  0.54843  0.01418  0.43497  1.0000
  C   C790      1.0  0.87260  0.48464  0.47929  1.0000
  H   H1345     1.0  0.55211  0.00856  0.38849  1.0000
  C   C791      1.0  0.80827  0.22426  0.27676  1.0000
  C   C792      1.0  0.51889  0.02285  0.39969  1.0000
  H   H1346     1.0  0.94544  0.23269  0.33634  1.0000
  H   H1347     1.0  0.81970  0.18573  0.27559  1.0000
  H   H1348     1.0  0.81066  0.15026  0.29292  1.0000
  H   H1349     1.0  0.88519  0.30573  0.25591  1.0000
  H   H1350     1.0  0.68584  0.19197  0.37498  1.0000
  N   N56       1.0  0.96126  0.27969  0.36023  1.0000
  H   H1351     1.0  0.72350  0.13986  0.38168  1.0000
  H   H1352     1.0  0.55558  0.03150  0.42871  1.0000
  H   H1353     1.0  0.52972  0.01143  0.43058  1.0000
  H   H1354     1.0  0.68570  0.12586  0.36521  1.0000
  H   H1355     1.0  0.70128  0.16543  0.39921  1.0000
  H   H1356     1.0  0.79569  0.23594  0.28380  1.0000
  C   C793      1.0  0.87757  0.31948  0.24771  1.0000
  H   H1357     1.0  0.76678  0.14791  0.36484  1.0000
  H   H1358     1.0  0.55704  0.16092  0.36105  1.0000
  H   H1359     1.0  0.55097  0.10937  0.36783  1.0000
  C   C794      1.0  0.54050  0.12699  0.49279  1.0000
  H   H1360     1.0  0.71861  0.21193  0.27432  1.0000
  Fe  Fe121     1.0  0.93836  0.47172  0.40175  1.0000
  H   H1361     1.0  0.71023  0.21262  0.37739  1.0000
  S   S237      1.0  0.97625  0.45870  0.39316  1.0000
  H   H1362     1.0  0.78728  0.16635  0.37495  1.0000
  C   C795      1.0  0.55357  0.12411  0.34369  1.0000
  C   C796      1.0  0.79439  0.14299  0.28726  1.0000
  S   S238      1.0  0.87085  0.49036  0.41363  1.0000
  H   H1363     1.0  0.91293  0.31706  0.37482  1.0000
  C   C797      1.0  0.86464  0.48762  0.49465  1.0000
  H   H1364     1.0  0.68510  0.19823  0.35015  1.0000
  H   H1365     1.0  0.68086  0.13847  0.38312  1.0000
  C   C798      1.0  0.89157  0.43092  0.33406  1.0000
  H   H1366     1.0  0.82029  0.40233  0.30958  1.0000
  C   C799      1.0  0.83248  0.38619  0.31299  1.0000
  C   C800      1.0  0.98133  0.29912  0.35730  1.0000
  H   H1367     1.0  0.50318  0.12460  0.35323  1.0000
  C   C801      1.0  0.53715  0.15750  0.35887  1.0000
  C   C802      1.0  0.52343  0.18263  0.36050  1.0000
  H   H1368     1.0  0.97411  0.27658  0.38331  1.0000
  H   H1369     1.0  0.84874  0.40506  0.33075  1.0000
  C   C803      1.0  0.93656  0.29355  0.36082  1.0000
  H   H1370     1.0  0.80039  0.13538  0.27625  1.0000
  S   S239      1.0  0.90993  0.48170  0.38419  1.0000
  H   H1371     1.0  0.52621  0.04145  0.40015  1.0000
  C   C804      1.0  0.89667  0.41362  0.32087  1.0000
  H   H1372     1.0  0.68676  0.19529  0.40150  1.0000
  C   C805      1.0  0.94417  0.25061  0.38322  1.0000
  H   H1373     1.0  0.97462  0.31484  0.31691  1.0000
  H   H1374     1.0  0.58546  0.99865  0.43401  1.0000
  C   C806      1.0  0.74854  0.17923  0.37657  1.0000
  H   H1375     1.0  0.80675  0.23015  0.26454  1.0000
  H   H1376     1.0  0.50691  0.10026  0.33218  1.0000
  C   C807      1.0  0.93305  0.31197  0.37355  1.0000
  H   H1377     1.0  0.75707  0.15263  0.28107  1.0000
  H   H1378     1.0  0.71990  0.19246  0.40214  1.0000
  C   C808      1.0  0.68813  0.14315  0.37127  1.0000
  H   H1379     1.0  0.90897  0.43244  0.34040  1.0000
  C   C809      1.0  0.72474  0.18721  0.35363  1.0000
  H   H1380     1.0  0.73200  0.20665  0.35293  1.0000
  H   H1381     1.0  0.54587  0.13111  0.46809  1.0000
  N   N57       1.0  0.87480  0.40919  0.31109  1.0000
  H   H1382     1.0  0.73194  0.19141  0.26092  1.0000
  C   C810      1.0  0.85587  0.39440  0.32103  1.0000
  H   H1383     1.0  0.67596  0.15746  0.36563  1.0000
  H   H1384     1.0  0.53176  0.09308  0.35529  1.0000
  H   H1385     1.0  0.53085  0.19505  0.31534  1.0000
  H   H1386     1.0  0.88257  0.37329  0.30166  1.0000
  H   H1387     1.0  0.84712  0.42933  0.29765  1.0000
  H   H1388     1.0  0.92364  0.39094  0.29800  1.0000
  C   C811      1.0  0.88266  0.39356  0.29794  1.0000
  H   H1389     1.0  0.52439  0.18773  0.37254  1.0000
  H   H1390     1.0  0.90409  0.39548  0.32585  1.0000
  C   C812      1.0  0.90876  0.39808  0.29033  1.0000
  C   C813      1.0  0.70509  0.19252  0.37905  1.0000
  C   C814      1.0  0.80340  0.19616  0.28038  1.0000
  H   H1391     1.0  0.75647  0.20896  0.28978  1.0000
  N   N58       1.0  0.77916  0.18588  0.27530  1.0000
  C   C815      1.0  0.96190  0.26373  0.34669  1.0000
  C   C816      1.0  0.98815  0.28041  0.30821  1.0000
  H   H1392     1.0  0.77594  0.17883  0.35721  1.0000
  H   H1393     1.0  0.92431  0.24686  0.34934  1.0000
  H   H1394     1.0  0.57290  0.13109  0.34464  1.0000
  H   H1395     1.0  0.52997  0.14486  0.36860  1.0000
  H   H1396     1.0  0.76166  0.22265  0.27121  1.0000
  H   H1397     1.0  0.53257  0.19789  0.35327  1.0000
  H   H1398     1.0  0.98070  0.25543  0.34461  1.0000
  H   H1399     1.0  0.54721  0.01807  0.44722  1.0000
  C   C817      1.0  0.87919  0.45224  0.29592  1.0000
  H   H1400     1.0  0.74890  0.17056  0.38846  1.0000
  C   C818      1.0  0.94412  0.24139  0.34751  1.0000
  S   S240      1.0  0.51081  0.09376  0.39108  1.0000
  H   H1401     1.0  0.91056  0.38724  0.27995  1.0000
  H   H1402     1.0  0.92048  0.28078  0.36193  1.0000
  H   H1403     1.0  0.69473  0.16845  0.34280  1.0000
  H   H1404     1.0  0.85274  0.44288  0.31473  1.0000
  H   H1405     1.0  0.72506  0.18042  0.28061  1.0000
  H   H1406     1.0  0.50933  0.16993  0.31688  1.0000
  H   H1407     1.0  0.73820  0.17618  0.34677  1.0000
  H   H1408     1.0  0.91269  0.42195  0.31412  1.0000
  C   C819      1.0  0.86248  0.43324  0.30529  1.0000
  H   H1409     1.0  0.86471  0.37707  0.32623  1.0000
  H   H1410     1.0  0.91204  0.41788  0.28662  1.0000
  C   C820      1.0  0.73214  0.19626  0.27301  1.0000
  C   C821      1.0  0.70057  0.18767  0.34474  1.0000
  S   S241      1.0  0.90876  0.48513  0.45518  1.0000
  H   H1411     1.0  0.51073  0.19092  0.33194  1.0000
  C   C822      1.0  0.50890  0.13620  0.34271  1.0000
  H   H1412     1.0  0.98139  0.25015  0.37268  1.0000
  H   H1413     1.0  0.82757  0.22841  0.27999  1.0000
  H   H1414     1.0  0.56483  0.08863  0.35497  1.0000
  H   H1415     1.0  0.93910  0.30407  0.38481  1.0000
  Fe  Fe122     1.0  0.90258  0.48043  0.42944  1.0000
  H   H1416     1.0  0.92814  0.24734  0.37614  1.0000
  C   C823      1.0  0.53353  0.00426  0.39308  1.0000
  H   H1417     1.0  0.76571  0.16677  0.25607  1.0000
  C   C824      1.0  0.96650  0.26436  0.37485  1.0000
  C   C825      1.0  0.77310  0.16263  0.28539  1.0000
  H   H1418     1.0  0.95062  0.23191  0.38784  1.0000
  C   C826      1.0  0.50470  0.12052  0.32892  1.0000
  H   H1419     1.0  0.51768  0.12545  0.31908  1.0000
  C   C827      1.0  0.91476  0.49324  0.48577  1.0000
  H   H1420     1.0  0.97800  0.31071  0.34651  1.0000
  H   H1421     1.0  0.76696  0.16756  0.29705  1.0000
  H   H1422     1.0  0.56018  0.12856  0.49480  1.0000
  H   H1423     1.0  0.98086  0.31243  0.36650  1.0000
  H   H1424     1.0  0.63056  0.15376  0.24830  1.0000
  H   H1425     1.0  0.79797  0.16544  0.25771  1.0000
  H   H1426     1.0  0.85139  0.37762  0.24545  1.0000
  H   H1427     1.0  0.97926  0.49599  0.41520  1.0000
  H   H1428     1.0  0.93425  0.49558  0.48241  1.0000
  H   H1429     1.0  0.63083  0.00560  0.34665  1.0000
  H   H1430     1.0  0.63557  0.99795  0.32682  1.0000
  C   C828      1.0  0.64467  0.99979  0.33782  1.0000
  Fe  Fe123     1.0  0.68944  0.13058  0.65034  1.0000
  S   S242      1.0  0.72584  0.10860  0.65053  1.0000
  S   S243      1.0  0.66829  0.14385  0.62887  1.0000
  Fe  Fe124     1.0  0.68746  0.13269  0.68537  1.0000
  S   S244      1.0  0.72287  0.11043  0.68804  1.0000
  S   S245      1.0  0.66143  0.14720  0.70403  1.0000
  Fe  Fe125     1.0  0.73798  0.13540  0.66791  1.0000
  S   S246      1.0  0.77705  0.15185  0.67112  1.0000
  Fe  Fe126     1.0  0.70830  0.08557  0.67063  1.0000
  S   S247      1.0  0.69830  0.04405  0.67501  1.0000
  S   S248      1.0  0.70284  0.15870  0.66626  1.0000
  S   S249      1.0  0.67169  0.10662  0.66938  1.0000
  Fe  Fe127     1.0  0.53886  0.11110  0.58315  1.0000
  H   H1431     1.0  0.56190  0.02315  0.57811  1.0000
  S   S250      1.0  0.56689  0.10499  0.60246  1.0000
  Fe  Fe128     1.0  0.52036  0.11686  0.54959  1.0000
  S   S251      1.0  0.53476  0.12448  0.52447  1.0000
  H   H1432     1.0  0.59565  0.08792  0.62812  1.0000
  H   H1433     1.0  0.52666  0.17865  0.52061  1.0000
  H   H1434     1.0  0.68862  0.08110  0.74152  1.0000
  S   S252      1.0  0.52309  0.14374  0.56855  1.0000
  S   S253      1.0  0.53860  0.08536  0.56381  1.0000
  Fe  Fe129     1.0  0.86458  0.28188  0.66248  1.0000
  S   S254      1.0  0.85395  0.31780  0.67316  1.0000
  S   S255      1.0  0.83305  0.25659  0.65514  1.0000
  Fe  Fe130     1.0  0.92108  0.29615  0.66110  1.0000
  S   S256      1.0  0.91369  0.33268  0.67174  1.0000
  S   S257      1.0  0.95965  0.28360  0.65187  1.0000
  Fe  Fe131     1.0  0.88710  0.31054  0.68780  1.0000
  S   S258      1.0  0.88748  0.30871  0.71378  1.0000
  Fe  Fe132     1.0  0.88126  0.33705  0.65605  1.0000
  S   S259      1.0  0.86833  0.37341  0.64323  1.0000
  S   S260      1.0  0.89647  0.27347  0.67809  1.0000
  S   S261      1.0  0.88996  0.30172  0.64443  1.0000
  H   H1435     1.0  0.94582  0.18969  0.63538  1.0000
  S   S262      1.0  0.92049  0.43671  0.58682  1.0000
  Fe  Fe133     1.0  0.49953  0.07600  0.57203  1.0000
  C   C829      1.0  0.69683  0.01689  0.71692  1.0000
  H   H1436     1.0  0.59384  0.05397  0.60886  1.0000
  C   C830      1.0  0.88279  0.38975  0.62704  1.0000
  C   C831      1.0  0.90760  0.38515  0.62240  1.0000
  C   C832      1.0  0.91879  0.39967  0.61005  1.0000
  C   C833      1.0  0.90539  0.41899  0.60224  1.0000
  C   C834      1.0  0.88038  0.42316  0.60659  1.0000
  C   C835      1.0  0.86922  0.40869  0.61897  1.0000
  H   H1437     1.0  0.91823  0.37060  0.62847  1.0000
  H   H1438     1.0  0.93803  0.39603  0.60663  1.0000
  H   H1439     1.0  0.86962  0.43745  0.60041  1.0000
  H   H1440     1.0  0.84994  0.41221  0.62240  1.0000
  H   H1441     1.0  0.59340  0.02841  0.63111  1.0000
  C   C836      1.0  0.86185  0.35257  0.71976  1.0000
  C   C837      1.0  0.87378  0.33088  0.72570  1.0000
  H   H1442     1.0  0.81559  0.32028  0.72085  1.0000
  C   C838      1.0  0.59347  0.03988  0.60010  1.0000
  H   H1443     1.0  0.86113  0.35631  0.70751  1.0000
  C   C839      1.0  0.98987  0.29786  0.67491  1.0000
  H   H1444     1.0  0.63509  0.10203  0.63861  1.0000
  C   C840      1.0  0.87461  0.32627  0.74164  1.0000
  C   C841      1.0  0.88177  0.48693  0.61856  1.0000
  C   C842      1.0  0.52102  0.01968  0.55938  1.0000
  C   C843      1.0  0.57238  0.00621  0.61573  1.0000
  H   H1445     1.0  0.52360  0.03857  0.55459  1.0000
  C   C844      1.0  0.79125  0.18190  0.66727  1.0000
  C   C845      1.0  0.78226  0.19987  0.65643  1.0000
  C   C846      1.0  0.79511  0.22260  0.65307  1.0000
  C   C847      1.0  0.81685  0.22812  0.66069  1.0000
  C   C848      1.0  0.82558  0.21038  0.67175  1.0000
  C   C849      1.0  0.81307  0.18739  0.67485  1.0000
  H   H1446     1.0  0.76570  0.19604  0.65037  1.0000
  H   H1447     1.0  0.78813  0.23601  0.64445  1.0000
  H   H1448     1.0  0.84216  0.21420  0.67779  1.0000
  H   H1449     1.0  0.82032  0.17372  0.68322  1.0000
  C   C850      1.0  0.66924  0.14586  0.72356  1.0000
  C   C851      1.0  0.69114  0.13407  0.72864  1.0000
  H   H1450     1.0  0.89973  0.44398  0.63135  1.0000
  H   H1451     1.0  0.95522  0.21260  0.62082  1.0000
  H   H1452     1.0  0.82448  0.31157  0.73965  1.0000
  H   H1453     1.0  0.84747  0.48632  0.60627  1.0000
  H   H1454     1.0  0.70403  0.12602  0.72050  1.0000
  C   C852      1.0  0.49807  0.12208  0.50245  1.0000
  C   C853      1.0  0.51322  0.18861  0.52810  1.0000
  H   H1455     1.0  0.84810  0.46341  0.62194  1.0000
  N   N59       1.0  0.89327  0.48367  0.63400  1.0000
  C   C854      1.0  0.71085  0.01343  0.67286  1.0000
  H   H1456     1.0  0.90947  0.42997  0.65580  1.0000
  H   H1457     1.0  0.88822  0.45146  0.66483  1.0000
  H   H1458     1.0  0.94836  0.22249  0.63940  1.0000
  C   C855      1.0  0.64028  0.13245  0.62158  1.0000
  C   C856      1.0  0.63020  0.14486  0.60850  1.0000
  C   C857      1.0  0.60789  0.13677  0.60242  1.0000
  C   C858      1.0  0.59525  0.11614  0.60940  1.0000
  C   C859      1.0  0.60528  0.10378  0.62253  1.0000
  C   C860      1.0  0.62763  0.11181  0.62857  1.0000
  H   H1459     1.0  0.63979  0.16082  0.60297  1.0000
  H   H1460     1.0  0.60050  0.14650  0.59234  1.0000
  C   C861      1.0  0.52344  0.12407  0.50541  1.0000
  H   H1461     1.0  0.97278  0.30255  0.68111  1.0000
  N   N60       1.0  0.61009  0.17561  0.66244  1.0000
  C   C862      1.0  0.62900  0.19513  0.66549  1.0000
  C   C863      1.0  0.58798  0.17893  0.67330  1.0000
  C   C864      1.0  0.60210  0.18074  0.64618  1.0000
  C   C865      1.0  0.62220  0.15004  0.66458  1.0000
  C   C866      1.0  0.65131  0.19788  0.65389  1.0000
  C   C867      1.0  0.59419  0.17867  0.69038  1.0000
  C   C868      1.0  0.58123  0.16442  0.64079  1.0000
  C   C869      1.0  0.60497  0.12781  0.66945  1.0000
  H   H1462     1.0  0.61994  0.21394  0.66591  1.0000
  H   H1463     1.0  0.63726  0.19105  0.67688  1.0000
  H   H1464     1.0  0.57374  0.16440  0.67230  1.0000
  H   H1465     1.0  0.57813  0.19697  0.67036  1.0000
  H   H1466     1.0  0.59588  0.20061  0.64428  1.0000
  H   H1467     1.0  0.61806  0.17815  0.63789  1.0000
  H   H1468     1.0  0.63260  0.14525  0.65395  1.0000
  H   H1469     1.0  0.63668  0.14976  0.67337  1.0000
  H   H1470     1.0  0.64588  0.20810  0.64307  1.0000
  H   H1471     1.0  0.66616  0.20887  0.65872  1.0000
  H   H1472     1.0  0.65952  0.17954  0.65132  1.0000
  H   H1473     1.0  0.60190  0.19687  0.69312  1.0000
  H   H1474     1.0  0.57685  0.17568  0.69758  1.0000
  H   H1475     1.0  0.60773  0.16365  0.69376  1.0000
  H   H1476     1.0  0.58796  0.14507  0.63941  1.0000
  H   H1477     1.0  0.57595  0.17176  0.62919  1.0000
  H   H1478     1.0  0.56402  0.16465  0.64817  1.0000
  H   H1479     1.0  0.59836  0.12827  0.68156  1.0000
  H   H1480     1.0  0.61578  0.11011  0.66855  1.0000
  H   H1481     1.0  0.58873  0.12659  0.66220  1.0000
  C   C870      1.0  0.86960  0.40949  0.56396  1.0000
  C   C871      1.0  0.90234  0.41759  0.54417  1.0000
  C   C872      1.0  0.88408  0.38713  0.57157  1.0000
  H   H1482     1.0  0.87400  0.42625  0.57021  1.0000
  H   H1483     1.0  0.86860  0.45424  0.54850  1.0000
  H   H1484     1.0  0.91036  0.42782  0.55348  1.0000
  H   H1485     1.0  0.91198  0.39903  0.54457  1.0000
  C   C873      1.0  0.86113  0.43869  0.54232  1.0000
  H   H1486     1.0  0.58098  0.06611  0.58139  1.0000
  H   H1487     1.0  0.90454  0.39005  0.57095  1.0000
  C   C874      1.0  0.89143  0.45663  0.63975  1.0000
  H   H1488     1.0  0.90401  0.42444  0.51883  1.0000
  C   C875      1.0  0.53713  0.00060  0.55477  1.0000
  C   C876      1.0  0.52293  0.03010  0.60939  1.0000
  C   C877      1.0  0.68372  0.04049  0.73876  1.0000
  C   C878      1.0  0.65947  0.07851  0.71126  1.0000
  N   N61       1.0  0.89499  0.20930  0.63827  1.0000
  C   C879      1.0  0.87034  0.21514  0.63089  1.0000
  C   C880      1.0  0.89487  0.18177  0.64318  1.0000
  C   C881      1.0  0.91550  0.21456  0.62627  1.0000
  C   C882      1.0  0.89727  0.22571  0.65146  1.0000
  C   C883      1.0  0.86743  0.24138  0.62274  1.0000
  C   C884      1.0  0.87456  0.17359  0.65538  1.0000
  H   H1489     1.0  0.64083  0.08120  0.70625  1.0000
  C   C885      1.0  0.91676  0.21784  0.66355  1.0000
  H   H1490     1.0  0.86650  0.20143  0.62228  1.0000
  H   H1491     1.0  0.85458  0.21334  0.63949  1.0000
  H   H1492     1.0  0.91287  0.17499  0.64767  1.0000
  H   H1493     1.0  0.89238  0.17053  0.63311  1.0000
  H   H1494     1.0  0.61046  0.02815  0.60213  1.0000
  H   H1495     1.0  0.91536  0.23466  0.62219  1.0000
  H   H1496     1.0  0.90164  0.24520  0.64713  1.0000
  H   H1497     1.0  0.87899  0.22729  0.65782  1.0000
  H   H1498     1.0  0.84746  0.24469  0.62017  1.0000
  H   H1499     1.0  0.87278  0.25641  0.62997  1.0000
  H   H1500     1.0  0.87815  0.24299  0.61165  1.0000
  H   H1501     1.0  0.85556  0.17495  0.65077  1.0000
  H   H1502     1.0  0.87766  0.15363  0.65914  1.0000
  H   H1503     1.0  0.87514  0.18440  0.66569  1.0000
  H   H1504     1.0  0.71252  0.00919  0.72380  1.0000
  H   H1505     1.0  0.88282  0.38816  0.51632  1.0000
  H   H1506     1.0  0.93196  0.43081  0.52812  1.0000
  H   H1507     1.0  0.92969  0.23357  0.66472  1.0000
  H   H1508     1.0  0.92858  0.20148  0.66117  1.0000
  H   H1509     1.0  0.90727  0.21409  0.67495  1.0000
  C   C886      1.0  0.93816  0.47376  0.62407  1.0000
  H   H1510     1.0  0.55988  0.03030  0.63422  1.0000
  H   H1511     1.0  0.73299  0.05459  0.73720  1.0000
  C   C887      1.0  0.86490  0.39503  0.52138  1.0000
  H   H1512     1.0  0.55239  0.00490  0.54662  1.0000
  C   C888      1.0  0.73560  0.00902  0.66804  1.0000
  H   H1513     1.0  0.57673  0.00269  0.64034  1.0000
  H   H1514     1.0  0.82699  0.43794  0.55728  1.0000
  H   H1515     1.0  0.77665  0.33876  0.72896  1.0000
  H   H1516     1.0  0.80173  0.35125  0.73856  1.0000
  H   H1517     1.0  0.86465  0.44449  0.53009  1.0000
  N   N62       1.0  0.87450  0.41460  0.54696  1.0000
  C   C889      1.0  0.85336  0.48284  0.61825  1.0000
  H   H1518     1.0  0.74823  0.06940  0.72062  1.0000
  H   H1519     1.0  0.82500  0.45692  0.53994  1.0000
  C   C890      1.0  0.83254  0.43887  0.54494  1.0000
  H   H1520     1.0  0.66643  0.04375  0.70155  1.0000
  H   H1521     1.0  0.87160  0.45078  0.64098  1.0000
  H   H1522     1.0  0.84166  0.38624  0.72507  1.0000
  H   H1523     1.0  0.70416  0.01801  0.70485  1.0000
  H   H1524     1.0  0.61338  0.06735  0.58503  1.0000
  H   H1525     1.0  0.86084  0.41402  0.51638  1.0000
  H   H1526     1.0  0.74339  0.03662  0.72118  1.0000
  C   C891      1.0  0.85084  0.36948  0.72973  1.0000
  H   H1527     1.0  0.52304  0.19169  0.53872  1.0000
  H   H1528     1.0  0.67295  0.08810  0.70302  1.0000
  H   H1529     1.0  0.70498  0.07973  0.71901  1.0000
  H   H1530     1.0  0.64873  0.04117  0.71908  1.0000
  H   H1531     1.0  0.50878  0.20682  0.52206  1.0000
  C   C892      1.0  0.94252  0.20927  0.63105  1.0000
  C   C893      1.0  0.69629  0.13258  0.74432  1.0000
  C   C894      1.0  0.88161  0.49341  0.50575  1.0000
  N   N63       1.0  0.68882  0.04248  0.72169  1.0000
  H   H1532     1.0  0.84601  0.38726  0.54341  1.0000
  H   H1533     1.0  0.50825  0.04495  0.60951  1.0000
  H   H1534     1.0  0.84952  0.40568  0.56666  1.0000
  H   H1535     1.0  0.71347  0.06023  0.70431  1.0000
  H   H1536     1.0  0.94133  0.45626  0.63126  1.0000
  Fe  Fe134     1.0  0.91002  0.47529  0.57622  1.0000
  C   C895      1.0  0.54811  0.04224  0.60433  1.0000
  H   H1537     1.0  0.91885  0.46104  0.65780  1.0000
  H   H1538     1.0  0.54480  0.05385  0.59359  1.0000
  H   H1539     1.0  0.55201  0.05588  0.61291  1.0000
  C   C896      1.0  0.70981  0.06009  0.71691  1.0000
  S   S263      1.0  0.92626  0.48539  0.55255  1.0000
  N   N64       1.0  0.56998  0.02461  0.60212  1.0000
  C   C897      1.0  0.98868  0.28849  0.66045  1.0000
  C   C898      1.0  0.66546  0.05027  0.71336  1.0000
  H   H1540     1.0  0.74782  0.02463  0.66515  1.0000
  C   C899      1.0  0.59745  0.05446  0.58447  1.0000
  H   H1541     1.0  0.84512  0.48540  0.49797  1.0000
  C   C900      1.0  0.56576  0.01031  0.58827  1.0000
  C   C901      1.0  0.91127  0.43199  0.52915  1.0000
  C   C902      1.0  0.65280  0.15647  0.73428  1.0000
  H   H1542     1.0  0.90640  0.45218  0.52921  1.0000
  H   H1543     1.0  0.93157  0.46909  0.61281  1.0000
  H   H1544     1.0  0.51689  0.01645  0.60143  1.0000
  C   C903      1.0  0.73486  0.05448  0.72457  1.0000
  H   H1545     1.0  0.63579  0.16558  0.73048  1.0000
  H   H1546     1.0  0.91240  0.20382  0.61607  1.0000
  H   H1547     1.0  0.87963  0.36917  0.56683  1.0000
  H   H1548     1.0  0.89067  0.47400  0.61053  1.0000
  H   H1549     1.0  0.87848  0.38518  0.58393  1.0000
  H   H1550     1.0  0.69345  0.00660  0.61005  1.0000
  C   C904      1.0  0.57573  0.01789  0.63113  1.0000
  H   H1551     1.0  0.52323  0.02111  0.62113  1.0000
  C   C905      1.0  0.86507  0.39270  0.53902  1.0000
  H   H1552     1.0  0.84962  0.38344  0.51755  1.0000
  H   H1553     1.0  0.82358  0.42378  0.53918  1.0000
  H   H1554     1.0  0.87655  0.37571  0.54188  1.0000
  C   C906      1.0  0.50160  0.01423  0.57012  1.0000
  C   C907      1.0  0.80806  0.31399  0.73244  1.0000
  H   H1555     1.0  0.65883  0.08801  0.72206  1.0000
  H   H1556     1.0  0.79889  0.29591  0.73125  1.0000
  C   C908      1.0  0.79012  0.33432  0.73816  1.0000
  C   C909      1.0  0.90258  0.44966  0.65547  1.0000
  H   H1557     1.0  0.60209  0.04182  0.57524  1.0000
  H   H1558     1.0  0.66100  0.00121  0.71050  1.0000
  H   H1559     1.0  0.98283  0.48990  0.51340  1.0000
  S   S264      1.0  0.50068  0.09909  0.59218  1.0000
  H   H1560     1.0  0.97283  0.49383  0.57484  1.0000
  H   H1561     1.0  0.75067  0.30603  0.74178  1.0000
  H   H1562     1.0  0.95658  0.48281  0.62197  1.0000
  H   H1563     1.0  0.98119  0.49106  0.53409  1.0000
  S   S265      1.0  0.87224  0.49144  0.57085  1.0000
  H   H1564     1.0  0.86069  0.49225  0.64827  1.0000
  H   H1565     1.0  0.66736  0.02838  0.74172  1.0000
  H   H1566     1.0  0.54853  0.99905  0.58992  1.0000
  C   C910      1.0  0.92011  0.49182  0.63213  1.0000
  H   H1567     1.0  0.77477  0.38263  0.74291  1.0000
  H   H1568     1.0  0.60527  0.99646  0.58766  1.0000
  H   H1569     1.0  0.69915  0.03052  0.74487  1.0000
  C   C911      1.0  0.90683  0.49605  0.50118  1.0000
  H   H1570     1.0  0.92801  0.49533  0.64332  1.0000
  C   C912      1.0  0.67658  0.99659  0.71820  1.0000
  H   H1571     1.0  0.84248  0.49613  0.62509  1.0000
  Fe  Fe135     1.0  0.66476  0.16106  0.79278  1.0000
  S   S266      1.0  0.64526  0.19753  0.78735  1.0000
  S   S267      1.0  0.68721  0.14081  0.77465  1.0000
  Fe  Fe136     1.0  0.65094  0.16139  0.82692  1.0000
  S   S268      1.0  0.63077  0.19867  0.82360  1.0000
  S   S269      1.0  0.65006  0.14438  0.85163  1.0000
  Fe  Fe137     1.0  0.61418  0.18246  0.80333  1.0000
  S   S270      1.0  0.57448  0.18517  0.79434  1.0000
  Fe  Fe138     1.0  0.66360  0.21102  0.80797  1.0000
  S   S271      1.0  0.67807  0.25170  0.80552  1.0000
  S   S272      1.0  0.63270  0.14471  0.80734  1.0000
  S   S273      1.0  0.68482  0.17494  0.81275  1.0000
  S   S274      1.0  0.63715  0.02903  0.92486  1.0000
  Fe  Fe139     1.0  0.65524  0.01456  0.90363  1.0000
  S   S275      1.0  0.67146  0.03424  0.88149  1.0000
  Fe  Fe140     1.0  0.80457  0.34512  0.80860  1.0000
  S   S276      1.0  0.84255  0.34192  0.79657  1.0000
  S   S277      1.0  0.78324  0.30745  0.81072  1.0000
  Fe  Fe141     1.0  0.81272  0.40196  0.81234  1.0000
  S   S278      1.0  0.84989  0.40163  0.79992  1.0000
  S   S279      1.0  0.79988  0.43786  0.82349  1.0000
  Fe  Fe142     1.0  0.83208  0.37761  0.78353  1.0000
  S   S280      1.0  0.83631  0.38580  0.75777  1.0000
  Fe  Fe143     1.0  0.85743  0.36604  0.81423  1.0000
  S   S281      1.0  0.89745  0.36302  0.82280  1.0000
  S   S282      1.0  0.79369  0.38042  0.79482  1.0000
  S   S283      1.0  0.82055  0.36679  0.82738  1.0000
  C   C913      1.0  0.76726  0.17568  0.76600  1.0000
  S   S284      1.0  0.56853  0.01944  0.92383  1.0000
  S   S285      1.0  0.94394  0.36379  0.88879  1.0000
  H   H1572     1.0  0.63399  0.25184  0.78539  1.0000
  H   H1573     1.0  0.82086  0.30348  0.77883  1.0000
  H   H1574     1.0  0.59670  0.06414  0.91444  1.0000
  H   H1575     1.0  0.90698  0.45735  0.84990  1.0000
  H   H1576     1.0  0.82568  0.41611  0.85739  1.0000
  H   H1577     1.0  0.86410  0.33920  0.76383  1.0000
  C   C914      1.0  0.90911  0.36510  0.84139  1.0000
  C   C915      1.0  0.93322  0.37449  0.84282  1.0000
  C   C916      1.0  0.94383  0.37515  0.85726  1.0000
  C   C917      1.0  0.93063  0.36587  0.87046  1.0000
  C   C918      1.0  0.90630  0.35701  0.86906  1.0000
  C   C919      1.0  0.89552  0.35677  0.85465  1.0000
  H   H1578     1.0  0.94385  0.38111  0.83265  1.0000
  H   H1579     1.0  0.96237  0.38247  0.85815  1.0000
  H   H1580     1.0  0.89587  0.34985  0.87919  1.0000
  H   H1581     1.0  0.87700  0.34938  0.85375  1.0000
  C   C920      1.0  0.80564  0.30107  0.77086  1.0000
  H   H1582     1.0  0.97631  0.28190  0.89252  1.0000
  C   C921      1.0  0.80806  0.46920  0.81732  1.0000
  H   H1583     1.0  0.59349  0.22873  0.80686  1.0000
  C   C922      1.0  0.58512  0.25423  0.82427  1.0000
  H   H1584     1.0  0.57144  0.29905  0.80365  1.0000
  H   H1585     1.0  0.68574  0.02416  0.98925  1.0000
  H   H1586     1.0  0.74301  0.34984  0.74707  1.0000
  C   C923      1.0  0.51187  0.12539  0.82159  1.0000
  H   H1587     1.0  0.61591  0.25183  0.80805  1.0000
  Fe  Fe144     1.0  0.98327  0.37359  0.89565  1.0000
  H   H1588     1.0  0.85311  0.40742  0.86808  1.0000
  C   C924      1.0  0.70753  0.26675  0.80723  1.0000
  C   C925      1.0  0.70879  0.29302  0.80500  1.0000
  C   C926      1.0  0.73152  0.30581  0.80620  1.0000
  C   C927      1.0  0.75360  0.29252  0.80949  1.0000
  C   C928      1.0  0.75236  0.26623  0.81158  1.0000
  C   C929      1.0  0.72958  0.25346  0.81055  1.0000
  H   H1589     1.0  0.69197  0.30364  0.80250  1.0000
  H   H1590     1.0  0.73194  0.32598  0.80460  1.0000
  H   H1591     1.0  0.76916  0.25565  0.81425  1.0000
  H   H1592     1.0  0.72903  0.23336  0.81252  1.0000
  C   C930      1.0  0.65661  0.11361  0.85952  1.0000
  C   C931      1.0  0.65497  0.10895  0.87551  1.0000
  C   C932      1.0  0.65917  0.08478  0.88238  1.0000
  C   C933      1.0  0.66523  0.06490  0.87333  1.0000
  C   C934      1.0  0.66714  0.06957  0.85734  1.0000
  C   C935      1.0  0.66267  0.09373  0.85044  1.0000
  H   H1593     1.0  0.65055  0.12422  0.88265  1.0000
  H   H1594     1.0  0.65819  0.08162  0.89470  1.0000
  H   H1595     1.0  0.67209  0.05441  0.85022  1.0000
  H   H1596     1.0  0.66406  0.09700  0.83813  1.0000
  C   C936      1.0  0.52369  0.01896  0.91062  1.0000
  H   H1597     1.0  0.53327  0.10230  0.87257  1.0000
  C   C937      1.0  0.52320  0.18469  0.79387  1.0000
  C   C938      1.0  0.54393  0.18763  0.80293  1.0000
  C   C939      1.0  0.53972  0.19412  0.81802  1.0000
  C   C940      1.0  0.51509  0.19807  0.82380  1.0000
  H   H1598     1.0  0.51956  0.08858  0.89025  1.0000
  H   H1599     1.0  0.52618  0.17987  0.78215  1.0000
  H   H1600     1.0  0.55542  0.19662  0.82512  1.0000
  H   H1601     1.0  0.77283  0.18573  0.75492  1.0000
  H   H1602     1.0  0.64527  0.16347  0.75806  1.0000
  H   H1603     1.0  0.89069  0.41677  0.81808  1.0000
  H   H1604     1.0  0.75425  0.15613  0.81043  1.0000
  C   C941      1.0  0.89507  0.43226  0.86914  1.0000
  C   C942      1.0  0.74283  0.29910  0.76595  1.0000
  H   H1605     1.0  0.73428  0.19222  0.79848  1.0000
  H   H1606     1.0  0.84731  0.45238  0.86288  1.0000
  H   H1607     1.0  0.69459  0.22300  0.76678  1.0000
  H   H1608     1.0  0.97101  0.33632  0.83659  1.0000
  H   H1609     1.0  0.97300  0.27933  0.84472  1.0000
  H   H1610     1.0  0.97929  0.31558  0.89183  1.0000
  H   H1611     1.0  0.95255  0.31850  0.86852  1.0000
  H   H1612     1.0  0.76939  0.14738  0.79311  1.0000
  H   H1613     1.0  0.74816  0.34726  0.76707  1.0000
  H   H1614     1.0  0.58412  0.26410  0.77027  1.0000
  H   H1615     1.0  0.52719  0.00929  0.94627  1.0000
  C   C943      1.0  0.58535  0.08118  0.91178  1.0000
  C   C944      1.0  0.59356  0.03514  0.87072  1.0000
  H   H1616     1.0  0.80988  0.33999  0.76383  1.0000
  C   C945      1.0  0.79411  0.32695  0.76632  1.0000
  H   H1617     1.0  0.73682  0.27940  0.76604  1.0000
  C   C946      1.0  0.67988  0.14323  0.75504  1.0000
  C   C947      1.0  0.86339  0.34303  0.75159  1.0000
  H   H1618     1.0  0.51049  0.10475  0.84329  1.0000
  C   C948      1.0  0.96445  0.30166  0.87104  1.0000
  H   H1619     1.0  0.52997  0.11672  0.81809  1.0000
  C   C949      1.0  0.58605  0.29170  0.79568  1.0000
  H   H1620     1.0  0.78328  0.20829  0.78517  1.0000
  H   H1621     1.0  0.81398  0.29146  0.76112  1.0000
  H   H1622     1.0  0.60539  0.01818  0.87268  1.0000
  C   C950      1.0  0.59549  0.24910  0.80810  1.0000
  H   H1623     1.0  0.51986  0.03637  0.91588  1.0000
  N   N65       1.0  0.58288  0.07713  0.88266  1.0000
  C   C951      1.0  0.59650  0.05223  0.88404  1.0000
  C   C952      1.0  0.59117  0.09228  0.89541  1.0000
  C   C953      1.0  0.54690  0.00705  0.91220  1.0000
  C   C954      1.0  0.55529  0.07194  0.88380  1.0000
  C   C955      1.0  0.55588  0.25755  0.79614  1.0000
  C   C956      1.0  0.86127  0.48641  0.85188  1.0000
  H   H1624     1.0  0.61685  0.05493  0.88518  1.0000
  C   C957      1.0  0.53735  0.09463  0.88429  1.0000
  C   C958      1.0  0.80213  0.48868  0.82692  1.0000
  H   H1625     1.0  0.59028  0.04103  0.89460  1.0000
  H   H1626     1.0  0.58304  0.11140  0.89479  1.0000
  H   H1627     1.0  0.61167  0.09520  0.89432  1.0000
  C   C959      1.0  0.59388  0.25494  0.78013  1.0000
  H   H1628     1.0  0.94500  0.31687  0.84322  1.0000
  H   H1629     1.0  0.54970  0.06175  0.87387  1.0000
  H   H1630     1.0  0.55040  0.05863  0.89372  1.0000
  H   H1631     1.0  0.54324  0.25871  0.77246  1.0000
  H   H1632     1.0  0.61025  0.08595  0.86428  1.0000
  H   H1633     1.0  0.57947  0.08260  0.85804  1.0000
  C   C960      1.0  0.58780  0.11876  0.86561  1.0000
  S   S286      1.0  0.67071  0.00274  0.96176  1.0000
  H   H1634     1.0  0.84736  0.49630  0.85910  1.0000
  C   C961      1.0  0.76603  0.21445  0.77927  1.0000
  N   N66       1.0  0.75103  0.19221  0.77558  1.0000
  C   C962      1.0  0.99059  0.49105  0.91343  1.0000
  Fe  Fe145     1.0  0.60669  0.00233  0.92107  1.0000
  H   H1635     1.0  0.54402  0.10968  0.89103  1.0000
  H   H1636     1.0  0.60012  0.04400  0.85953  1.0000
  N   N67       1.0  0.87167  0.44171  0.84384  1.0000
  C   C963      1.0  0.87697  0.45200  0.82759  1.0000
  C   C964      1.0  0.86035  0.41618  0.84315  1.0000
  H   H1637     1.0  0.68374  0.06281  0.75862  1.0000
  C   C965      1.0  0.89559  0.43672  0.81795  1.0000
  H   H1638     1.0  0.55333  0.23697  0.79672  1.0000
  C   C966      1.0  0.96369  0.31706  0.83731  1.0000
  H   H1639     1.0  0.74530  0.15462  0.75072  1.0000
  H   H1640     1.0  0.84815  0.41576  0.83318  1.0000
  H   H1641     1.0  0.87504  0.40192  0.84123  1.0000
  H   H1642     1.0  0.90851  0.42557  0.84674  1.0000
  H   H1643     1.0  0.58266  0.30131  0.78428  1.0000
  H   H1644     1.0  0.60956  0.30557  0.81328  1.0000
  H   H1645     1.0  0.89542  0.44427  0.80584  1.0000
  H   H1646     1.0  0.65771  0.06958  0.74655  1.0000
  H   H1647     1.0  0.73389  0.20792  0.75495  1.0000
  C   C967      1.0  0.65815  0.15532  0.74993  1.0000
  C   C968      1.0  0.74242  0.17875  0.79048  1.0000
  C   C969      1.0  0.76261  0.16368  0.79930  1.0000
  C   C970      1.0  0.75524  0.15133  0.76157  1.0000
  H   H1648     1.0  0.72692  0.16578  0.78881  1.0000
  H   H1649     1.0  0.62754  0.28861  0.79945  1.0000
  H   H1650     1.0  0.77855  0.17540  0.80188  1.0000
  H   H1651     1.0  0.79244  0.48437  0.83780  1.0000
  H   H1652     1.0  0.89515  0.41159  0.87121  1.0000
  H   H1653     1.0  0.58305  0.27443  0.82597  1.0000
  H   H1654     1.0  0.91186  0.43949  0.87434  1.0000
  H   H1655     1.0  0.74196  0.14319  0.77043  1.0000
  H   H1656     1.0  0.76995  0.13679  0.76010  1.0000
  C   C971      1.0  0.84406  0.40625  0.85708  1.0000
  C   C972      1.0  0.59027  0.09000  0.86730  1.0000
  H   H1657     1.0  0.51978  0.26576  0.78640  1.0000
  C   C973      1.0  0.62174  0.25979  0.77640  1.0000
  H   H1658     1.0  0.88490  0.47105  0.82724  1.0000
  H   H1659     1.0  0.96089  0.31208  0.82541  1.0000
  H   H1660     1.0  0.72574  0.31097  0.76494  1.0000
  S   S287      1.0  0.98973  0.40462  0.91097  1.0000
  H   H1661     1.0  0.85933  0.45394  0.82127  1.0000
  H   H1662     1.0  0.51639  0.14323  0.82647  1.0000
  H   H1663     1.0  0.75438  0.38958  0.75866  1.0000
  H   H1664     1.0  0.98505  0.34326  0.86057  1.0000
  H   H1665     1.0  0.57412  0.02863  0.87011  1.0000
  C   C974      1.0  0.66977  0.01260  0.99245  1.0000
  H   H1666     1.0  0.59175  0.12517  0.85344  1.0000
  H   H1667     1.0  0.87912  0.44042  0.87549  1.0000
  C   C975      1.0  0.82064  0.47511  0.80330  1.0000
  C   C976      1.0  0.96792  0.30003  0.88842  1.0000
  H   H1668     1.0  0.50143  0.12934  0.81102  1.0000
  H   H1669     1.0  0.51206  0.20352  0.83539  1.0000
  H   H1670     1.0  0.78542  0.17106  0.77134  1.0000
  C   C977      1.0  0.76151  0.30501  0.75241  1.0000
  H   H1671     1.0  0.70330  0.00876  0.86040  1.0000
  H   H1672     1.0  0.71689  0.18365  0.76474  1.0000
  C   C978      1.0  0.53981  0.26863  0.78306  1.0000
  H   H1673     1.0  0.59085  0.23446  0.77964  1.0000
  H   H1674     1.0  0.62732  0.25054  0.76580  1.0000
  C   C979      1.0  0.72844  0.20014  0.76667  1.0000
  C   C980      1.0  0.71708  0.99901  0.85311  1.0000
  H   H1675     1.0  0.62534  0.28001  0.77403  1.0000
  C   C981      1.0  0.71076  0.21912  0.77417  1.0000
  C   C982      1.0  0.61123  0.30112  0.80109  1.0000
  N   N68       1.0  0.58333  0.26380  0.79506  1.0000
  H   H1676     1.0  0.56526  0.07716  0.91393  1.0000
  H   H1677     1.0  0.60198  0.12774  0.87226  1.0000
  H   H1678     1.0  0.83537  0.45951  0.84479  1.0000
  H   H1679     1.0  0.59819  0.24614  0.83286  1.0000
  H   H1680     1.0  0.97406  0.48779  0.92072  1.0000
  H   H1681     1.0  0.78497  0.33333  0.77703  1.0000
  H   H1682     1.0  0.84019  0.38619  0.85594  1.0000
  C   C983      1.0  0.85302  0.45911  0.85107  1.0000
  H   H1683     1.0  0.56693  0.24489  0.82679  1.0000
  H   H1684     1.0  0.78807  0.22297  0.75774  1.0000
  H   H1685     1.0  0.56900  0.12575  0.86885  1.0000
  N   N69       1.0  0.77631  0.32852  0.75329  1.0000
  H   H1686     1.0  0.73569  0.99977  0.85818  1.0000
  N   N70       1.0  0.98815  0.30277  0.86116  1.0000
  H   H1687     1.0  0.59053  0.09488  0.92004  1.0000
  H   H1688     1.0  0.82534  0.46045  0.79575  1.0000
  H   H1689     1.0  0.54688  0.26400  0.80685  1.0000
  H   H1690     1.0  0.95252  0.28583  0.86843  1.0000
  H   H1691     1.0  0.91498  0.43829  0.82173  1.0000
  H   H1692     1.0  0.79184  0.28881  0.77723  1.0000
  C   C984      1.0  0.89607  0.43986  0.85187  1.0000
  C   C985      1.0  0.76887  0.37616  0.75477  1.0000
  H   H1693     1.0  0.75117  0.30179  0.77705  1.0000
  H   H1694     1.0  0.54248  0.28899  0.78070  1.0000
  H   H1695     1.0  0.78476  0.37721  0.76234  1.0000
  H   H1696     1.0  0.94936  0.30170  0.89439  1.0000
  H   H1697     1.0  0.77387  0.28838  0.75150  1.0000
  H   H1698     1.0  0.61584  0.31908  0.79462  1.0000
  C   C986      1.0  0.75788  0.34968  0.75562  1.0000
  C   C987      1.0  0.49806  0.10738  0.83344  1.0000
  C   C988      1.0  0.50511  0.00798  0.90264  1.0000
  H   H1699     1.0  0.78449  0.24801  0.76991  1.0000
  C   C989      1.0  0.65791  0.00032  0.98103  1.0000
  H   H1700     1.0  0.71836  0.00958  0.84178  1.0000
  C   C990      1.0  0.98183  0.29794  0.84504  1.0000
  H   H1701     1.0  0.75559  0.22595  0.78754  1.0000
  H   H1702     1.0  0.97836  0.25363  0.86969  1.0000
  C   C991      1.0  0.49860  0.18824  0.79972  1.0000
  H   H1703     1.0  0.71983  0.23722  0.77548  1.0000
  H   H1704     1.0  0.71301  0.12297  0.74815  1.0000
  C   C992      1.0  0.77456  0.23214  0.76552  1.0000
  H   H1705     1.0  0.75870  0.24014  0.75902  1.0000
  H   H1706     1.0  0.51752  0.00832  0.96569  1.0000
  H   H1707     1.0  0.92282  0.49119  0.91114  1.0000
  H   H1708     1.0  0.70306  0.21163  0.78543  1.0000
  H   H1709     1.0  0.49749  0.08875  0.82859  1.0000
  H   H1710     1.0  0.87962  0.48772  0.85712  1.0000
  H   H1711     1.0  0.88387  0.30956  0.74631  1.0000
  H   H1712     1.0  0.97931  0.46020  0.95232  1.0000
  C   C993      1.0  0.67798  0.06497  0.74656  1.0000
  H   H1713     1.0  0.99177  0.40219  0.97885  1.0000
  H   H1714     1.0  0.98955  0.45520  0.90400  1.0000
  C   C994      1.0  0.85147  0.36472  0.74568  1.0000
  H   H1715     1.0  0.66365  0.99720  0.85485  1.0000
  Fe  Fe146     1.0  0.66145  0.97266  0.08676  1.0000
  S   S288      1.0  0.68596  0.94244  0.09832  1.0000
  C   C995      1.0  0.56928  0.85042  0.22741  1.0000
  Fe  Fe147     1.0  0.65316  0.81909  0.15240  1.0000
  S   S289      1.0  0.63378  0.78194  0.15606  1.0000
  S   S290      1.0  0.65313  0.83518  0.12760  1.0000
  Fe  Fe148     1.0  0.66321  0.81994  0.18652  1.0000
  S   S291      1.0  0.64426  0.78343  0.19228  1.0000
  S   S292      1.0  0.68084  0.84357  0.20370  1.0000
  Fe  Fe149     1.0  0.66561  0.77047  0.17143  1.0000
  S   S293      1.0  0.68401  0.73122  0.17209  1.0000
  Fe  Fe150     1.0  0.61428  0.79814  0.17638  1.0000
  S   S294      1.0  0.57306  0.79927  0.18478  1.0000
  S   S295      1.0  0.68603  0.80656  0.16645  1.0000
  S   S296      1.0  0.63221  0.83574  0.17196  1.0000
  C   C996      1.0  0.98500  0.64571  0.23776  1.0000
  H   H1716     1.0  0.60305  0.96428  0.12577  1.0000
  S   S297      1.0  0.95766  0.61918  0.08454  1.0000
  Fe  Fe151     1.0  0.82188  0.59026  0.16212  1.0000
  S   S298      1.0  0.85694  0.58974  0.17503  1.0000
  S   S299      1.0  0.80725  0.55374  0.15403  1.0000
  Fe  Fe152     1.0  0.81439  0.64758  0.16368  1.0000
  S   S300      1.0  0.85018  0.65020  0.17629  1.0000
  S   S301      1.0  0.79394  0.68553  0.15937  1.0000
  Fe  Fe153     1.0  0.86717  0.62373  0.15975  1.0000
  S   S302      1.0  0.90814  0.62496  0.15174  1.0000
  Fe  Fe154     1.0  0.83698  0.61615  0.19021  1.0000
  S   S303      1.0  0.83519  0.60993  0.21607  1.0000
  S   S304      1.0  0.83271  0.62337  0.14596  1.0000
  S   S305      1.0  0.80056  0.61439  0.17847  1.0000
  C   C997      1.0  0.81845  0.52301  0.15921  1.0000
  H   H1717     1.0  0.57465  0.96219  0.07489  1.0000
  H   H1718     1.0  0.70034  0.76564  0.14406  1.0000
  C   C998      1.0  0.84047  0.51875  0.16710  1.0000
  H   H1719     1.0  0.85498  0.54607  0.19707  1.0000
  H   H1720     1.0  0.85149  0.53437  0.16990  1.0000
  C   C999      1.0  0.83239  0.53619  0.21811  1.0000
  N   N71       1.0  0.80702  0.53104  0.21221  1.0000
  C   C1000     1.0  0.85384  0.62793  0.22727  1.0000
  C   C1001     1.0  0.87120  0.64490  0.22051  1.0000
  C   C1002     1.0  0.88523  0.65952  0.22971  1.0000
  C   C1003     1.0  0.71742  0.71932  0.10981  1.0000
  H   H1721     1.0  0.87393  0.64670  0.20821  1.0000
  H   H1722     1.0  0.89868  0.67254  0.22439  1.0000
  C   C1004     1.0  0.94428  0.62110  0.10330  1.0000
  C   C1005     1.0  0.95862  0.61800  0.11630  1.0000
  C   C1006     1.0  0.94724  0.61937  0.13099  1.0000
  C   C1007     1.0  0.92140  0.62372  0.13291  1.0000
  C   C1008     1.0  0.90700  0.62674  0.11993  1.0000
  C   C1009     1.0  0.91840  0.62542  0.10522  1.0000
  H   H1723     1.0  0.97853  0.61473  0.11503  1.0000
  H   H1724     1.0  0.95858  0.61715  0.14094  1.0000
  H   H1725     1.0  0.88716  0.63040  0.12122  1.0000
  H   H1726     1.0  0.90717  0.62799  0.09524  1.0000
  C   C1010     1.0  0.66503  0.73604  0.13145  1.0000
  C   C1011     1.0  0.71496  0.71910  0.16898  1.0000
  C   C1012     1.0  0.73519  0.73439  0.16440  1.0000
  C   C1013     1.0  0.75901  0.72373  0.16134  1.0000
  C   C1014     1.0  0.76322  0.69770  0.16322  1.0000
  C   C1015     1.0  0.74317  0.68247  0.16823  1.0000
  C   C1016     1.0  0.71921  0.69309  0.17093  1.0000
  H   H1727     1.0  0.73249  0.75442  0.16321  1.0000
  H   H1728     1.0  0.77439  0.73578  0.15762  1.0000
  H   H1729     1.0  0.74599  0.66246  0.16978  1.0000
  H   H1730     1.0  0.70380  0.68101  0.17453  1.0000
  H   H1731     1.0  0.60240  0.82731  0.20416  1.0000
  C   C1017     1.0  0.80253  0.55010  0.19908  1.0000
  C   C1018     1.0  0.54230  0.78747  0.16114  1.0000
  C   C1019     1.0  0.54394  0.79580  0.17587  1.0000
  C   C1020     1.0  0.52162  0.80113  0.18410  1.0000
  H   H1732     1.0  0.58126  0.91501  0.09088  1.0000
  H   H1733     1.0  0.70850  0.97022  0.04605  1.0000
  H   H1734     1.0  0.55921  0.78312  0.15466  1.0000
  H   H1735     1.0  0.52248  0.80743  0.19551  1.0000
  H   H1736     1.0  0.76908  0.52654  0.22147  1.0000
  C   C1021     1.0  0.52390  0.98402  0.09452  1.0000
  C   C1022     1.0  0.54112  0.91973  0.11651  1.0000
  C   C1023     1.0  0.68047  0.83649  0.22373  1.0000
  H   H1737     1.0  0.97882  0.50336  0.06483  1.0000
  C   C1024     1.0  0.69411  0.94779  0.01166  1.0000
  H   H1738     1.0  0.66600  0.79938  0.22319  1.0000
  C   C1025     1.0  0.53660  0.95448  0.07026  1.0000
  C   C1026     1.0  0.67488  0.91361  0.10695  1.0000
  C   C1027     1.0  0.66184  0.89712  0.09857  1.0000
  C   C1028     1.0  0.65537  0.87326  0.10511  1.0000
  C   C1029     1.0  0.66135  0.86574  0.12021  1.0000
  C   C1030     1.0  0.67404  0.88234  0.12872  1.0000
  C   C1031     1.0  0.68112  0.90600  0.12201  1.0000
  H   H1739     1.0  0.65742  0.90247  0.08688  1.0000
  H   H1740     1.0  0.64579  0.86048  0.09838  1.0000
  H   H1741     1.0  0.67901  0.87674  0.14030  1.0000
  H   H1742     1.0  0.69165  0.91841  0.12849  1.0000
  H   H1743     1.0  0.77552  0.56457  0.18273  1.0000
  H   H1744     1.0  0.54154  0.94327  0.06076  1.0000
  H   H1745     1.0  0.64510  0.73247  0.12944  1.0000
  H   H1746     1.0  0.50408  0.84051  0.13108  1.0000
  H   H1747     1.0  0.72082  0.90094  0.01535  1.0000
  H   H1748     1.0  0.66306  0.77119  0.11860  1.0000
  C   C1032     1.0  0.67672  0.92843  0.00547  1.0000
  N   N72       1.0  0.59217  0.83370  0.22767  1.0000
  C   C1033     1.0  0.58317  0.80703  0.22852  1.0000
  H   H1749     1.0  0.51003  0.83912  0.11068  1.0000
  H   H1750     1.0  0.78648  0.63915  0.20791  1.0000
  H   H1751     1.0  0.56207  0.84661  0.20290  1.0000
  H   H1752     1.0  0.54060  0.83003  0.21617  1.0000
  H   H1753     1.0  0.76623  0.66526  0.21077  1.0000
  C   C1034     1.0  0.78698  0.53494  0.22445  1.0000
  H   H1754     1.0  0.77493  0.74667  0.21507  1.0000
  H   H1755     1.0  0.80512  0.56942  0.20268  1.0000
  H   H1756     1.0  0.81557  0.50436  0.19509  1.0000
  H   H1757     1.0  0.52602  0.98256  0.04011  1.0000
  H   H1758     1.0  0.60870  0.87991  0.21495  1.0000
  H   H1759     1.0  0.51772  0.77703  0.14372  1.0000
  H   H1760     1.0  0.66058  0.94427  0.03565  1.0000
  H   H1761     1.0  0.77373  0.53175  0.18648  1.0000
  H   H1762     1.0  0.85491  0.72308  0.18496  1.0000
  C   C1035     1.0  0.72374  0.90322  0.02760  1.0000
  H   H1763     1.0  0.79850  0.50505  0.24160  1.0000
  H   H1764     1.0  0.91275  0.53810  0.15310  1.0000
  H   H1765     1.0  0.82403  0.66537  0.20750  1.0000
  C   C1036     1.0  0.50513  0.97403  0.08619  1.0000
  C   C1037     1.0  0.80532  0.50538  0.20627  1.0000
  C   C1038     1.0  0.82991  0.71316  0.20452  1.0000
  C   C1039     1.0  0.55182  0.84723  0.21409  1.0000
  H   H1766     1.0  0.78559  0.71223  0.18873  1.0000
  H   H1767     1.0  0.73919  0.93957  0.02383  1.0000
  H   H1768     1.0  0.57371  0.80304  0.21789  1.0000
  H   H1769     1.0  0.82318  0.73189  0.18177  1.0000
  C   C1040     1.0  0.71044  0.77621  0.10505  1.0000
  H   H1770     1.0  0.78290  0.55530  0.22528  1.0000
  C   C1041     1.0  0.70265  0.97108  0.03399  1.0000
  H   H1771     1.0  0.74639  0.76295  0.23546  1.0000
  H   H1772     1.0  0.52722  0.93513  0.11465  1.0000
  H   H1773     1.0  0.74518  0.77456  0.13691  1.0000
  C   C1042     1.0  0.78395  0.71466  0.20121  1.0000
  H   H1774     1.0  0.71549  0.72911  0.13335  1.0000
  C   C1043     1.0  0.67182  0.81365  0.23039  1.0000
  H   H1775     1.0  0.74235  0.89489  0.03014  1.0000
  C   C1044     1.0  0.56703  0.93119  0.11807  1.0000
  C   C1045     1.0  0.69746  0.80192  0.10207  1.0000
  H   H1776     1.0  0.57163  0.94240  0.10729  1.0000
  C   C1046     1.0  0.82093  0.69020  0.23643  1.0000
  H   H1777     1.0  0.70676  0.76550  0.09496  1.0000
  H   H1778     1.0  0.80402  0.67356  0.19254  1.0000
  H   H1779     1.0  0.98270  0.55995  0.01993  1.0000
  H   H1780     1.0  0.61329  0.97069  0.00418  1.0000
  C   C1047     1.0  0.85066  0.62572  0.24328  1.0000
  C   C1048     1.0  0.67802  0.93322  0.03770  1.0000
  H   H1781     1.0  0.54066  0.90838  0.10641  1.0000
  H   H1782     1.0  0.60994  0.89746  0.09062  1.0000
  H   H1783     1.0  0.74129  0.98061  0.02614  1.0000
  H   H1784     1.0  0.68133  0.94809  0.06051  1.0000
  H   H1785     1.0  0.57402  0.87045  0.22710  1.0000
  S   S306      1.0  0.63069  0.98857  0.03202  1.0000
  H   H1786     1.0  0.87233  0.53480  0.21296  1.0000
  H   H1787     1.0  0.63129  0.86784  0.20209  1.0000
  H   H1788     1.0  0.69860  0.71108  0.10973  1.0000
  N   N73       1.0  0.88912  0.55151  0.12454  1.0000
  C   C1049     1.0  0.87264  0.56638  0.11357  1.0000
  C   C1050     1.0  0.91570  0.55441  0.11840  1.0000
  C   C1051     1.0  0.88610  0.56250  0.13995  1.0000
  C   C1052     1.0  0.88061  0.52475  0.12550  1.0000
  C   C1053     1.0  0.84479  0.56859  0.11858  1.0000
  C   C1054     1.0  0.92143  0.54499  0.10239  1.0000
  H   H1789     1.0  0.68448  0.98143  0.03390  1.0000
  H   H1790     1.0  0.87966  0.58578  0.11133  1.0000
  H   H1791     1.0  0.87292  0.55818  0.10224  1.0000
  H   H1792     1.0  0.92932  0.54494  0.12608  1.0000
  H   H1793     1.0  0.92103  0.57444  0.11790  1.0000
  H   H1794     1.0  0.88378  0.58320  0.13851  1.0000
  H   H1795     1.0  0.86871  0.55573  0.14612  1.0000
  H   H1796     1.0  0.86151  0.52334  0.13093  1.0000
  H   H1797     1.0  0.70984  0.89234  0.03486  1.0000
  H   H1798     1.0  0.83537  0.55026  0.11953  1.0000
  H   H1799     1.0  0.84207  0.57774  0.12947  1.0000
  H   H1800     1.0  0.83496  0.58051  0.10980  1.0000
  H   H1801     1.0  0.63539  0.95598  0.12617  1.0000
  H   H1802     1.0  0.73097  0.77917  0.10451  1.0000
  H   H1803     1.0  0.91241  0.55698  0.09333  1.0000
  H   H1804     1.0  0.66553  0.74399  0.14272  1.0000
  S   S307      1.0  0.62727  0.96499  0.07407  1.0000
  H   H1805     1.0  0.68263  0.90886  0.00819  1.0000
  C   C1055     1.0  0.67549  0.75435  0.11854  1.0000
  H   H1806     1.0  0.58062  0.91944  0.14597  1.0000
  H   H1807     1.0  0.81630  0.54788  0.18948  1.0000
  H   H1808     1.0  0.58031  0.88256  0.08881  1.0000
  C   C1056     1.0  0.70453  0.77710  0.13325  1.0000
  H   H1809     1.0  0.67479  0.71766  0.13199  1.0000
  H   H1810     1.0  0.72280  0.72713  0.09815  1.0000
  H   H1811     1.0  0.69026  0.79241  0.13310  1.0000
  H   H1812     1.0  0.82858  0.67303  0.23171  1.0000
  H   H1813     1.0  0.78220  0.69685  0.23037  1.0000
  C   C1057     1.0  0.59010  0.89704  0.09471  1.0000
  H   H1814     1.0  0.61488  0.93316  0.10701  1.0000
  H   H1815     1.0  0.91620  0.52520  0.10172  1.0000
  H   H1816     1.0  0.60398  0.87820  0.11489  1.0000
  C   C1058     1.0  0.61239  0.92615  0.11922  1.0000
  H   H1817     1.0  0.67238  0.74605  0.10748  1.0000
  C   C1059     1.0  0.73030  0.78888  0.13505  1.0000
  H   H1818     1.0  0.67700  0.80027  0.10112  1.0000
  C   C1060     1.0  0.58794  0.89093  0.11221  1.0000
  N   N74       1.0  0.70241  0.76160  0.11967  1.0000
  C   C1061     1.0  0.71912  0.73885  0.12186  1.0000
  H   H1819     1.0  0.72947  0.79991  0.14533  1.0000
  H   H1820     1.0  0.73066  0.70369  0.11266  1.0000
  H   H1821     1.0  0.56719  0.89195  0.14012  1.0000
  H   H1822     1.0  0.70122  0.81508  0.11090  1.0000
  H   H1823     1.0  0.83638  0.52458  0.22867  1.0000
  H   H1824     1.0  0.83311  0.55578  0.22157  1.0000
  H   H1825     1.0  0.83674  0.70279  0.23809  1.0000
  H   H1826     1.0  0.62817  0.91293  0.12125  1.0000
  N   N75       1.0  0.58788  0.91299  0.12199  1.0000
  H   H1827     1.0  0.57143  0.87885  0.11492  1.0000
  C   C1062     1.0  0.89639  0.50528  0.13475  1.0000
  H   H1828     1.0  0.73907  0.74427  0.12169  1.0000
  H   H1829     1.0  0.73577  0.80204  0.12527  1.0000
  H   H1830     1.0  0.53495  0.90840  0.12697  1.0000
  H   H1831     1.0  0.70478  0.81073  0.09100  1.0000
  C   C1063     1.0  0.60572  0.88771  0.14545  1.0000
  H   H1832     1.0  0.62321  0.89839  0.14581  1.0000
  H   H1833     1.0  0.60944  0.87042  0.13945  1.0000
  C   C1064     1.0  0.54900  0.98016  0.09028  1.0000
  H   H1834     1.0  0.91668  0.50855  0.13371  1.0000
  C   C1065     1.0  0.58417  0.90365  0.13853  1.0000
  H   H1835     1.0  0.60039  0.88167  0.15749  1.0000
  C   C1066     1.0  0.49805  0.79805  0.17784  1.0000
  C   C1067     1.0  0.55535  0.96525  0.07822  1.0000
  H   H1836     1.0  0.62196  0.82398  0.24308  1.0000
  H   H1837     1.0  0.98128  0.55194  0.04007  1.0000
  H   H1838     1.0  0.66407  0.92022  0.06035  1.0000
  H   H1839     1.0  0.72949  0.93196  0.04307  1.0000
  H   H1840     1.0  0.76622  0.75059  0.19566  1.0000
  C   C1068     1.0  0.51149  0.95943  0.07397  1.0000
  H   H1841     1.0  0.90193  0.56505  0.16227  1.0000
  N   N76       1.0  0.80519  0.70146  0.20932  1.0000
  H   H1842     1.0  0.76113  0.55290  0.20033  1.0000
  H   H1843     1.0  0.83184  0.73158  0.20947  1.0000
  H   H1844     1.0  0.71839  0.78006  0.23865  1.0000
  H   H1845     1.0  0.98853  0.51552  0.02254  1.0000
  H   H1846     1.0  0.69537  0.87228  0.22819  1.0000
  H   H1847     1.0  0.92439  0.56885  0.14696  1.0000
  H   H1848     1.0  0.68473  0.96592  0.00866  1.0000
  H   H1849     1.0  0.83304  0.69973  0.18123  1.0000
  H   H1850     1.0  0.78793  0.65428  0.22526  1.0000
  C   C1069     1.0  0.62897  0.98263  0.00098  1.0000
  H   H1851     1.0  0.87815  0.51790  0.11395  1.0000
  C   C1070     1.0  0.72371  0.93095  0.03107  1.0000
  C   C1071     1.0  0.61626  0.94875  0.12879  1.0000
  N   N77       1.0  0.69962  0.94520  0.02854  1.0000
  H   H1852     1.0  0.65717  0.93121  0.00978  1.0000
  C   C1072     1.0  0.61190  0.86528  0.20681  1.0000
  H   H1853     1.0  0.85546  0.51297  0.20296  1.0000
  C   C1073     1.0  0.85479  0.53214  0.20695  1.0000
  C   C1074     1.0  0.60914  0.83799  0.21360  1.0000
  H   H1854     1.0  0.62817  0.83047  0.21582  1.0000
  H   H1855     1.0  0.50498  0.81120  0.12263  1.0000
  C   C1075     1.0  0.68077  0.92997  0.05518  1.0000
  C   C1076     1.0  0.80108  0.70334  0.22629  1.0000
  H   H1856     1.0  0.76519  0.79950  0.23917  1.0000
  H   H1857     1.0  0.55782  0.84715  0.23822  1.0000
  C   C1077     1.0  0.77663  0.54946  0.19198  1.0000
  H   H1858     1.0  0.67415  0.91433  0.03401  1.0000
  C   C1078     1.0  0.68852  0.85460  0.23324  1.0000
  H   H1859     1.0  0.78578  0.50143  0.20344  1.0000
  C   C1079     1.0  0.78106  0.74293  0.20323  1.0000
  Fe  Fe155     1.0  0.60949  0.99525  0.08738  1.0000
  H   H1860     1.0  0.56476  0.94533  0.12677  1.0000
  H   H1861     1.0  0.84560  0.70150  0.20923  1.0000
  H   H1862     1.0  0.79828  0.75339  0.19989  1.0000
  H   H1863     1.0  0.53839  0.86319  0.21325  1.0000
  C   C1080     1.0  0.78524  0.65771  0.21281  1.0000
  H   H1864     1.0  0.76577  0.70615  0.20498  1.0000
  H   H1865     1.0  0.59984  0.86883  0.19687  1.0000
  C   C1081     1.0  0.51869  0.78406  0.15495  1.0000
  H   H1866     1.0  0.63270  0.86681  0.23502  1.0000
  C   C1082     1.0  0.80575  0.67460  0.20509  1.0000
  C   C1083     1.0  0.83527  0.71708  0.18713  1.0000
  C   C1084     1.0  0.90765  0.55801  0.15103  1.0000
  C   C1085     1.0  0.72196  0.98788  0.02487  1.0000
  H   H1867     1.0  0.61493  0.94374  0.14124  1.0000
  C   C1086     1.0  0.60338  0.78641  0.23068  1.0000
  C   C1087     1.0  0.49638  0.78921  0.16327  1.0000
  H   H1868     1.0  0.94187  0.54626  0.09981  1.0000
  H   H1869     1.0  0.97752  0.64645  0.22609  1.0000
  H   H1870     1.0  0.98250  0.62625  0.24265  1.0000
  H   H1871     1.0  0.80116  0.72320  0.22916  1.0000
  H   H1872     1.0  0.71167  0.94816  0.00443  1.0000
  H   H1873     1.0  0.78769  0.50531  0.14930  1.0000
  H   H1874     1.0  0.69723  0.91834  0.05843  1.0000
  C   C1088     1.0  0.80465  0.50229  0.15550  1.0000
  H   H1875     1.0  0.61968  0.78952  0.22269  1.0000
  C   C1089     1.0  0.64099  0.99468  0.01242  1.0000
  C   C1090     1.0  0.49909  0.83110  0.12078  1.0000
  H   H1876     1.0  0.79014  0.76295  0.24476  1.0000
  C   C1091     1.0  0.99387  0.55259  0.02969  1.0000
  H   H1877     1.0  0.89017  0.50410  0.14701  1.0000
  H   H1878     1.0  0.96771  0.68170  0.23980  1.0000
  H   H1879     1.0  0.60317  0.87832  0.24316  1.0000
  C   C1092     1.0  0.60593  0.83718  0.24205  1.0000
  H   H1880     1.0  0.60961  0.78455  0.24263  1.0000
  H   H1881     1.0  0.56889  0.80380  0.23801  1.0000
  C   C1093     1.0  0.73577  0.77328  0.24420  1.0000
  H   H1882     1.0  0.59534  0.76814  0.22831  1.0000
  C   C1094     1.0  0.79238  0.52482  0.24089  1.0000
  H   H1883     1.0  0.71792  0.99079  0.01257  1.0000
  S   S308      1.0  0.57215  0.99461  0.09992  1.0000
  H   H1884     1.0  0.55322  0.99527  0.04766  1.0000
  H   H1885     1.0  0.51894  0.99556  0.10387  1.0000
  C   C1095     1.0  0.61726  0.86302  0.24362  1.0000
  Fe  Fe156     1.0  0.63964  0.99627  0.05687  1.0000
  S   S309      1.0  0.51883  0.89062  0.38094  1.0000
  Fe  Fe157     1.0  0.52817  0.88197  0.42551  1.0000
  S   S310      1.0  0.55940  0.89254  0.40818  1.0000
  S   S311      1.0  0.54012  0.88448  0.45057  1.0000
  Fe  Fe158     1.0  0.53145  0.91825  0.39682  1.0000
  C   C1096     1.0  0.50108  0.78680  0.35809  1.0000
  Fe  Fe159     1.0  0.54484  0.86398  0.39343  1.0000
  S   S312      1.0  0.56712  0.83910  0.37764  1.0000
  S   S313      1.0  0.51554  0.85076  0.41135  1.0000
  Fe  Fe160     1.0  0.69246  0.85998  0.32599  1.0000
  S   S314      1.0  0.72791  0.88189  0.32148  1.0000
  S   S315      1.0  0.67740  0.86068  0.35062  1.0000
  Fe  Fe161     1.0  0.69123  0.84702  0.29257  1.0000
  S   S316      1.0  0.72559  0.86892  0.28593  1.0000
  S   S317      1.0  0.67283  0.82287  0.27596  1.0000
  Fe  Fe162     1.0  0.74129  0.85009  0.30735  1.0000
  S   S318      1.0  0.78149  0.83405  0.30693  1.0000
  Fe  Fe163     1.0  0.70913  0.89847  0.30068  1.0000
  S   S319      1.0  0.70562  0.93959  0.29202  1.0000
  S   S320      1.0  0.70739  0.82709  0.31355  1.0000
  S   S321      1.0  0.67318  0.87770  0.30567  1.0000
  C   C1097     1.0  0.49970  0.82934  0.36849  1.0000
  S   S322      1.0  0.89448  0.55492  0.39166  1.0000
  C   C1098     1.0  0.96582  0.57238  0.34753  1.0000
  H   H1886     1.0  0.81279  0.77076  0.25849  1.0000
  Fe  Fe164     1.0  0.86928  0.70285  0.30866  1.0000
  S   S323      1.0  0.86261  0.66656  0.29778  1.0000
  S   S324      1.0  0.83219  0.72450  0.31320  1.0000
  Fe  Fe165     1.0  0.92656  0.69166  0.30934  1.0000
  S   S325      1.0  0.92251  0.65547  0.29831  1.0000
  S   S326      1.0  0.96561  0.69923  0.31802  1.0000
  Fe  Fe166     1.0  0.89610  0.67652  0.28269  1.0000
  S   S327      1.0  0.90013  0.67624  0.25672  1.0000
  Fe  Fe167     1.0  0.88953  0.64842  0.31455  1.0000
  S   S328      1.0  0.88551  0.60776  0.32432  1.0000
  S   S329      1.0  0.90202  0.71360  0.29266  1.0000
  S   S330      1.0  0.89426  0.68378  0.32648  1.0000
  H   H1887     1.0  0.54515  0.93234  0.46294  1.0000
  H   H1888     1.0  0.86206  0.63859  0.26481  1.0000
  H   H1889     1.0  0.88063  0.59459  0.41200  1.0000
  H   H1890     1.0  0.84798  0.59803  0.41001  1.0000
  C   C1099     1.0  0.89210  0.56926  0.37284  1.0000
  C   C1100     1.0  0.88937  0.55527  0.36012  1.0000
  C   C1101     1.0  0.88756  0.56741  0.34541  1.0000
  C   C1102     1.0  0.88863  0.59364  0.34316  1.0000
  C   C1103     1.0  0.89178  0.60760  0.35586  1.0000
  C   C1104     1.0  0.89337  0.59547  0.37060  1.0000
  H   H1891     1.0  0.88836  0.53512  0.36163  1.0000
  H   H1892     1.0  0.88509  0.55642  0.33569  1.0000
  H   H1893     1.0  0.89258  0.62777  0.35433  1.0000
  H   H1894     1.0  0.89551  0.60652  0.38033  1.0000
  H   H1895     1.0  0.56628  0.99110  0.41890  1.0000
  H   H1896     1.0  0.95094  0.65719  0.24925  1.0000
  H   H1897     1.0  0.83743  0.56887  0.43049  1.0000
  C   C1105     1.0  0.74409  0.80095  0.27633  1.0000
  H   H1898     1.0  0.57448  0.94422  0.41282  1.0000
  C   C1106     1.0  0.79498  0.80324  0.30789  1.0000
  C   C1107     1.0  0.78074  0.78174  0.31120  1.0000
  C   C1108     1.0  0.79246  0.75792  0.31254  1.0000
  C   C1109     1.0  0.81854  0.75507  0.31046  1.0000
  C   C1110     1.0  0.83270  0.77652  0.30680  1.0000
  C   C1111     1.0  0.82100  0.80038  0.30562  1.0000
  H   H1899     1.0  0.76073  0.78341  0.31289  1.0000
  H   H1900     1.0  0.78126  0.74152  0.31536  1.0000
  H   H1901     1.0  0.85275  0.77477  0.30521  1.0000
  H   H1902     1.0  0.83231  0.81678  0.30309  1.0000
  C   C1112     1.0  0.67746  0.82795  0.25592  1.0000
  H   H1903     1.0  0.81233  0.68406  0.24777  1.0000
  C   C1113     1.0  0.52458  0.97990  0.39307  1.0000
  H   H1904     1.0  0.50916  0.98218  0.44286  1.0000
  C   C1114     1.0  0.70970  0.96752  0.30153  1.0000
  C   C1115     1.0  0.72036  0.96744  0.31584  1.0000
  H   H1905     1.0  0.61449  0.96038  0.32883  1.0000
  H   H1906     1.0  0.72724  0.95008  0.32120  1.0000
  C   C1116     1.0  0.64580  0.85664  0.35705  1.0000
  C   C1117     1.0  0.63784  0.86593  0.37107  1.0000
  C   C1118     1.0  0.61339  0.86181  0.37711  1.0000
  C   C1119     1.0  0.59685  0.84761  0.36942  1.0000
  C   C1120     1.0  0.60474  0.83849  0.35532  1.0000
  C   C1121     1.0  0.62895  0.84331  0.34903  1.0000
  H   H1907     1.0  0.65078  0.87606  0.37743  1.0000
  H   H1908     1.0  0.60768  0.86868  0.38804  1.0000
  H   H1909     1.0  0.59216  0.82736  0.34933  1.0000
  H   H1910     1.0  0.63487  0.83590  0.33829  1.0000
  H   H1911     1.0  0.76234  0.84494  0.25280  1.0000
  H   H1912     1.0  0.59517  0.93776  0.37218  1.0000
  H   H1913     1.0  0.99195  0.62691  0.29375  1.0000
  H   H1914     1.0  0.59354  0.83281  0.25236  1.0000
  C   C1122     1.0  0.54637  0.88356  0.48193  1.0000
  C   C1123     1.0  0.53021  0.87800  0.47030  1.0000
  H   H1915     1.0  0.82963  0.52794  0.43929  1.0000
  H   H1916     1.0  0.56456  0.89112  0.47877  1.0000
  C   C1124     1.0  0.77414  0.76886  0.26789  1.0000
  C   C1125     1.0  0.95731  0.56777  0.36447  1.0000
  N   N78       1.0  0.98121  0.66974  0.26236  1.0000
  N   N79       1.0  0.56108  0.96733  0.43981  1.0000
  H   H1917     1.0  0.86166  0.60989  0.42632  1.0000
  H   H1918     1.0  0.94821  0.72521  0.26952  1.0000
  H   H1919     1.0  0.66303  0.79195  0.25150  1.0000
  H   H1920     1.0  0.94561  0.56871  0.41025  1.0000
  C   C1126     1.0  0.99085  0.64628  0.28845  1.0000
  H   H1921     1.0  0.94134  0.55472  0.36490  1.0000
  H   H1922     1.0  0.59789  0.92567  0.35378  1.0000
  H   H1923     1.0  0.96051  0.50748  0.37781  1.0000
  H   H1924     1.0  0.62583  0.86302  0.25497  1.0000
  C   C1127     1.0  0.70159  0.99048  0.29454  1.0000
  C   C1128     1.0  0.83907  0.53076  0.45009  1.0000
  H   H1925     1.0  0.49745  0.95524  0.43501  1.0000
  H   H1926     1.0  0.94745  0.54130  0.38976  1.0000
  C   C1129     1.0  0.96429  0.68793  0.27028  1.0000
  C   C1130     1.0  0.96443  0.55262  0.39082  1.0000
  H   H1927     1.0  0.76825  0.84675  0.27294  1.0000
  H   H1928     1.0  0.97354  0.55530  0.34259  1.0000
  H   H1929     1.0  0.65376  0.92749  0.31411  1.0000
  H   H1930     1.0  0.71189  0.78902  0.29046  1.0000
  H   H1931     1.0  0.75381  0.80398  0.28699  1.0000
  H   H1932     1.0  0.92158  0.57184  0.45531  1.0000
  S   S331      1.0  0.92921  0.50507  0.41505  1.0000
  C   C1131     1.0  0.90027  0.56310  0.43549  1.0000
  S   S332      1.0  0.54435  0.95597  0.38706  1.0000
  H   H1933     1.0  0.79269  0.85220  0.25897  1.0000
  N   N80       1.0  0.75940  0.80997  0.35608  1.0000
  C   C1132     1.0  0.75387  0.83554  0.34854  1.0000
  C   C1133     1.0  0.74112  0.79213  0.35019  1.0000
  C   C1134     1.0  0.78584  0.80275  0.35137  1.0000
  C   C1135     1.0  0.75662  0.81181  0.37315  1.0000
  C   C1136     1.0  0.77307  0.85607  0.35081  1.0000
  C   C1137     1.0  0.71337  0.79716  0.35434  1.0000
  C   C1138     1.0  0.79298  0.77472  0.35264  1.0000
  C   C1139     1.0  0.75810  0.78727  0.38333  1.0000
  H   H1934     1.0  0.75246  0.83447  0.33596  1.0000
  H   H1935     1.0  0.73547  0.84293  0.35265  1.0000
  H   H1936     1.0  0.74492  0.77248  0.35420  1.0000
  H   H1937     1.0  0.74309  0.79227  0.33749  1.0000
  H   H1938     1.0  0.78993  0.80901  0.33917  1.0000
  H   H1939     1.0  0.79955  0.81252  0.35801  1.0000
  H   H1940     1.0  0.77136  0.82388  0.37716  1.0000
  H   H1941     1.0  0.73900  0.82179  0.37638  1.0000
  H   H1942     1.0  0.76630  0.87405  0.34532  1.0000
  H   H1943     1.0  0.77540  0.85921  0.36302  1.0000
  H   H1944     1.0  0.79143  0.85210  0.34514  1.0000
  H   H1945     1.0  0.70959  0.79691  0.36686  1.0000
  H   H1946     1.0  0.70657  0.81499  0.34880  1.0000
  H   H1947     1.0  0.70196  0.78222  0.35001  1.0000
  H   H1948     1.0  0.81321  0.77268  0.34962  1.0000
  H   H1949     1.0  0.78312  0.76414  0.34431  1.0000
  H   H1950     1.0  0.78991  0.76588  0.36427  1.0000
  H   H1951     1.0  0.77757  0.78328  0.38675  1.0000
  H   H1952     1.0  0.75076  0.77082  0.37815  1.0000
  H   H1953     1.0  0.74624  0.78917  0.39387  1.0000
  H   H1954     1.0  0.94315  0.58795  0.39299  1.0000
  C   C1140     1.0  0.99572  0.70388  0.30890  1.0000
  H   H1955     1.0  0.69876  0.94379  0.34597  1.0000
  H   H1956     1.0  0.51553  0.83036  0.34441  1.0000
  H   H1957     1.0  0.79713  0.81003  0.25372  1.0000
  S   S333      1.0  0.50107  0.90986  0.41473  1.0000
  H   H1958     1.0  0.50175  0.79040  0.38899  1.0000
  C   C1141     1.0  0.56637  0.99241  0.43152  1.0000
  C   C1142     1.0  0.86775  0.58128  0.45272  1.0000
  H   H1959     1.0  0.79470  0.81027  0.27398  1.0000
  H   H1960     1.0  0.76023  0.75379  0.26866  1.0000
  C   C1143     1.0  0.98949  0.53479  0.37017  1.0000
  H   H1961     1.0  0.88975  0.56407  0.47189  1.0000
  H   H1962     1.0  0.51552  0.82719  0.37635  1.0000
  C   C1144     1.0  0.97178  0.51332  0.36736  1.0000
  H   H1963     1.0  0.53940  0.93506  0.43470  1.0000
  C   C1145     1.0  0.86707  0.53602  0.44689  1.0000
  H   H1964     1.0  0.73792  0.81269  0.24753  1.0000
  N   N81       1.0  0.97702  0.55832  0.37532  1.0000
  H   H1965     1.0  0.94512  0.68038  0.27174  1.0000
  C   C1146     1.0  0.58318  0.95034  0.43664  1.0000
  H   H1966     1.0  0.78186  0.76834  0.27954  1.0000
  N   N82       1.0  0.76271  0.79425  0.26387  1.0000
  C   C1147     1.0  0.72240  0.98995  0.32316  1.0000
  C   C1148     1.0  0.75071  0.79610  0.24851  1.0000
  H   H1967     1.0  0.68641  0.92923  0.32979  1.0000
  H   H1968     1.0  0.94926  0.57827  0.34085  1.0000
  H   H1969     1.0  0.53931  0.79871  0.36268  1.0000
  C   C1149     1.0  0.52819  0.78142  0.36282  1.0000
  H   H1970     1.0  0.57736  0.93651  0.46735  1.0000
  H   H1971     1.0  0.73443  0.81898  0.27317  1.0000
  H   H1972     1.0  0.73026  0.76343  0.28471  1.0000
  C   C1150     1.0  0.60887  0.93257  0.36305  1.0000
  C   C1151     1.0  0.50695  0.86777  0.47475  1.0000
  H   H1973     1.0  0.90351  0.55030  0.42609  1.0000
  C   C1152     1.0  0.91989  0.55655  0.44752  1.0000
  C   C1153     1.0  0.66029  0.93018  0.34999  1.0000
  Fe  Fe168     1.0  0.89853  0.51318  0.39868  1.0000
  C   C1154     1.0  0.72319  0.78213  0.28070  1.0000
  H   H1974     1.0  0.86017  0.55413  0.41873  1.0000
  H   H1975     1.0  0.94910  0.58578  0.36798  1.0000
  N   N83       1.0  0.64386  0.95219  0.34501  1.0000
  C   C1155     1.0  0.62444  0.95578  0.35766  1.0000
  C   C1156     1.0  0.65900  0.97579  0.34306  1.0000
  H   H1976     1.0  0.69576  0.91091  0.34630  1.0000
  H   H1977     1.0  0.60002  0.95649  0.44238  1.0000
  H   H1978     1.0  0.83695  0.51315  0.45740  1.0000
  H   H1979     1.0  0.67480  0.97420  0.33468  1.0000
  H   H1980     1.0  0.65104  0.91220  0.34818  1.0000
  H   H1981     1.0  0.63331  0.96222  0.36798  1.0000
  H   H1982     1.0  0.61067  0.97063  0.35421  1.0000
  C   C1157     1.0  0.95602  0.57543  0.39961  1.0000
  H   H1983     1.0  0.66801  0.97928  0.35395  1.0000
  H   H1984     1.0  0.97938  0.58779  0.34580  1.0000
  C   C1158     1.0  0.96188  0.71447  0.26262  1.0000
  H   H1985     1.0  0.53632  0.96093  0.42157  1.0000
  H   H1986     1.0  0.69345  0.99082  0.28343  1.0000
  H   H1987     1.0  0.95927  0.51811  0.35781  1.0000
  H   H1988     1.0  0.66134  0.96008  0.31455  1.0000
  C   C1159     1.0  0.87122  0.57257  0.46969  1.0000
  H   H1989     1.0  0.97029  0.69049  0.28199  1.0000
  H   H1990     1.0  0.69260  0.86480  0.25645  1.0000
  H   H1991     1.0  0.71004  0.78100  0.27135  1.0000
  C   C1160     1.0  0.68665  0.92880  0.34239  1.0000
  C   C1161     1.0  0.68705  0.85037  0.24927  1.0000
  H   H1992     1.0  0.96165  0.63779  0.27336  1.0000
  H   H1993     1.0  0.87941  0.59817  0.45018  1.0000
  H   H1994     1.0  0.90537  0.58201  0.43051  1.0000
  C   C1162     1.0  0.85767  0.56870  0.42720  1.0000
  C   C1163     1.0  0.86255  0.59435  0.41859  1.0000
  H   H1995     1.0  0.87672  0.53054  0.45756  1.0000
  H   H1996     1.0  0.98833  0.59658  0.37819  1.0000
  N   N84       1.0  0.87324  0.56235  0.44097  1.0000
  H   H1997     1.0  0.97812  0.65665  0.29608  1.0000
  C   C1164     1.0  0.98093  0.64543  0.27215  1.0000
  H   H1998     1.0  0.91644  0.53856  0.45413  1.0000
  H   H1999     1.0  0.60422  0.93236  0.41857  1.0000
  H   H2000     1.0  0.79962  0.74042  0.25955  1.0000
  H   H2001     1.0  0.62053  0.91717  0.36812  1.0000
  C   C1165     1.0  0.79532  0.76055  0.25688  1.0000
  H   H2002     1.0  0.86920  0.58897  0.47675  1.0000
  C   C1166     1.0  0.51263  0.96203  0.44188  1.0000
  H   H2003     1.0  0.80643  0.53643  0.24601  1.0000
  H   H2004     1.0  0.83724  0.61270  0.24862  1.0000
  H   H2005     1.0  0.84809  0.58826  0.45216  1.0000
  H   H2006     1.0  0.52680  0.85312  0.35565  1.0000
  H   H2007     1.0  0.52904  0.77118  0.37419  1.0000
  H   H2008     1.0  0.82938  0.54590  0.45607  1.0000
  H   H2009     1.0  0.85667  0.55911  0.47404  1.0000
  C   C1167     1.0  0.53800  0.95585  0.43396  1.0000
  H   H2010     1.0  0.87415  0.52240  0.43867  1.0000
  H   H2011     1.0  0.98383  0.73135  0.29163  1.0000
  H   H2012     1.0  0.53754  0.76929  0.35448  1.0000
  C   C1168     1.0  0.86466  0.64042  0.25249  1.0000
  H   H2013     1.0  0.93842  0.55458  0.44157  1.0000
  H   H2014     1.0  0.62117  0.92856  0.33225  1.0000
  C   C1169     1.0  0.55865  0.94565  0.46692  1.0000
  H   H2015     1.0  0.72988  0.76002  0.25376  1.0000
  H   H2016     1.0  0.55298  0.94957  0.47879  1.0000
  C   C1170     1.0  0.64606  0.94649  0.31570  1.0000
  C   C1171     1.0  0.63037  0.94707  0.33078  1.0000
  C   C1172     1.0  0.50023  0.86289  0.49046  1.0000
  H   H2017     1.0  0.97215  0.58614  0.40309  1.0000
  H   H2018     1.0  0.50371  0.94666  0.48411  1.0000
  C   C1173     1.0  0.55936  0.97028  0.45679  1.0000
  H   H2019     1.0  0.97972  0.72465  0.26256  1.0000
  H   H2020     1.0  0.63405  0.95188  0.30595  1.0000
  H   H2021     1.0  0.57953  0.93087  0.44141  1.0000
  C   C1174     1.0  0.59072  0.94813  0.41963  1.0000
  H   H2022     1.0  0.66337  0.92983  0.36250  1.0000
  C   C1175     1.0  0.78366  0.81288  0.26344  1.0000
  H   H2023     1.0  0.54262  0.98139  0.46009  1.0000
  C   C1176     1.0  0.77590  0.84069  0.26187  1.0000
  H   H2024     1.0  0.77501  0.52611  0.24815  1.0000
  C   C1177     1.0  0.50963  0.84284  0.35340  1.0000
  H   H2025     1.0  0.60010  0.96525  0.41461  1.0000
  H   H2026     1.0  0.50139  0.97814  0.47742  1.0000
  H   H2027     1.0  0.99258  0.63096  0.26667  1.0000
  H   H2028     1.0  0.97640  0.54064  0.39842  1.0000
  H   H2029     1.0  0.95447  0.71468  0.25100  1.0000
  C   C1178     1.0  0.88203  0.65737  0.24572  1.0000
  C   C1179     1.0  0.67029  0.80943  0.24642  1.0000
  H   H2030     1.0  0.57555  0.98106  0.46031  1.0000
  C   C1180     1.0  0.97026  0.66452  0.24731  1.0000
  H   H2031     1.0  0.73059  0.98963  0.33425  1.0000
  H   H2032     1.0  0.51057  0.95211  0.45333  1.0000
  H   H2033     1.0  0.50225  0.79308  0.34580  1.0000
  C   C1181     1.0  0.50059  0.97440  0.39901  1.0000
  H   H2034     1.0  0.98309  0.49674  0.36427  1.0000
  Fe  Fe169     1.0  0.68563  0.86020  0.69079  1.0000
  S   S334      1.0  0.72755  0.86290  0.68827  1.0000
  S   S335      1.0  0.66048  0.85620  0.71240  1.0000
  Fe  Fe170     1.0  0.67790  0.86910  0.65596  1.0000
  S   S336      1.0  0.71945  0.87181  0.65118  1.0000
  S   S337      1.0  0.64919  0.88328  0.63833  1.0000
  Fe  Fe171     1.0  0.72407  0.83867  0.66831  1.0000
  S   S338      1.0  0.74653  0.80269  0.66303  1.0000
  Fe  Fe172     1.0  0.71991  0.89582  0.67138  1.0000
  S   S339      1.0  0.74134  0.93278  0.66907  1.0000
  S   S340      1.0  0.68202  0.83442  0.67175  1.0000
  S   S341      1.0  0.67857  0.89458  0.67536  1.0000
  Fe  Fe173     1.0  0.54952  0.86331  0.57540  1.0000
  S   S342      1.0  0.53305  0.89753  0.58535  1.0000
  S   S343      1.0  0.57734  0.84002  0.58980  1.0000
  Fe  Fe174     1.0  0.51924  0.87105  0.54572  1.0000
  H   H2035     1.0  0.74483  0.91765  0.63784  1.0000
  Fe  Fe175     1.0  0.53850  0.91482  0.56157  1.0000
  S   S344      1.0  0.55436  0.95264  0.55532  1.0000
  S   S345      1.0  0.55782  0.88183  0.55188  1.0000
  C   C1182     1.0  0.97728  0.63359  0.65388  1.0000
  Fe  Fe176     1.0  0.89095  0.66451  0.65268  1.0000
  S   S346      1.0  0.90825  0.70273  0.65364  1.0000
  S   S347      1.0  0.90121  0.64452  0.63075  1.0000
  Fe  Fe177     1.0  0.87733  0.66271  0.68731  1.0000
  S   S348      1.0  0.89500  0.69938  0.69018  1.0000
  S   S349      1.0  0.86002  0.63932  0.70749  1.0000
  Fe  Fe178     1.0  0.87467  0.71239  0.66886  1.0000
  S   S350      1.0  0.85500  0.75074  0.67115  1.0000
  Fe  Fe179     1.0  0.92673  0.68659  0.67478  1.0000
  S   S351      1.0  0.96755  0.68218  0.68197  1.0000
  S   S352      1.0  0.85607  0.67545  0.66638  1.0000
  S   S353      1.0  0.91006  0.64866  0.67351  1.0000
  H   H2036     1.0  0.52596  0.83389  0.64992  1.0000
  Fe  Fe180     1.0  0.93567  0.52183  0.56181  1.0000
  S   S354      1.0  0.89990  0.54139  0.55547  1.0000
  H   H2037     1.0  0.81606  0.68052  0.73076  1.0000
  Fe  Fe181     1.0  0.88672  0.52750  0.57924  1.0000
  S   S355      1.0  0.86521  0.54889  0.59747  1.0000
  H   H2038     1.0  0.97989  0.61911  0.60734  1.0000
  H   H2039     1.0  0.94218  0.65422  0.70620  1.0000
  H   H2040     1.0  0.97315  0.67642  0.60510  1.0000
  H   H2041     1.0  0.50028  0.91222  0.64122  1.0000
  H   H2042     1.0  0.94330  0.67362  0.63631  1.0000
  H   H2043     1.0  0.97855  0.61386  0.65854  1.0000
  H   H2044     1.0  0.73730  0.94390  0.60589  1.0000
  H   H2045     1.0  0.95353  0.62899  0.63507  1.0000
  C   C1183     1.0  0.89127  0.61709  0.62230  1.0000
  C   C1184     1.0  0.86917  0.60473  0.62694  1.0000
  C   C1185     1.0  0.86152  0.58396  0.61924  1.0000
  C   C1186     1.0  0.87601  0.57491  0.60699  1.0000
  C   C1187     1.0  0.89844  0.58688  0.60262  1.0000
  C   C1188     1.0  0.90587  0.60791  0.61012  1.0000
  H   H2046     1.0  0.85761  0.61160  0.63618  1.0000
  H   H2047     1.0  0.84405  0.57503  0.62270  1.0000
  H   H2048     1.0  0.90975  0.58031  0.59318  1.0000
  H   H2049     1.0  0.92288  0.61733  0.60631  1.0000
  H   H2050     1.0  0.86590  0.53102  0.63052  1.0000
  C   C1189     1.0  0.86900  0.67069  0.73056  1.0000
  C   C1190     1.0  0.86030  0.64755  0.72673  1.0000
  S   S356      1.0  0.92340  0.51025  0.58590  1.0000
  H   H2051     1.0  0.54211  0.83142  0.62522  1.0000
  C   C1191     1.0  0.49765  0.98952  0.57577  1.0000
  H   H2052     1.0  0.87521  0.68430  0.72164  1.0000
  H   H2053     1.0  0.97071  0.69056  0.71685  1.0000
  C   C1192     1.0  0.53361  0.97604  0.56075  1.0000
  C   C1193     1.0  0.98561  0.50173  0.52306  1.0000
  H   H2054     1.0  0.71763  0.90977  0.59735  1.0000
  Fe  Fe182     1.0  0.88944  0.50385  0.54747  1.0000
  H   H2055     1.0  0.51362  0.92146  0.52375  1.0000
  H   H2056     1.0  0.66926  0.99279  0.73010  1.0000
  C   C1194     1.0  0.51176  0.83551  0.61001  1.0000
  H   H2057     1.0  0.55244  0.88293  0.50631  1.0000
  C   C1195     1.0  0.77726  0.78924  0.66486  1.0000
  C   C1196     1.0  0.78268  0.76605  0.65867  1.0000
  C   C1197     1.0  0.80638  0.75425  0.66013  1.0000
  C   C1198     1.0  0.82510  0.76534  0.66798  1.0000
  C   C1199     1.0  0.81980  0.78869  0.67399  1.0000
  C   C1200     1.0  0.79612  0.80050  0.67250  1.0000
  H   H2058     1.0  0.76838  0.75714  0.65266  1.0000
  H   H2059     1.0  0.81004  0.73646  0.65530  1.0000
  H   H2060     1.0  0.83410  0.79767  0.67995  1.0000
  H   H2061     1.0  0.79246  0.81833  0.67728  1.0000
  C   C1201     1.0  0.62972  0.87049  0.62484  1.0000
  C   C1202     1.0  0.62892  0.84489  0.62269  1.0000
  C   C1203     1.0  0.61297  0.83590  0.61186  1.0000
  C   C1204     1.0  0.59761  0.85230  0.60306  1.0000
  C   C1205     1.0  0.59837  0.87790  0.60525  1.0000
  C   C1206     1.0  0.61433  0.88688  0.61603  1.0000
  H   H2062     1.0  0.64062  0.83202  0.62933  1.0000
  H   H2063     1.0  0.61259  0.81608  0.61029  1.0000
  H   H2064     1.0  0.58679  0.89079  0.59856  1.0000
  H   H2065     1.0  0.61475  0.90671  0.61756  1.0000
  C   C1207     1.0  0.72917  0.96361  0.67092  1.0000
  H   H2066     1.0  0.91932  0.68387  0.73390  1.0000
  H   H2067     1.0  0.96884  0.68058  0.64737  1.0000
  H   H2068     1.0  0.86820  0.53730  0.65007  1.0000
  C   C1208     1.0  0.74598  0.91878  0.62518  1.0000
  S   S357      1.0  0.50676  0.86139  0.52178  1.0000
  C   C1209     1.0  0.69491  0.84108  0.73418  1.0000
  C   C1210     1.0  0.67074  0.84980  0.73122  1.0000
  C   C1211     1.0  0.60080  0.75923  0.74320  1.0000
  C   C1212     1.0  0.58664  0.99164  0.58385  1.0000
  H   H2069     1.0  0.70824  0.83889  0.72477  1.0000
  H   H2070     1.0  0.97155  0.51716  0.52214  1.0000
  H   H2071     1.0  0.71007  0.96013  0.64260  1.0000
  S   S358      1.0  0.97230  0.54032  0.55614  1.0000
  C   C1213     1.0  0.73238  0.94223  0.61835  1.0000
  C   C1214     1.0  0.98148  0.63828  0.60191  1.0000
  H   H2072     1.0  0.75255  0.75779  0.69423  1.0000
  H   H2073     1.0  0.78928  0.68295  0.68791  1.0000
  H   H2074     1.0  0.69109  0.92905  0.59146  1.0000
  H   H2075     1.0  0.51233  0.92380  0.50386  1.0000
  C   C1215     1.0  0.80268  0.67821  0.69702  1.0000
  C   C1216     1.0  0.95123  0.69600  0.71991  1.0000
  H   H2076     1.0  0.66436  0.93159  0.64973  1.0000
  H   H2077     1.0  0.73919  0.90124  0.62090  1.0000
  C   C1217     1.0  0.93107  0.64575  0.71612  1.0000
  H   H2078     1.0  0.52197  0.82257  0.60250  1.0000
  H   H2079     1.0  0.81603  0.66433  0.69238  1.0000
  H   H2080     1.0  0.94601  0.60726  0.71441  1.0000
  S   S359      1.0  0.87016  0.49715  0.52499  1.0000
  C   C1218     1.0  0.96954  0.64267  0.73035  1.0000
  H   H2081     1.0  0.51071  0.95134  0.57558  1.0000
  H   H2082     1.0  0.50286  0.84993  0.60226  1.0000
  H   H2083     1.0  0.85675  0.73229  0.70415  1.0000
  H   H2084     1.0  0.95582  0.71892  0.63545  1.0000
  C   C1219     1.0  0.99165  0.50075  0.57339  1.0000
  H   H2085     1.0  0.74140  0.95840  0.62312  1.0000
  H   H2086     1.0  0.67148  0.92186  0.61781  1.0000
  H   H2087     1.0  0.88545  0.50590  0.61313  1.0000
  H   H2088     1.0  0.56308  0.74782  0.73709  1.0000
  H   H2089     1.0  0.97120  0.63837  0.59113  1.0000
  H   H2090     1.0  0.78977  0.73434  0.68663  1.0000
  H   H2091     1.0  0.72025  0.99419  0.61954  1.0000
  C   C1220     1.0  0.92826  0.61790  0.71314  1.0000
  H   H2092     1.0  0.96111  0.64222  0.65990  1.0000
  H   H2093     1.0  0.89600  0.53632  0.63824  1.0000
  H   H2094     1.0  0.50794  0.98684  0.50216  1.0000
  N   N85       1.0  0.52047  0.86354  0.63237  1.0000
  C   C1221     1.0  0.54161  0.87962  0.63678  1.0000
  N   N86       1.0  0.70445  0.94331  0.62124  1.0000
  C   C1222     1.0  0.53066  0.84716  0.62016  1.0000
  H   H2095     1.0  0.61083  0.80623  0.73518  1.0000
  C   C1223     1.0  0.56506  0.86551  0.64268  1.0000
  C   C1224     1.0  0.70439  0.96807  0.67569  1.0000
  H   H2096     1.0  0.93994  0.69646  0.70957  1.0000
  H   H2097     1.0  0.91221  0.65453  0.71524  1.0000
  H   H2098     1.0  0.92245  0.61645  0.70122  1.0000
  H   H2099     1.0  0.53547  0.89188  0.64597  1.0000
  H   H2100     1.0  0.95147  0.71544  0.72353  1.0000
  H   H2101     1.0  0.54794  0.89241  0.62686  1.0000
  H   H2102     1.0  0.98565  0.71992  0.65816  1.0000
  S   S360      1.0  0.50035  0.90516  0.55467  1.0000
  H   H2103     1.0  0.76386  0.98105  0.66337  1.0000
  H   H2104     1.0  0.70561  0.92774  0.64460  1.0000
  H   H2105     1.0  0.57358  0.85324  0.63419  1.0000
  H   H2106     1.0  0.57950  0.87934  0.64489  1.0000
  H   H2107     1.0  0.56117  0.85451  0.65365  1.0000
  H   H2108     1.0  0.55416  0.93150  0.50969  1.0000
  C   C1225     1.0  0.96330  0.67892  0.63543  1.0000
  H   H2109     1.0  0.65858  0.95261  0.63364  1.0000
  C   C1226     1.0  0.85210  0.63018  0.73849  1.0000
  C   C1227     1.0  0.69907  0.94499  0.63812  1.0000
  H   H2110     1.0  0.84522  0.61226  0.73565  1.0000
  C   C1228     1.0  0.54047  0.94647  0.51243  1.0000
  H   H2111     1.0  0.69222  0.95245  0.67866  1.0000
  H   H2112     1.0  0.98417  0.71179  0.62526  1.0000
  C   C1229     1.0  0.96469  0.70561  0.62765  1.0000
  H   H2113     1.0  0.84932  0.72356  0.72396  1.0000
  H   H2114     1.0  0.54352  0.85805  0.61207  1.0000
  C   C1230     1.0  0.51407  0.93536  0.51374  1.0000
  H   H2115     1.0  0.79306  0.66877  0.70717  1.0000
  N   N87       1.0  0.97869  0.65911  0.62785  1.0000
  H   H2116     1.0  0.81064  0.75445  0.72056  1.0000
  C   C1231     1.0  0.58115  0.75365  0.73151  1.0000
  H   H2117     1.0  0.99446  0.64325  0.65671  1.0000
  C   C1232     1.0  0.67131  0.94864  0.64313  1.0000
  H   H2118     1.0  0.50830  0.89307  0.61616  1.0000
  H   H2119     1.0  0.91326  0.60904  0.72063  1.0000
  H   H2120     1.0  0.77481  0.69806  0.72157  1.0000
  C   C1233     1.0  0.80687  0.69718  0.73540  1.0000
  H   H2121     1.0  0.77852  0.77018  0.70296  1.0000
  H   H2122     1.0  0.61851  0.76285  0.73641  1.0000
  C   C1234     1.0  0.51363  0.97038  0.57106  1.0000
  H   H2123     1.0  0.76615  0.91999  0.62185  1.0000
  H   H2124     1.0  0.82081  0.70959  0.73978  1.0000
  H   H2125     1.0  0.76797  0.71513  0.69728  1.0000
  H   H2126     1.0  0.85509  0.75541  0.71777  1.0000
  C   C1235     1.0  0.93946  0.67872  0.73290  1.0000
  H   H2127     1.0  0.82633  0.70946  0.69023  1.0000
  H   H2128     1.0  0.78070  0.72650  0.72985  1.0000
  C   C1236     1.0  0.84639  0.73792  0.71459  1.0000
  H   H2129     1.0  0.94908  0.65573  0.61204  1.0000
  H   H2130     1.0  0.69712  0.90349  0.62392  1.0000
  C   C1237     1.0  0.98727  0.65433  0.74136  1.0000
  H   H2131     1.0  0.57799  0.76980  0.72321  1.0000
  H   H2132     1.0  0.83297  0.69398  0.70807  1.0000
  H   H2133     1.0  0.75664  0.75012  0.71411  1.0000
  H   H2134     1.0  0.67387  0.96487  0.61098  1.0000
  S   S361      1.0  0.51215  0.84883  0.56858  1.0000
  N   N88       1.0  0.94251  0.65106  0.73105  1.0000
  C   C1238     1.0  0.69213  0.92022  0.61638  1.0000
  H   H2135     1.0  0.68716  0.89685  0.59752  1.0000
  H   H2136     1.0  0.58876  0.99354  0.61406  1.0000
  C   C1239     1.0  0.69759  0.91396  0.59967  1.0000
  H   H2137     1.0  0.57800  0.80476  0.73530  1.0000
  H   H2138     1.0  0.81945  0.75628  0.70084  1.0000
  H   H2139     1.0  0.66940  0.96436  0.65073  1.0000
  H   H2140     1.0  0.58209  0.97243  0.58859  1.0000
  H   H2141     1.0  0.92147  0.51014  0.62538  1.0000
  N   N89       1.0  0.80235  0.72112  0.70890  1.0000
  C   C1240     1.0  0.78191  0.73000  0.69837  1.0000
  C   C1241     1.0  0.81732  0.70126  0.70108  1.0000
  C   C1242     1.0  0.81867  0.74323  0.71128  1.0000
  C   C1243     1.0  0.78999  0.71114  0.72378  1.0000
  C   C1244     1.0  0.76679  0.75332  0.70293  1.0000
  C   C1245     1.0  0.51644  0.86831  0.50207  1.0000
  C   C1246     1.0  0.87982  0.49938  0.64541  1.0000
  H   H2142     1.0  0.49728  0.82450  0.61657  1.0000
  H   H2143     1.0  0.68506  0.97882  0.71449  1.0000
  H   H2144     1.0  0.54230  0.96169  0.50333  1.0000
  H   H2145     1.0  0.58806  0.73791  0.72482  1.0000
  C   C1247     1.0  0.51148  0.84801  0.64643  1.0000
  C   C1248     1.0  0.87757  0.52751  0.64061  1.0000
  H   H2146     1.0  0.97106  0.62198  0.73230  1.0000
  C   C1249     1.0  0.74467  0.98425  0.66709  1.0000
  C   C1250     1.0  0.97327  0.63441  0.63651  1.0000
  C   C1251     1.0  0.70001  0.99146  0.61826  1.0000
  H   H2147     1.0  0.97783  0.64705  0.71863  1.0000
  H   H2148     1.0  0.50925  0.85956  0.65650  1.0000
  H   H2149     1.0  0.70208  0.96653  0.60013  1.0000
  C   C1252     1.0  0.69440  0.96589  0.61212  1.0000
  H   H2150     1.0  0.95402  0.70730  0.61703  1.0000
  H   H2151     1.0  0.51347  0.97935  0.52818  1.0000
  H   H2152     1.0  0.67616  0.99592  0.68038  1.0000
  H   H2153     1.0  0.90760  0.63902  0.74212  1.0000
  C   C1253     1.0  0.53955  0.87889  0.49763  1.0000
  C   C1254     1.0  0.59400  0.80455  0.74301  1.0000
  C   C1255     1.0  0.96973  0.65835  0.61178  1.0000
  H   H2154     1.0  0.54593  0.95339  0.52342  1.0000
  H   H2155     1.0  0.49982  0.95403  0.53934  1.0000
  C   C1256     1.0  0.65368  0.85272  0.74356  1.0000
  H   H2156     1.0  0.59077  0.84500  0.74280  1.0000
  C   C1257     1.0  0.69534  0.99279  0.67664  1.0000
  H   H2157     1.0  0.92020  0.50052  0.50948  1.0000
  H   H2158     1.0  0.58840  0.99144  0.57119  1.0000
  H   H2159     1.0  0.93162  0.61605  0.74323  1.0000
  H   H2160     1.0  0.55605  0.99356  0.61700  1.0000
  C   C1258     1.0  0.50054  0.88097  0.62598  1.0000
  H   H2161     1.0  0.98469  0.61902  0.63194  1.0000
  H   H2162     1.0  0.68994  0.99408  0.62935  1.0000
  C   C1259     1.0  0.49652  0.96755  0.52941  1.0000
  H   H2163     1.0  0.94723  0.68437  0.74363  1.0000
  H   H2164     1.0  0.63519  0.86003  0.74134  1.0000
  H   H2165     1.0  0.88939  0.49798  0.65649  1.0000
  C   C1260     1.0  0.92798  0.63647  0.74369  1.0000
  Fe  Fe183     1.0  0.66529  0.77853  0.82659  1.0000
  S   S362      1.0  0.68020  0.81784  0.82400  1.0000
  S   S363      1.0  0.69369  0.74964  0.83679  1.0000
  Fe  Fe184     1.0  0.61584  0.79553  0.81177  1.0000
  S   S364      1.0  0.62928  0.83497  0.80754  1.0000
  S   S365      1.0  0.57841  0.79161  0.80042  1.0000
  Fe  Fe185     1.0  0.66596  0.81835  0.80020  1.0000
  S   S366      1.0  0.69355  0.82881  0.78050  1.0000
  Fe  Fe186     1.0  0.64200  0.83122  0.83184  1.0000
  S   S367      1.0  0.62830  0.86536  0.84477  1.0000
  S   S368      1.0  0.65206  0.77898  0.80256  1.0000
  S   S369      1.0  0.62753  0.79188  0.83630  1.0000
  Fe  Fe187     1.0  0.64231  0.95979  0.91336  1.0000
  H   H2166     1.0  0.80447  0.52825  0.83025  1.0000
  S   S370      1.0  0.65038  0.92001  0.90582  1.0000
  H   H2167     1.0  0.75962  0.80932  0.78945  1.0000
  H   H2168     1.0  0.56639  0.86619  0.85680  1.0000
  H   H2169     1.0  0.67797  0.98143  0.87973  1.0000
  C   C1261     1.0  0.73283  0.59885  0.79814  1.0000
  S   S371      1.0  0.62223  0.96991  0.93544  1.0000
  H   H2170     1.0  0.90802  0.55672  0.85260  1.0000
  Fe  Fe188     1.0  0.82893  0.59086  0.80996  1.0000
  S   S372      1.0  0.86619  0.60961  0.81096  1.0000
  S   S373      1.0  0.82912  0.55081  0.80199  1.0000
  Fe  Fe189     1.0  0.79939  0.64039  0.81598  1.0000
  S   S374      1.0  0.83494  0.66160  0.81781  1.0000
  S   S375      1.0  0.75955  0.65704  0.81335  1.0000
  Fe  Fe190     1.0  0.84881  0.64184  0.79710  1.0000
  S   S376      1.0  0.86725  0.66481  0.77703  1.0000
  Fe  Fe191     1.0  0.84950  0.62749  0.83156  1.0000
  S   S377      1.0  0.86772  0.62718  0.85495  1.0000
  S   S378      1.0  0.81295  0.62216  0.79464  1.0000
  S   S379      1.0  0.81261  0.60723  0.83118  1.0000
  C   C1262     1.0  0.63722  0.98551  0.98543  1.0000
  S   S380      1.0  0.98024  0.63302  0.87697  1.0000
  H   H2171     1.0  0.72112  0.79411  0.79924  1.0000
  H   H2172     1.0  0.71572  0.62644  0.81302  1.0000
  C   C1263     1.0  0.93250  0.64246  0.76027  1.0000
  H   H2173     1.0  0.63886  0.98199  0.86561  1.0000
  C   C1264     1.0  0.56480  0.83817  0.82875  1.0000
  C   C1265     1.0  0.86276  0.65834  0.75780  1.0000
  H   H2174     1.0  0.84756  0.62169  0.76291  1.0000
  C   C1266     1.0  0.82112  0.51958  0.80851  1.0000
  H   H2175     1.0  0.76618  0.78539  0.77735  1.0000
  H   H2176     1.0  0.71769  0.92200  0.86004  1.0000
  C   C1267     1.0  0.89920  0.62945  0.86066  1.0000
  C   C1268     1.0  0.90389  0.62872  0.87639  1.0000
  C   C1269     1.0  0.92847  0.62956  0.88159  1.0000
  C   C1270     1.0  0.94879  0.63141  0.87111  1.0000
  C   C1271     1.0  0.94413  0.63238  0.85537  1.0000
  C   C1272     1.0  0.91955  0.63123  0.85017  1.0000
  H   H2177     1.0  0.88833  0.62754  0.88462  1.0000
  H   H2178     1.0  0.93163  0.62928  0.89371  1.0000
  H   H2179     1.0  0.95961  0.63403  0.84712  1.0000
  H   H2180     1.0  0.91632  0.63186  0.83805  1.0000
  C   C1273     1.0  0.71866  0.76747  0.78230  1.0000
  H   H2181     1.0  0.75546  0.57558  0.84728  1.0000
  H   H2182     1.0  0.72635  0.77999  0.77275  1.0000
  C   C1274     1.0  0.70971  0.97175  0.85106  1.0000
  N   N90       1.0  0.74080  0.57682  0.80852  1.0000
  H   H2183     1.0  0.73358  0.80858  0.82038  1.0000
  H   H2184     1.0  0.93148  0.52715  0.86849  1.0000
  H   H2185     1.0  0.97826  0.66203  0.75156  1.0000
  H   H2186     1.0  0.53689  0.95594  0.89243  1.0000
  H   H2187     1.0  0.72647  0.96224  0.84607  1.0000
  C   C1275     1.0  0.51774  0.76348  0.82530  1.0000
  C   C1276     1.0  0.71182  0.72401  0.82987  1.0000
  C   C1277     1.0  0.70526  0.71132  0.81718  1.0000
  C   C1278     1.0  0.72000  0.69091  0.81239  1.0000
  C   C1279     1.0  0.74192  0.68322  0.81990  1.0000
  C   C1280     1.0  0.74863  0.69611  0.83245  1.0000
  C   C1281     1.0  0.73354  0.71608  0.83749  1.0000
  H   H2188     1.0  0.68857  0.71692  0.81124  1.0000
  H   H2189     1.0  0.71442  0.68107  0.80274  1.0000
  H   H2190     1.0  0.76520  0.69039  0.83850  1.0000
  H   H2191     1.0  0.73878  0.72551  0.84739  1.0000
  C   C1282     1.0  0.68441  0.83724  0.76165  1.0000
  C   C1283     1.0  0.66042  0.84640  0.75871  1.0000
  H   H2192     1.0  0.64715  0.84878  0.76813  1.0000
  C   C1284     1.0  0.63453  0.87983  0.86200  1.0000
  C   C1285     1.0  0.62197  0.90236  0.86506  1.0000
  C   C1286     1.0  0.62663  0.91498  0.87829  1.0000
  C   C1287     1.0  0.64362  0.90498  0.88887  1.0000
  C   C1288     1.0  0.65592  0.88230  0.88591  1.0000
  C   C1289     1.0  0.65160  0.86991  0.87253  1.0000
  H   H2193     1.0  0.60868  0.91024  0.85705  1.0000
  H   H2194     1.0  0.61686  0.93228  0.88039  1.0000
  H   H2195     1.0  0.66901  0.87426  0.89400  1.0000
  H   H2196     1.0  0.66134  0.85258  0.87044  1.0000
  C   C1290     1.0  0.52727  0.79426  0.79894  1.0000
  C   C1291     1.0  0.54749  0.78499  0.80751  1.0000
  C   C1292     1.0  0.54258  0.76966  0.82078  1.0000
  H   H2197     1.0  0.53081  0.80600  0.78860  1.0000
  H   H2198     1.0  0.55790  0.76206  0.82737  1.0000
  H   H2199     1.0  0.90188  0.50547  0.89768  1.0000
  C   C1293     1.0  0.70527  0.55255  0.79669  1.0000
  C   C1294     1.0  0.72760  0.77458  0.79797  1.0000
  H   H2200     1.0  0.74782  0.76386  0.82463  1.0000
  C   C1295     1.0  0.75934  0.77674  0.81687  1.0000
  C   C1296     1.0  0.75356  0.80358  0.82137  1.0000
  H   H2201     1.0  0.79519  0.69018  0.74549  1.0000
  H   H2202     1.0  0.70786  0.56022  0.82015  1.0000
  C   C1297     1.0  0.93888  0.52318  0.89800  1.0000
  H   H2203     1.0  0.51161  0.88050  0.84989  1.0000
  C   C1298     1.0  0.49750  0.77275  0.81674  1.0000
  C   C1299     1.0  0.72137  0.55661  0.81054  1.0000
  H   H2204     1.0  0.51718  0.85530  0.82028  1.0000
  H   H2205     1.0  0.77879  0.77270  0.82017  1.0000
  H   H2206     1.0  0.73843  0.95464  0.87284  1.0000
  C   C1300     1.0  0.85332  0.63551  0.75396  1.0000
  H   H2207     1.0  0.68903  0.93277  0.83781  1.0000
  H   H2208     1.0  0.78003  0.58091  0.80236  1.0000
  H   H2209     1.0  0.72043  0.82815  0.75154  1.0000
  S   S381      1.0  0.67538  0.98382  0.91736  1.0000
  H   H2210     1.0  0.80337  0.74622  0.80208  1.0000
  H   H2211     1.0  0.99298  0.56009  0.87294  1.0000
  H   H2212     1.0  0.80291  0.79090  0.80280  1.0000
  H   H2213     1.0  0.51417  0.75123  0.83544  1.0000
  H   H2214     1.0  0.54592  0.75228  0.77575  1.0000
  C   C1301     1.0  0.50243  0.78839  0.80359  1.0000
  C   C1302     1.0  0.71491  0.94286  0.89238  1.0000
  C   C1303     1.0  0.76529  0.56652  0.80242  1.0000
  H   H2215     1.0  0.51642  0.97493  0.93059  1.0000
  N   N91       1.0  0.49800  0.98254  0.95226  1.0000
  H   H2216     1.0  0.69807  0.76990  0.78218  1.0000
  H   H2217     1.0  0.90963  0.57412  0.92160  1.0000
  H   H2218     1.0  0.75836  0.57029  0.77751  1.0000
  C   C1304     1.0  0.71020  0.61404  0.80412  1.0000
  H   H2219     1.0  0.94854  0.50973  0.89056  1.0000
  H   H2220     1.0  0.72786  0.59365  0.82933  1.0000
  C   C1305     1.0  0.55198  0.98471  0.90529  1.0000
  C   C1306     1.0  0.92562  0.57175  0.91337  1.0000
  H   H2221     1.0  0.75827  0.60275  0.82268  1.0000
  H   H2222     1.0  0.71636  0.54980  0.78605  1.0000
  H   H2223     1.0  0.93273  0.57424  0.85941  1.0000
  H   H2224     1.0  0.54061  0.86609  0.87083  1.0000
  H   H2225     1.0  0.78530  0.55267  0.78272  1.0000
  H   H2226     1.0  0.80234  0.81234  0.78678  1.0000
  C   C1307     1.0  0.70173  0.83493  0.74935  1.0000
  H   H2227     1.0  0.69585  0.97236  0.84197  1.0000
  C   C1308     1.0  0.87024  0.67603  0.74603  1.0000
  H   H2228     1.0  0.70293  0.62644  0.79460  1.0000
  C   C1309     1.0  0.52898  0.87009  0.84678  1.0000
  H   H2229     1.0  0.66514  0.95190  0.87829  1.0000
  C   C1310     1.0  0.76562  0.55665  0.78633  1.0000
  H   H2230     1.0  0.58127  0.82541  0.82826  1.0000
  C   C1311     1.0  0.71936  0.95930  0.87743  1.0000
  H   H2231     1.0  0.76537  0.74320  0.78480  1.0000
  H   H2232     1.0  0.93821  0.55780  0.91903  1.0000
  Fe  Fe192     1.0  0.65381  0.99607  0.93850  1.0000
  H   H2233     1.0  0.56985  0.97536  0.90660  1.0000
  H   H2234     1.0  0.75592  0.53854  0.78645  1.0000
  H   H2235     1.0  0.69481  0.60202  0.80890  1.0000
  H   H2236     1.0  0.71676  0.76311  0.80685  1.0000
  H   H2237     1.0  0.90212  0.53287  0.87748  1.0000
  H   H2238     1.0  0.50808  0.97625  0.98566  1.0000
  H   H2239     1.0  0.74796  0.73214  0.80140  1.0000
  H   H2240     1.0  0.54988  0.89429  0.86043  1.0000
  N   N92       1.0  0.75529  0.77185  0.80040  1.0000
  N   N93       1.0  0.70023  0.95722  0.86538  1.0000
  H   H2241     1.0  0.55795  0.99062  0.96558  1.0000
  H   H2242     1.0  0.73028  0.53825  0.81393  1.0000
  C   C1312     1.0  0.91593  0.56388  0.89805  1.0000
  C   C1313     1.0  0.56938  0.77728  0.76113  1.0000
  C   C1314     1.0  0.53332  0.97370  0.89733  1.0000
  H   H2243     1.0  0.72822  0.59314  0.78669  1.0000
  H   H2244     1.0  0.96705  0.56403  0.89621  1.0000
  C   C1315     1.0  0.76850  0.79038  0.78931  1.0000
  H   H2245     1.0  0.69402  0.53544  0.79925  1.0000
  H   H2246     1.0  0.69184  0.56817  0.79451  1.0000
  H   H2247     1.0  0.79102  0.71589  0.80034  1.0000
  H   H2248     1.0  0.71887  0.92282  0.89076  1.0000
  C   C1316     1.0  0.76296  0.74533  0.79731  1.0000
  C   C1317     1.0  0.78679  0.73453  0.80473  1.0000
  C   C1318     1.0  0.92061  0.54146  0.87466  1.0000
  H   H2249     1.0  0.95229  0.52598  0.90701  1.0000
  H   H2250     1.0  0.76520  0.81759  0.81465  1.0000
  C   C1319     1.0  0.69865  0.92993  0.86228  1.0000
  C   C1320     1.0  0.80886  0.51364  0.82265  1.0000
  C   C1321     1.0  0.50825  0.84332  0.82976  1.0000
  C   C1322     1.0  0.79685  0.79308  0.79089  1.0000
  C   C1323     1.0  0.68270  0.92348  0.84891  1.0000
  H   H2251     1.0  0.65336  0.78910  0.76810  1.0000
  C   C1324     1.0  0.50539  0.96498  0.94004  1.0000
  H   H2252     1.0  0.61457  0.76379  0.77231  1.0000
  H   H2253     1.0  0.89706  0.55565  0.90007  1.0000
  H   H2254     1.0  0.91203  0.58165  0.89130  1.0000
  H   H2255     1.0  0.77200  0.55052  0.80996  1.0000
  H   H2256     1.0  0.69077  0.91882  0.87247  1.0000
  H   H2257     1.0  0.95376  0.58031  0.88038  1.0000
  N   N94       1.0  0.93318  0.54745  0.88905  1.0000
  H   H2258     1.0  0.95145  0.63670  0.76377  1.0000
  H   H2259     1.0  0.77642  0.56353  0.83332  1.0000
  H   H2260     1.0  0.56641  0.73589  0.76328  1.0000
  H   H2261     1.0  0.51785  0.94970  0.94461  1.0000
  H   H2262     1.0  0.54215  0.80876  0.83920  1.0000
  N   N95       1.0  0.59460  0.78058  0.75307  1.0000
  H   H2263     1.0  0.69566  0.94506  0.89713  1.0000
  H   H2264     1.0  0.66269  0.92729  0.85133  1.0000
  H   H2265     1.0  0.68423  0.90302  0.84761  1.0000
  C   C1325     1.0  0.95728  0.56111  0.88549  1.0000
  C   C1326     1.0  0.74545  0.58649  0.82394  1.0000
  H   H2266     1.0  0.75779  0.80485  0.83360  1.0000
  H   H2267     1.0  0.72274  0.74765  0.78019  1.0000
  C   C1327     1.0  0.61420  0.78143  0.76490  1.0000
  H   H2268     1.0  0.74593  0.54969  0.83710  1.0000
  H   H2269     1.0  0.53657  0.88022  0.83614  1.0000
  H   H2270     1.0  0.74857  0.61217  0.79595  1.0000
  H   H2271     1.0  0.80739  0.77964  0.78390  1.0000
  H   H2272     1.0  0.62791  0.97581  0.97689  1.0000
  H   H2273     1.0  0.60427  0.74171  0.75040  1.0000
  H   H2274     1.0  0.60977  0.79618  0.77295  1.0000
  H   H2275     1.0  0.72774  0.94860  0.90112  1.0000
  H   H2276     1.0  0.55325  0.97270  0.94957  1.0000
  H   H2277     1.0  0.92834  0.66224  0.76246  1.0000
  H   H2278     1.0  0.64884  0.76801  0.75360  1.0000
  C   C1328     1.0  0.91564  0.56378  0.86307  1.0000
  C   C1329     1.0  0.75640  0.56742  0.83595  1.0000
  H   H2279     1.0  0.60754  0.83179  0.75855  1.0000
  H   H2280     1.0  0.93573  0.58971  0.91163  1.0000
  H   H2281     1.0  0.55408  0.77989  0.75293  1.0000
  C   C1330     1.0  0.67538  0.96692  0.87145  1.0000
  C   C1331     1.0  0.54751  0.87391  0.85946  1.0000
  C   C1332     1.0  0.50003  0.80479  0.85664  1.0000
  H   H2282     1.0  0.78395  0.73126  0.81731  1.0000
  H   H2283     1.0  0.90126  0.57673  0.86756  1.0000
  H   H2284     1.0  0.65370  0.96668  0.85028  1.0000
  C   C1333     1.0  0.52112  0.99619  0.95607  1.0000
  H   H2285     1.0  0.53888  0.96322  0.96804  1.0000
  S   S382      1.0  0.98596  0.60718  0.92282  1.0000
  C   C1334     1.0  0.65717  0.97869  0.85969  1.0000
  H   H2286     1.0  0.83641  0.50441  0.78795  1.0000
  N   N96       1.0  0.52316  0.84335  0.84401  1.0000
  C   C1335     1.0  0.50873  0.83196  0.85776  1.0000
  C   C1336     1.0  0.59138  0.82888  0.75142  1.0000
  H   H2287     1.0  0.57792  0.74929  0.78003  1.0000
  H   H2288     1.0  0.98290  0.52993  0.88023  1.0000
  C   C1337     1.0  0.56509  0.75212  0.77044  1.0000
  S   S383      1.0  0.62332  0.98990  0.89897  1.0000
  H   H2289     1.0  0.57199  0.85693  0.83067  1.0000
  C   C1338     1.0  0.64125  0.78515  0.75858  1.0000
  H   H2290     1.0  0.55628  0.83844  0.81742  1.0000
  H   H2291     1.0  0.57389  0.82962  0.75854  1.0000
  H   H2292     1.0  0.91928  0.63132  0.76797  1.0000
  H   H2293     1.0  0.50810  0.82445  0.82525  1.0000
  C   C1339     1.0  0.54671  0.82816  0.84175  1.0000
  H   H2294     1.0  0.87745  0.69378  0.74891  1.0000
  H   H2295     1.0  0.55727  0.82593  0.85245  1.0000
  H   H2296     1.0  0.52026  0.83137  0.86805  1.0000
  C   C1340     1.0  0.50968  0.98501  0.89638  1.0000
  H   H2297     1.0  0.56595  0.79200  0.76931  1.0000
  C   C1341     1.0  0.54393  0.97945  0.96009  1.0000
  C   C1342     1.0  0.91630  0.50945  0.90586  1.0000
  S   S384      1.0  0.99255  0.53606  0.92581  1.0000
  H   H2298     1.0  0.67650  0.93145  0.99281  1.0000
  C   C1343     1.0  0.82695  0.50011  0.79892  1.0000
  H   H2299     1.0  0.96894  0.54551  0.86353  1.0000
  H   H2300     1.0  0.64310  0.80109  0.74998  1.0000
  H   H2301     1.0  0.51475  0.79114  0.86035  1.0000
  C   C1344     1.0  0.97633  0.54810  0.87492  1.0000
  H   H2302     1.0  0.90789  0.52001  0.91527  1.0000
  H   H2303     1.0  0.72025  0.97886  0.88094  1.0000
  H   H2304     1.0  0.86144  0.49667  0.84045  1.0000
