data_image0
_chemical_formula_structural       FeS2FeS2FeSFeS3FeS2FeS2FeSFeS3FeSHFeS2FeSFeCS2C4H3C2H3C6H4C2H3C6H2CHC6H4C3H4C2HNC2HC3H13CH7CNC5H8NH5C3NH3CHNC8H20NC8H20CH2CH3CH5C3H3C2H4CH2CH9C2H2C2SH2CH5SHCSHCHCH4CHCHFeS2FeS2FeSFeS3FeS2FeS2FeSFeS3CFeS2FeSCFeSFeHS2H3SH2C3H2C3HC2H4C6H4C6H5CH3C3H3C2H2CH2CHCH2CH3CH3C3H4CHCH5NC2NC6H13CH5NCH2CH3NCH3C2H5C2H2C2HCH2CHNC2H4CH5CHCNC8H18CH3CHCHCH2CH2CH6FeS2FeS2FeSFeHS2FeS2FeS2FeSFeS3FeS2FeS2FeSFeS3C3H2C2H3C2HC2H3C3NHNCH3C6H5CH3C3H3C2H2C6H4NC6H5CH7C3H4CH2CH2CH3NC8H23CH2CNC8H20CNHCHC2HCHCH2CH2SH3CH6C2H5CHCH3CH2CH3CH5C2FeS2FeS2FeSFeS3FeS2FeSCFeSFeS3FeS2FeSCFeSFeS3H2CH2C2H2CH4C2H2C6H4C6H4C3H2CH3C3H3C3H2CHCH2NH5NHCH3SH5CH4CH4CHCHCH9C2SH3CH5SCHNCH2CH4C3HCH3CH3CH2CHNC7H10CH2C3HCH2CNHCH2CNH6CH3CHCH2CH3CH2CH2C4HC2H10CH2CHCHCH3CHSHCFeSFeS2FeSFeS3FeS2FeS2FeSFeS3CH3C3HCH3CHCH2C6H4C6H4C3H2NC5H2C2H11NH2C2HC4H2CH2CH4CHCH2CHC2HCHCH2C2H4CH4CHCH5NH8CH2CHCHCH4NH5CH2C4H2CH5CHCH3FeS2FeS2Fe2S3FeS2FeS2FeSFeS3C3H4C6H3C3H2C6H4C2H3C2SHCHC2H4NH4CHCH9CNC8H12C3H2CH8CH7C2NCHCH2CH6NHC3HC3SH4C4H4C2H9NH2CHCH2CHCH2C2H4C2H5CHCH6SHFeSHFeS2FeSFeHS2FeS2FeSHFeSFeS3C3H3CH8C7H9C4HNC8H13CH2CH4NHCH5C2HCHS2H6CHCH2CHN2CH3CH2C3SH3CH3FeS2FeSHFeSFeHS2FeSCFeS2FeSFeS3HCNC6H4C2HCHCHC2H3C3H6CH6C2HCH4C3HCH3CH6CHNH3C2H6CH6C2HCHCHC2H4CHFeS2FeS2FeSFeS3FeS2FeS2FeSFeS3FeS2FeS2FeSFeS3CHC2HCNCH2C6H4C2H3C6H5CHC2HC2H4C2HC3H5C4HCH9NH7C2H2CH3CHCHNCH3CH3C2H4C3H3C2HC5H4CHC3H13C2HCHCHC2HNH2CHCHCH10CHNC6HCH16CH6C2HC2H4CHC2HC2FeS2FeS2FeSFeS3FeS2FeS2FeSFeS3FeS2FeS2FeSFeS3C6H4C6H4CH2C6H4C5H4C5HNH3C3H2C2H2CHCH7CHCH2CH4C2H2C2H2CH2C2H2NC8H16NH5C2HCH4C2H2CH4NC6H16CH3CHCH7C2HCH2CNC2HC3H4CH5C3H2CNH4C2H4NH4CH3CH5C2HCHCH3CH7CHCH5C4NH3C2H3CH4CFeS2FeS2FeSFeS3FeS2FeS2FeSFeS3FeS2FeS2FeSFeS3CHCH2C2H3CH3CH4C6H4C3HC3H2C2HC2HC6H4C3H2C2H11NC8H20CH9NCH2C2H2CHCHCH2C3H3CH2CH2CHNC8H19C2HC5HCH4CH2CNH4CHNH6C4HCH2CH2CH5CH2CH4CHC2HCH3C2H10CHNH4CFeS2FeS2FeSFeS3FeS2FeS2FeSFeCS2FeS2FeS2FeSFeS3C6H2CHC6H4C6H12C3HC4H2C2SHCHC2H3CH2NCHC5H3NH9C4H2NC8H12CH13CH4CH2CH2CH3NH3CH5NHCHC2H2CH3CH2CH2CH2CH5NC8H8CH12CH4CH3CHCH2CH2C2H5CHCHCH4C6H5CH2
_chemical_formula_sum              "Fe128 S256 H1536 C896 N64"
_cell_length_a       67.8829
_cell_length_b       68.041
_cell_length_c       39.9661
_cell_angle_alpha    89.9718
_cell_angle_beta     89.8296
_cell_angle_gamma    85.08

_space_group_name_H-M_alt    "P 1"
_space_group_IT_number       1

loop_
  _space_group_symop_operation_xyz
  'x, y, z'

loop_
  _atom_site_type_symbol
  _atom_site_label
  _atom_site_symmetry_multiplicity
  _atom_site_fract_x
  _atom_site_fract_y
  _atom_site_fract_z
  _atom_site_occupancy
  Fe  Fe1       1.0  0.23331  0.13368  0.18130  1.0000
  S   S1        1.0  0.21407  0.12141  0.22008  1.0000
  S   S2        1.0  0.26484  0.14162  0.19184  1.0000
  Fe  Fe2       1.0  0.20282  0.12851  0.12505  1.0000
  S   S3        1.0  0.18154  0.11593  0.16175  1.0000
  S   S4        1.0  0.19251  0.12874  0.06996  1.0000
  Fe  Fe3       1.0  0.18870  0.14054  0.19679  1.0000
  S   S5        1.0  0.16874  0.15786  0.23610  1.0000
  Fe  Fe4       1.0  0.20848  0.09823  0.18191  1.0000
  S   S6        1.0  0.21604  0.06594  0.19597  1.0000
  S   S7        1.0  0.20850  0.15408  0.15916  1.0000
  S   S8        1.0  0.22919  0.10961  0.14401  1.0000
  Fe  Fe5       1.0  0.08410  0.24974  0.29677  1.0000
  S   S9        1.0  0.09414  0.27762  0.31950  1.0000
  S   S10       1.0  0.10125  0.22991  0.25714  1.0000
  Fe  Fe6       1.0  0.04186  0.25807  0.32814  1.0000
  S   S11       1.0  0.04938  0.28640  0.35192  1.0000
  S   S12       1.0  0.01254  0.24704  0.34530  1.0000
  Fe  Fe7       1.0  0.06462  0.29277  0.30296  1.0000
  S   S13       1.0  0.05626  0.31901  0.26731  1.0000
  Fe  Fe8       1.0  0.07790  0.26929  0.36699  1.0000
  S   S14       1.0  0.08965  0.26373  0.42076  1.0000
  S   S15       1.0  0.05520  0.26514  0.27864  1.0000
  S   S16       1.0  0.06986  0.24065  0.34453  1.0000
  Fe  Fe9       1.0  0.07342  0.46775  0.15139  1.0000
  S   S17       1.0  0.05295  0.46121  0.10970  1.0000
  H   H1        1.0  0.00264  0.29506  0.44246  1.0000
  Fe  Fe10      1.0  0.06646  0.42805  0.18756  1.0000
  S   S18       1.0  0.04528  0.41957  0.14831  1.0000
  S   S19       1.0  0.07461  0.40785  0.23239  1.0000
  Fe  Fe11      1.0  0.06708  0.43034  0.11147  1.0000
  S   S20       1.0  0.07961  0.41405  0.06597  1.0000
  Fe  Fe12      1.0  0.03355  0.45149  0.15059  1.0000
  C   C1        1.0  0.29183  0.08314  0.23964  1.0000
  S   S21       1.0  0.08917  0.43715  0.15045  1.0000
  S   S22       1.0  0.05305  0.45960  0.19262  1.0000
  C   C2        1.0  0.20775  0.00821  0.18010  1.0000
  C   C3        1.0  0.06635  0.41844  0.02851  1.0000
  C   C4        1.0  0.04642  0.42560  0.02909  1.0000
  C   C5        1.0  0.04360  0.22244  0.23585  1.0000
  H   H2        1.0  0.03890  0.42829  0.05276  1.0000
  H   H3        1.0  0.32854  0.13401  0.25127  1.0000
  H   H4        1.0  0.31645  0.02354  0.26864  1.0000
  C   C6        1.0  0.08288  0.27007  0.46311  1.0000
  C   C7        1.0  0.02669  0.27146  0.43205  1.0000
  H   H5        1.0  0.03835  0.21184  0.21780  1.0000
  H   H6        1.0  0.06544  0.29713  0.45186  1.0000
  H   H7        1.0  0.10879  0.46208  0.05580  1.0000
  C   C8        1.0  0.06153  0.34379  0.25846  1.0000
  C   C9        1.0  0.05269  0.35341  0.23030  1.0000
  C   C10       1.0  0.05648  0.37292  0.22191  1.0000
  C   C11       1.0  0.06895  0.38328  0.24193  1.0000
  C   C12       1.0  0.07766  0.37373  0.27018  1.0000
  C   C13       1.0  0.07410  0.35411  0.27831  1.0000
  H   H8        1.0  0.04296  0.34559  0.21470  1.0000
  H   H9        1.0  0.04977  0.37991  0.19998  1.0000
  H   H10       1.0  0.08737  0.38152  0.28588  1.0000
  H   H11       1.0  0.08099  0.34702  0.30007  1.0000
  C   C14       1.0  0.20313  0.13023  0.02897  1.0000
  C   C15       1.0  0.22331  0.13200  0.02366  1.0000
  H   H12       1.0  0.01989  0.40344  0.20478  1.0000
  H   H13       1.0  0.23301  0.13291  0.04492  1.0000
  H   H14       1.0  0.02215  0.30211  0.41614  1.0000
  C   C16       1.0  0.27964  0.13718  0.22833  1.0000
  C   C17       1.0  0.27135  0.13504  0.26011  1.0000
  C   C18       1.0  0.28359  0.13330  0.28869  1.0000
  C   C19       1.0  0.30432  0.13279  0.28584  1.0000
  C   C20       1.0  0.31266  0.13418  0.25393  1.0000
  C   C21       1.0  0.30037  0.13669  0.22549  1.0000
  H   H15       1.0  0.25552  0.13503  0.26276  1.0000
  H   H16       1.0  0.27696  0.13222  0.31320  1.0000
  C   C22       1.0  0.01577  0.39303  0.26871  1.0000
  H   H17       1.0  0.30698  0.13842  0.20111  1.0000
  C   C23       1.0  0.15003  0.17807  0.24114  1.0000
  C   C24       1.0  0.14141  0.18868  0.21409  1.0000
  C   C25       1.0  0.12667  0.20442  0.21957  1.0000
  C   C26       1.0  0.12036  0.21007  0.25213  1.0000
  C   C27       1.0  0.12910  0.19956  0.27921  1.0000
  C   C28       1.0  0.14373  0.18372  0.27371  1.0000
  H   H18       1.0  0.14596  0.18466  0.18887  1.0000
  H   H19       1.0  0.12009  0.21231  0.19831  1.0000
  H   H20       1.0  0.12453  0.20357  0.30442  1.0000
  H   H21       1.0  0.15020  0.17573  0.29495  1.0000
  C   C29       1.0  0.21555  0.02588  0.18968  1.0000
  C   C30       1.0  0.20502  0.04428  0.18400  1.0000
  C   C31       1.0  0.18645  0.04483  0.16865  1.0000
  H   H22       1.0  0.22988  0.02526  0.20158  1.0000
  H   H23       1.0  0.17809  0.05887  0.16445  1.0000
  H   H24       1.0  0.19304  0.05438  0.03568  1.0000
  H   H25       1.0  0.03330  0.22130  0.41540  1.0000
  C   C32       1.0  0.29061  0.08106  0.31514  1.0000
  C   C33       1.0  0.32440  0.03417  0.25372  1.0000
  H   H26       1.0  0.08522  0.17719  0.26804  1.0000
  N   N1        1.0  0.21460  0.05755  0.07512  1.0000
  C   C34       1.0  0.21018  0.03805  0.09008  1.0000
  C   C35       1.0  0.20321  0.07377  0.09479  1.0000
  H   H27       1.0  0.02209  0.26754  0.40637  1.0000
  C   C36       1.0  0.20863  0.05796  0.03884  1.0000
  C   C37       1.0  0.32461  0.07869  0.26515  1.0000
  C   C38       1.0  0.18078  0.07659  0.08817  1.0000
  H   H28       1.0  0.30804  0.05378  0.30649  1.0000
  H   H29       1.0  0.19923  0.08077  0.00211  1.0000
  H   H30       1.0  0.21339  0.03770  0.11728  1.0000
  H   H31       1.0  0.19416  0.03594  0.08827  1.0000
  H   H32       1.0  0.20913  0.08830  0.09054  1.0000
  H   H33       1.0  0.20501  0.07125  0.12217  1.0000
  H   H34       1.0  0.27024  0.06356  0.21930  1.0000
  H   H35       1.0  0.17058  0.00089  0.06901  1.0000
  H   H36       1.0  0.01444  0.18367  0.22980  1.0000
  H   H37       1.0  0.17394  0.08773  0.10594  1.0000
  H   H38       1.0  0.21194  0.09022  0.03625  1.0000
  H   H39       1.0  0.05827  0.22043  0.42977  1.0000
  H   H40       1.0  0.00056  0.23375  0.46215  1.0000
  C   C39       1.0  0.30971  0.05035  0.23846  1.0000
  H   H41       1.0  0.17757  0.08253  0.06271  1.0000
  H   H42       1.0  0.17342  0.06286  0.09210  1.0000
  H   H43       1.0  0.00817  0.20908  0.24324  1.0000
  H   H44       1.0  0.01749  0.39470  0.29618  1.0000
  H   H45       1.0  0.21732  0.04609  0.02468  1.0000
  H   H46       1.0  0.00205  0.24197  0.27466  1.0000
  H   H47       1.0  0.01541  0.20006  0.30154  1.0000
  C   C40       1.0  0.04467  0.23041  0.42557  1.0000
  N   N2        1.0  0.04427  0.19333  0.27873  1.0000
  C   C41       1.0  0.05432  0.18757  0.31150  1.0000
  C   C42       1.0  0.05377  0.17975  0.25231  1.0000
  C   C43       1.0  0.02265  0.19003  0.28225  1.0000
  C   C44       1.0  0.04693  0.21479  0.27212  1.0000
  C   C45       1.0  0.04435  0.19638  0.34356  1.0000
  H   H48       1.0  0.01951  0.37709  0.26365  1.0000
  H   H49       1.0  0.00949  0.43074  0.10781  1.0000
  H   H50       1.0  0.32828  0.01348  0.44966  1.0000
  H   H51       1.0  0.05561  0.17124  0.31488  1.0000
  H   H52       1.0  0.06978  0.19192  0.31183  1.0000
  H   H53       1.0  0.04647  0.18165  0.22773  1.0000
  H   H54       1.0  0.05205  0.16406  0.25894  1.0000
  H   H55       1.0  0.09966  0.24449  0.48344  1.0000
  N   N3        1.0  0.02125  0.25614  0.45724  1.0000
  H   H56       1.0  0.03708  0.22439  0.28879  1.0000
  H   H57       1.0  0.06217  0.21816  0.27899  1.0000
  H   H58       1.0  0.05477  0.19414  0.36489  1.0000
  H   H59       1.0  0.04031  0.21240  0.34133  1.0000
  H   H60       1.0  0.01240  0.45452  0.23929  1.0000
  C   C46       1.0  0.23633  0.06044  0.07711  1.0000
  C   C47       1.0  0.24580  0.05731  0.11198  1.0000
  C   C48       1.0  0.29714  0.06354  0.29199  1.0000
  N   N4        1.0  0.30583  0.06890  0.25883  1.0000
  H   H61       1.0  0.02103  0.17469  0.29108  1.0000
  H   H62       1.0  0.23909  0.07567  0.06916  1.0000
  H   H63       1.0  0.04302  0.27191  0.43032  1.0000
  C   C49       1.0  0.09871  0.46548  0.00423  1.0000
  H   H64       1.0  0.03255  0.23547  0.23595  1.0000
  N   N5        1.0  0.21992  0.19414  0.25131  1.0000
  C   C50       1.0  0.19866  0.19681  0.24004  1.0000
  C   C51       1.0  0.22581  0.17229  0.25388  1.0000
  C   C52       1.0  0.23348  0.20312  0.22681  1.0000
  C   C53       1.0  0.22158  0.20428  0.28455  1.0000
  C   C54       1.0  0.19050  0.21800  0.23105  1.0000
  C   C55       1.0  0.21727  0.16173  0.28415  1.0000
  C   C56       1.0  0.23284  0.19530  0.19069  1.0000
  C   C57       1.0  0.24231  0.20231  0.30083  1.0000
  H   H65       1.0  0.19615  0.18737  0.21796  1.0000
  H   H66       1.0  0.18871  0.19175  0.25985  1.0000
  H   H67       1.0  0.24216  0.16913  0.25420  1.0000
  H   H68       1.0  0.22114  0.16448  0.23116  1.0000
  H   H69       1.0  0.23056  0.21946  0.22607  1.0000
  H   H70       1.0  0.24916  0.20043  0.23498  1.0000
  H   H71       1.0  0.21759  0.22041  0.28201  1.0000
  H   H72       1.0  0.21053  0.19958  0.30294  1.0000
  H   H73       1.0  0.19059  0.22816  0.25268  1.0000
  H   H74       1.0  0.19835  0.22400  0.20949  1.0000
  H   H75       1.0  0.17477  0.21770  0.22348  1.0000
  H   H76       1.0  0.20093  0.16411  0.28542  1.0000
  H   H77       1.0  0.22103  0.14559  0.28175  1.0000
  H   H78       1.0  0.22376  0.16629  0.30806  1.0000
  H   H79       1.0  0.21793  0.19772  0.17944  1.0000
  H   H80       1.0  0.23812  0.17943  0.18938  1.0000
  H   H81       1.0  0.24303  0.20326  0.17485  1.0000
  H   H82       1.0  0.25080  0.21494  0.29370  1.0000
  H   H83       1.0  0.25128  0.18852  0.29416  1.0000
  H   H84       1.0  0.24072  0.20201  0.32850  1.0000
  N   N6        1.0  0.10589  0.36305  0.15907  1.0000
  C   C58       1.0  0.11499  0.37077  0.19040  1.0000
  C   C59       1.0  0.09696  0.34424  0.16856  1.0000
  C   C60       1.0  0.08997  0.37836  0.14711  1.0000
  C   C61       1.0  0.12204  0.35974  0.13320  1.0000
  C   C62       1.0  0.12236  0.39158  0.18804  1.0000
  C   C63       1.0  0.11148  0.32737  0.18181  1.0000
  C   C64       1.0  0.07324  0.37105  0.12552  1.0000
  C   C65       1.0  0.11665  0.35009  0.09996  1.0000
  H   H85       1.0  0.10429  0.37113  0.21160  1.0000
  H   H86       1.0  0.12796  0.36085  0.19860  1.0000
  H   H87       1.0  0.08900  0.33798  0.14747  1.0000
  H   H88       1.0  0.08544  0.34734  0.18817  1.0000
  H   H89       1.0  0.08230  0.38599  0.16876  1.0000
  H   H90       1.0  0.09653  0.39022  0.13263  1.0000
  H   H91       1.0  0.12760  0.37404  0.12587  1.0000
  H   H92       1.0  0.13541  0.35126  0.14356  1.0000
  H   H93       1.0  0.11018  0.40302  0.18278  1.0000
  H   H94       1.0  0.12851  0.39543  0.21270  1.0000
  H   H95       1.0  0.13433  0.39241  0.16933  1.0000
  H   H96       1.0  0.12349  0.32314  0.16369  1.0000
  H   H97       1.0  0.11773  0.33098  0.20645  1.0000
  H   H98       1.0  0.10327  0.31412  0.18595  1.0000
  H   H99       1.0  0.06425  0.38397  0.11499  1.0000
  H   H100      1.0  0.06310  0.36275  0.14089  1.0000
  H   H101      1.0  0.07869  0.36199  0.10398  1.0000
  H   H102      1.0  0.11023  0.36138  0.08204  1.0000
  H   H103      1.0  0.10656  0.33830  0.10289  1.0000
  H   H104      1.0  0.13026  0.34260  0.08865  1.0000
  C   C66       1.0  0.19087  0.12899  0.00075  1.0000
  H   H105      1.0  0.28427  0.05466  0.28844  1.0000
  H   H106      1.0  0.16419  0.02763  0.14755  1.0000
  C   C67       1.0  0.21166  0.07726  0.01976  1.0000
  H   H107      1.0  0.06072  0.48088  0.01813  1.0000
  H   H108      1.0  0.26123  0.06156  0.11107  1.0000
  H   H109      1.0  0.29051  0.09779  0.25185  1.0000
  C   C68       1.0  0.27061  0.07709  0.23462  1.0000
  H   H110      1.0  0.05143  0.24623  0.47024  1.0000
  H   H111      1.0  0.08118  0.17160  0.22524  1.0000
  H   H112      1.0  0.08268  0.46301  0.05192  1.0000
  H   H113      1.0  0.01717  0.43367  0.26578  1.0000
  H   H114      1.0  0.23755  0.02010  0.07472  1.0000
  C   C69       1.0  0.07599  0.18161  0.24601  1.0000
  C   C70       1.0  0.00311  0.24664  0.44606  1.0000
  C   C71       1.0  0.17861  0.02710  0.15911  1.0000
  H   H115      1.0  0.26272  0.07530  0.25859  1.0000
  H   H116      1.0  0.03450  0.22798  0.47580  1.0000
  H   H117      1.0  0.02703  0.40163  0.25705  1.0000
  C   C72       1.0  0.22130  0.01947  0.07474  1.0000
  C   C73       1.0  0.03816  0.24023  0.45911  1.0000
  H   H118      1.0  0.22574  0.07587  0.00535  1.0000
  H   H119      1.0  0.29772  0.08586  0.21421  1.0000
  H   H120      1.0  0.21820  0.00654  0.09032  1.0000
  H   H121      1.0  0.31455  0.05359  0.21253  1.0000
  C   C74       1.0  0.18919  0.00870  0.16490  1.0000
  H   H122      1.0  0.21606  0.01658  0.04910  1.0000
  H   H123      1.0  0.05752  0.22767  0.22576  1.0000
  C   C75       1.0  0.07075  0.28707  0.47144  1.0000
  H   H124      1.0  0.07887  0.19673  0.23823  1.0000
  H   H125      1.0  0.23791  0.06660  0.13133  1.0000
  H   H126      1.0  0.30319  0.08955  0.32227  1.0000
  H   H127      1.0  0.03097  0.18887  0.35013  1.0000
  H   H128      1.0  0.04846  0.24128  0.40654  1.0000
  H   H129      1.0  0.24503  0.05061  0.05919  1.0000
  H   H130      1.0  0.29577  0.04318  0.23461  1.0000
  H   H131      1.0  0.26191  0.08905  0.22074  1.0000
  H   H132      1.0  0.28454  0.07532  0.33869  1.0000
  C   C76       1.0  0.09010  0.25759  0.48933  1.0000
  C   C77       1.0  0.00958  0.19340  0.25098  1.0000
  H   H133      1.0  0.27874  0.09115  0.30391  1.0000
  H   H134      1.0  0.24654  0.04165  0.11997  1.0000
  C   C78       1.0  0.00238  0.38061  0.18870  1.0000
  C   C79       1.0  0.01296  0.43815  0.23993  1.0000
  S   S23       1.0  0.08836  0.49595  0.14142  1.0000
  H   H135      1.0  0.09533  0.48541  0.04827  1.0000
  H   H136      1.0  0.17526  0.12755  0.00439  1.0000
  C   C80       1.0  0.09600  0.46948  0.04208  1.0000
  H   H137      1.0  0.02460  0.43281  0.22190  1.0000
  H   H138      1.0  0.01490  0.37566  0.17190  1.0000
  H   H139      1.0  0.32765  0.04032  0.41242  1.0000
  H   H140      1.0  0.02638  0.29938  0.45997  1.0000
  H   H141      1.0  0.32123  0.09371  0.27572  1.0000
  S   S24       1.0  0.31897  0.13123  0.32289  1.0000
  H   H142      1.0  0.14495  0.00871  0.06654  1.0000
  C   C81       1.0  0.01879  0.29313  0.43834  1.0000
  S   S25       1.0  0.00191  0.46356  0.15335  1.0000
  H   H143      1.0  0.00658  0.27723  0.49219  1.0000
  C   C82       1.0  0.01865  0.26517  0.49166  1.0000
  H   H144      1.0  0.00518  0.24058  0.42030  1.0000
  C   C83       1.0  0.00417  0.40227  0.19874  1.0000
  H   H145      1.0  0.00301  0.37061  0.21062  1.0000
  H   H146      1.0  0.00161  0.41139  0.17574  1.0000
  H   H147      1.0  0.33001  0.08966  0.21411  1.0000
  H   H148      1.0  0.09791  0.44931  0.00058  1.0000
  C   C84       1.0  0.03609  0.42899  0.99893  1.0000
  H   H149      1.0  0.02062  0.43438  0.99951  1.0000
  C   C85       1.0  0.07590  0.41481  0.99764  1.0000
  H   H150      1.0  0.11424  0.46832  0.99826  1.0000
  Fe  Fe13      1.0  0.07022  0.27391  0.62834  1.0000
  S   S26       1.0  0.06997  0.24279  0.64852  1.0000
  S   S27       1.0  0.06562  0.28491  0.57368  1.0000
  Fe  Fe14      1.0  0.06946  0.29243  0.70005  1.0000
  S   S28       1.0  0.06930  0.26238  0.72389  1.0000
  S   S29       1.0  0.06379  0.31839  0.73731  1.0000
  Fe  Fe15      1.0  0.09259  0.25139  0.68656  1.0000
  S   S30       1.0  0.12262  0.23403  0.70058  1.0000
  Fe  Fe16      1.0  0.04680  0.25594  0.68484  1.0000
  S   S31       1.0  0.01895  0.24341  0.70542  1.0000
  S   S32       1.0  0.09406  0.28210  0.66428  1.0000
  S   S33       1.0  0.04577  0.28632  0.66309  1.0000
  Fe  Fe17      1.0  0.21913  0.13121  0.86641  1.0000
  S   S34       1.0  0.19227  0.11975  0.84236  1.0000
  S   S35       1.0  0.22932  0.13305  0.92148  1.0000
  Fe  Fe18      1.0  0.23899  0.13726  0.79728  1.0000
  S   S36       1.0  0.21320  0.12677  0.76905  1.0000
  S   S37       1.0  0.26655  0.14822  0.77184  1.0000
  Fe  Fe19      1.0  0.19342  0.14506  0.80495  1.0000
  S   S38       1.0  0.16343  0.16206  0.78998  1.0000
  Fe  Fe20      1.0  0.21375  0.10255  0.80787  1.0000
  S   S39       1.0  0.21738  0.07069  0.78918  1.0000
  S   S40       1.0  0.21928  0.15727  0.83108  1.0000
  S   S41       1.0  0.24047  0.11235  0.83392  1.0000
  C   C86       1.0  0.02126  0.35709  0.72440  1.0000
  Fe  Fe21      1.0  0.04742  0.43691  0.88165  1.0000
  S   S42       1.0  0.07910  0.44011  0.86769  1.0000
  S   S43       1.0  0.03241  0.43121  0.93098  1.0000
  Fe  Fe22      1.0  0.03269  0.45094  0.81326  1.0000
  S   S44       1.0  0.06289  0.45590  0.79410  1.0000
  C   C87       1.0  0.00018  0.41175  0.72032  1.0000
  Fe  Fe23      1.0  0.07153  0.42615  0.81804  1.0000
  S   S45       1.0  0.08951  0.40238  0.78693  1.0000
  Fe  Fe24      1.0  0.06765  0.46942  0.84483  1.0000
  H   H151      1.0  0.05667  0.30468  0.51127  1.0000
  S   S46       1.0  0.04090  0.42083  0.83440  1.0000
  S   S47       1.0  0.03654  0.46653  0.86144  1.0000
  H   H152      1.0  0.02137  0.35438  0.75172  1.0000
  H   H153      1.0  0.06250  0.45791  0.99706  1.0000
  H   H154      1.0  0.26353  0.14987  0.84476  1.0000
  S   S48       1.0  0.00448  0.45596  0.78412  1.0000
  H   H155      1.0  0.03226  0.42983  0.73749  1.0000
  H   H156      1.0  0.31407  0.08562  0.65148  1.0000
  C   C88       1.0  0.20648  0.04859  0.79954  1.0000
  C   C89       1.0  0.18927  0.04851  0.81886  1.0000
  C   C90       1.0  0.21497  0.03063  0.78637  1.0000
  H   H157      1.0  0.18278  0.06211  0.82963  1.0000
  H   H158      1.0  0.22826  0.03050  0.77136  1.0000
  C   C91       1.0  0.28901  0.13501  0.75817  1.0000
  C   C92       1.0  0.29246  0.11452  0.76128  1.0000
  C   C93       1.0  0.31056  0.10479  0.75029  1.0000
  H   H159      1.0  0.27337  0.18447  0.85093  1.0000
  C   C94       1.0  0.32209  0.13583  0.73312  1.0000
  C   C95       1.0  0.30400  0.14557  0.74417  1.0000
  H   H160      1.0  0.28116  0.10615  0.77206  1.0000
  H   H161      1.0  0.30756  0.11696  0.85545  1.0000
  H   H162      1.0  0.30878  0.06322  0.70599  1.0000
  H   H163      1.0  0.30161  0.16145  0.74196  1.0000
  C   C96       1.0  0.07131  0.34180  0.75014  1.0000
  C   C97       1.0  0.08621  0.35117  0.73384  1.0000
  C   C98       1.0  0.09159  0.36964  0.74539  1.0000
  C   C99       1.0  0.08197  0.37919  0.77298  1.0000
  C   C100      1.0  0.06703  0.36983  0.78916  1.0000
  C   C101      1.0  0.06187  0.35126  0.77796  1.0000
  H   H164      1.0  0.09364  0.34419  0.71240  1.0000
  H   H165      1.0  0.10324  0.37665  0.73271  1.0000
  H   H166      1.0  0.05970  0.37675  0.81074  1.0000
  H   H167      1.0  0.05050  0.34411  0.79111  1.0000
  C   C102      1.0  0.13354  0.21385  0.72564  1.0000
  C   C103      1.0  0.12240  0.20227  0.74622  1.0000
  C   C104      1.0  0.13181  0.18674  0.76569  1.0000
  C   C105      1.0  0.15253  0.18230  0.76501  1.0000
  C   C106      1.0  0.16366  0.19386  0.74439  1.0000
  C   C107      1.0  0.15426  0.20945  0.72503  1.0000
  H   H168      1.0  0.10651  0.20529  0.74719  1.0000
  H   H169      1.0  0.12290  0.17809  0.78149  1.0000
  H   H170      1.0  0.17955  0.19081  0.74331  1.0000
  H   H171      1.0  0.16316  0.21816  0.70930  1.0000
  H   H172      1.0  0.30680  0.17103  0.85229  1.0000
  C   C108      1.0  0.04576  0.42584  0.96804  1.0000
  H   H173      1.0  0.32364  0.03017  0.53873  1.0000
  H   H174      1.0  0.02706  0.24037  0.52598  1.0000
  H   H175      1.0  0.07318  0.41605  0.94371  1.0000
  C   C109      1.0  0.30571  0.11686  0.64701  1.0000
  C   C110      1.0  0.07288  0.27875  0.53148  1.0000
  C   C111      1.0  0.08504  0.26177  0.52316  1.0000
  H   H176      1.0  0.11901  0.45774  0.94423  1.0000
  H   H177      1.0  0.09068  0.25192  0.54282  1.0000
  H   H178      1.0  0.28354  0.09546  0.87609  1.0000
  C   C112      1.0  0.21865  0.13170  0.96248  1.0000
  C   C113      1.0  0.19852  0.12969  0.96781  1.0000
  H   H179      1.0  0.13140  0.28268  0.84117  1.0000
  H   H180      1.0  0.18880  0.12886  0.94656  1.0000
  C   C114      1.0  0.28319  0.11074  0.88601  1.0000
  H   H181      1.0  0.01474  0.34439  0.71256  1.0000
  H   H182      1.0  0.03252  0.47660  0.98185  1.0000
  C   C115      1.0  0.32626  0.03190  0.51145  1.0000
  H   H183      1.0  0.32314  0.01129  0.72751  1.0000
  C   C116      1.0  0.04634  0.48146  0.97081  1.0000
  H   H184      1.0  0.30831  0.11780  0.67439  1.0000
  H   H185      1.0  0.27268  0.13958  0.67100  1.0000
  C   C117      1.0  0.03551  0.39827  0.72163  1.0000
  H   H186      1.0  0.03663  0.35681  0.71486  1.0000
  H   H187      1.0  0.12921  0.08893  0.81338  1.0000
  H   H188      1.0  0.01672  0.42624  0.68106  1.0000
  C   C118      1.0  0.04352  0.41713  0.73579  1.0000
  H   H189      1.0  0.00653  0.24802  0.63552  1.0000
  H   H190      1.0  0.10847  0.46576  0.90519  1.0000
  H   H191      1.0  0.00081  0.24326  0.51574  1.0000
  C   C119      1.0  0.27586  0.15063  0.65166  1.0000
  C   C120      1.0  0.29242  0.12390  0.85978  1.0000
  C   C121      1.0  0.01364  0.39327  0.76894  1.0000
  H   H192      1.0  0.04596  0.38595  0.73070  1.0000
  H   H193      1.0  0.02596  0.38306  0.77873  1.0000
  H   H194      1.0  0.33084  0.16479  0.60066  1.0000
  H   H195      1.0  0.04726  0.47511  0.94526  1.0000
  C   C122      1.0  0.18025  0.03077  0.82374  1.0000
  H   H196      1.0  0.31207  0.12669  0.54323  1.0000
  C   C123      1.0  0.06589  0.29138  0.50528  1.0000
  H   H197      1.0  0.29370  0.15979  0.82030  1.0000
  H   H198      1.0  0.13159  0.12130  0.78816  1.0000
  H   H199      1.0  0.31968  0.13333  0.81238  1.0000
  H   H200      1.0  0.00459  0.44159  0.85148  1.0000
  H   H201      1.0  0.04987  0.41433  0.76105  1.0000
  N   N7        1.0  0.08435  0.47712  0.98130  1.0000
  C   C124      1.0  0.26713  0.17646  0.87212  1.0000
  C   C125      1.0  0.27087  0.15385  0.86839  1.0000
  N   N8        1.0  0.15135  0.10314  0.75561  1.0000
  C   C126      1.0  0.15456  0.12027  0.73266  1.0000
  C   C127      1.0  0.17086  0.09085  0.75836  1.0000
  C   C128      1.0  0.13512  0.09179  0.74145  1.0000
  C   C129      1.0  0.13654  0.13537  0.72707  1.0000
  C   C130      1.0  0.17984  0.08281  0.72503  1.0000
  C   C131      1.0  0.13496  0.06989  0.75208  1.0000
  H   H202      1.0  0.16693  0.12858  0.74193  1.0000
  H   H203      1.0  0.15908  0.11499  0.70721  1.0000
  H   H204      1.0  0.17003  0.07800  0.77504  1.0000
  H   H205      1.0  0.18206  0.09951  0.77045  1.0000
  H   H206      1.0  0.12035  0.09937  0.74764  1.0000
  H   H207      1.0  0.13607  0.09163  0.71360  1.0000
  H   H208      1.0  0.13249  0.14400  0.74993  1.0000
  H   H209      1.0  0.12351  0.12840  0.71752  1.0000
  H   H210      1.0  0.16876  0.07674  0.70857  1.0000
  H   H211      1.0  0.18725  0.09438  0.71148  1.0000
  H   H212      1.0  0.19143  0.07067  0.73032  1.0000
  H   H213      1.0  0.11939  0.06609  0.75361  1.0000
  H   H214      1.0  0.14201  0.05999  0.73255  1.0000
  C   C132      1.0  0.31936  0.12800  0.56789  1.0000
  H   H215      1.0  0.28469  0.12215  0.83550  1.0000
  H   H216      1.0  0.03776  0.39781  0.69403  1.0000
  H   H217      1.0  0.31438  0.04482  0.73777  1.0000
  H   H218      1.0  0.05525  0.42194  0.71897  1.0000
  H   H219      1.0  0.29978  0.16688  0.63575  1.0000
  N   N9        1.0  0.29223  0.14548  0.86868  1.0000
  C   C133      1.0  0.06571  0.41874  0.96743  1.0000
  H   H220      1.0  0.30409  0.15420  0.67418  1.0000
  H   H221      1.0  0.31241  0.09377  0.60924  1.0000
  C   C134      1.0  0.29829  0.15249  0.64839  1.0000
  H   H222      1.0  0.15702  0.12133  0.79826  1.0000
  H   H223      1.0  0.32965  0.15660  0.81176  1.0000
  H   H224      1.0  0.16666  0.03092  0.83796  1.0000
  N   N10       1.0  0.01461  0.39490  0.73137  1.0000
  C   C135      1.0  0.14248  0.09698  0.81782  1.0000
  H   H225      1.0  0.32006  0.04706  0.50496  1.0000
  H   H226      1.0  0.13966  0.10541  0.84143  1.0000
  H   H227      1.0  0.26234  0.14750  0.88887  1.0000
  C   C136      1.0  0.20631  0.01281  0.79214  1.0000
  C   C137      1.0  0.14564  0.11168  0.78947  1.0000
  H   H228      1.0  0.07752  0.47624  0.92795  1.0000
  H   H229      1.0  0.29164  0.11002  0.90973  1.0000
  H   H230      1.0  0.31296  0.08894  0.75285  1.0000
  H   H231      1.0  0.14050  0.14631  0.70806  1.0000
  H   H232      1.0  0.27264  0.18182  0.89623  1.0000
  C   C138      1.0  0.06377  0.47390  0.99326  1.0000
  C   C139      1.0  0.01421  0.25105  0.52043  1.0000
  H   H233      1.0  0.15567  0.08664  0.82247  1.0000
  H   H234      1.0  0.08379  0.45307  0.94596  1.0000
  C   C140      1.0  0.08753  0.46870  0.94658  1.0000
  C   C141      1.0  0.18871  0.01281  0.81042  1.0000
  H   H235      1.0  0.26909  0.14694  0.62750  1.0000
  C   C142      1.0  0.30322  0.15642  0.84256  1.0000
  H   H236      1.0  0.01140  0.25986  0.54365  1.0000
  H   H237      1.0  0.30085  0.16465  0.90823  1.0000
  C   C143      1.0  0.10865  0.46916  0.93238  1.0000
  H   H238      1.0  0.14170  0.06603  0.77658  1.0000
  N   N11       1.0  0.31008  0.13589  0.63021  1.0000
  C   C144      1.0  0.30033  0.14864  0.90316  1.0000
  C   C145      1.0  0.30380  0.13606  0.59390  1.0000
  H   H239      1.0  0.00064  0.42474  0.73704  1.0000
  H   H240      1.0  0.24653  0.13433  0.98710  1.0000
  H   H241      1.0  0.26750  0.11548  0.89138  1.0000
  H   H242      1.0  0.29017  0.14385  0.92300  1.0000
  C   C146      1.0  0.31744  0.04899  0.71149  1.0000
  H   H243      1.0  0.29055  0.12767  0.59061  1.0000
  H   H244      1.0  0.29892  0.15130  0.58538  1.0000
  H   H245      1.0  0.25090  0.18045  0.87192  1.0000
  H   H246      1.0  0.01581  0.40776  0.78069  1.0000
  H   H247      1.0  0.15564  0.28973  0.83911  1.0000
  C   C147      1.0  0.33169  0.13891  0.63455  1.0000
  H   H248      1.0  0.31156  0.03817  0.69440  1.0000
  C   C148      1.0  0.32545  0.11531  0.73587  1.0000
  N   N12       1.0  0.12146  0.28975  0.77432  1.0000
  C   C149      1.0  0.12048  0.30201  0.74271  1.0000
  C   C150      1.0  0.10431  0.29742  0.79618  1.0000
  C   C151      1.0  0.11951  0.26854  0.76445  1.0000
  C   C152      1.0  0.14115  0.29181  0.79063  1.0000
  C   C153      1.0  0.13546  0.29531  0.71489  1.0000
  C   C154      1.0  0.10513  0.31856  0.80981  1.0000
  C   C155      1.0  0.11129  0.25481  0.79083  1.0000
  C   C156      1.0  0.14466  0.28184  0.82498  1.0000
  H   H249      1.0  0.10547  0.30233  0.73137  1.0000
  H   H250      1.0  0.12292  0.31765  0.74800  1.0000
  H   H251      1.0  0.10262  0.28805  0.81849  1.0000
  H   H252      1.0  0.09013  0.29681  0.78240  1.0000
  H   H253      1.0  0.10946  0.26786  0.74261  1.0000
  H   H254      1.0  0.13398  0.26128  0.75584  1.0000
  H   H255      1.0  0.15336  0.28530  0.77441  1.0000
  H   H256      1.0  0.14429  0.30756  0.79280  1.0000
  H   H257      1.0  0.13400  0.27996  0.70647  1.0000
  H   H258      1.0  0.13251  0.30491  0.69264  1.0000
  H   H259      1.0  0.15092  0.29692  0.72250  1.0000
  H   H260      1.0  0.10531  0.32975  0.78976  1.0000
  H   H261      1.0  0.09155  0.32255  0.82478  1.0000
  H   H262      1.0  0.11793  0.31971  0.82665  1.0000
  H   H263      1.0  0.09525  0.25866  0.79517  1.0000
  H   H264      1.0  0.11935  0.25463  0.81480  1.0000
  H   H265      1.0  0.11272  0.23948  0.78102  1.0000
  H   H266      1.0  0.15048  0.26616  0.82197  1.0000
  C   C157      1.0  0.23095  0.13277  0.99072  1.0000
  H   H267      1.0  0.26846  0.16495  0.66028  1.0000
  H   H268      1.0  0.32637  0.05007  0.64085  1.0000
  H   H269      1.0  0.32248  0.13560  0.93768  1.0000
  C   C158      1.0  0.31731  0.09787  0.63452  1.0000
  H   H270      1.0  0.28987  0.11416  0.64428  1.0000
  C   C159      1.0  0.00274  0.41909  0.68417  1.0000
  H   H271      1.0  0.32503  0.12501  0.89765  1.0000
  C   C160      1.0  0.32133  0.13919  0.91058  1.0000
  H   H272      1.0  0.33162  0.01752  0.66618  1.0000
  H   H273      1.0  0.11435  0.48385  0.93501  1.0000
  C   C161      1.0  0.00898  0.37634  0.71459  1.0000
  H   H274      1.0  0.32651  0.11326  0.57416  1.0000
  H   H275      1.0  0.01040  0.37754  0.68695  1.0000
  C   C162      1.0  0.32259  0.14610  0.82835  1.0000
  H   H276      1.0  0.21292  0.99917  0.78152  1.0000
  H   H277      1.0  0.33102  0.13826  0.56419  1.0000
  H   H278      1.0  0.31752  0.02120  0.49874  1.0000
  H   H279      1.0  0.03224  0.27219  0.49887  1.0000
  H   H280      1.0  0.00208  0.40715  0.66549  1.0000
  H   H281      1.0  0.09128  0.40912  0.99708  1.0000
  Fe  Fe25      1.0  0.06864  0.65598  0.17994  1.0000
  S   S49       1.0  0.05981  0.66569  0.12774  1.0000
  S   S50       1.0  0.07469  0.67374  0.22709  1.0000
  Fe  Fe26      1.0  0.06226  0.61195  0.16504  1.0000
  S   S51       1.0  0.05302  0.61838  0.11214  1.0000
  S   S52       1.0  0.05958  0.58269  0.19210  1.0000
  Fe  Fe27      1.0  0.07783  0.63815  0.11068  1.0000
  S   S53       1.0  0.09705  0.63726  0.06432  1.0000
  Fe  Fe28      1.0  0.03580  0.64518  0.13289  1.0000
  H   H282      1.0  0.18853  0.98168  0.01512  1.0000
  S   S54       1.0  0.08879  0.62969  0.16247  1.0000
  S   S55       1.0  0.04292  0.63753  0.18616  1.0000
  Fe  Fe29      1.0  0.08041  0.78550  0.29706  1.0000
  S   S56       1.0  0.06537  0.81505  0.28250  1.0000
  S   S57       1.0  0.08556  0.76529  0.25128  1.0000
  Fe  Fe30      1.0  0.08582  0.79990  0.36978  1.0000
  S   S58       1.0  0.07211  0.83038  0.35810  1.0000
  S   S59       1.0  0.09629  0.78939  0.42216  1.0000
  Fe  Fe31      1.0  0.04908  0.81424  0.33123  1.0000
  S   S60       1.0  0.01671  0.82356  0.34313  1.0000
  Fe  Fe32      1.0  0.09004  0.82845  0.30990  1.0000
  S   S61       1.0  0.10335  0.85375  0.28042  1.0000
  S   S62       1.0  0.06227  0.78381  0.34416  1.0000
  S   S63       1.0  0.10547  0.79888  0.32348  1.0000
  Fe  Fe33      1.0  0.19434  0.91422  0.19263  1.0000
  S   S64       1.0  0.22353  0.90462  0.16730  1.0000
  S   S65       1.0  0.18255  0.89120  0.22904  1.0000
  Fe  Fe34      1.0  0.19528  0.95653  0.16251  1.0000
  S   S66       1.0  0.22413  0.94920  0.13612  1.0000
  S   S67       1.0  0.17896  0.98669  0.15243  1.0000
  Fe  Fe35      1.0  0.21126  0.92103  0.12138  1.0000
  S   S68       1.0  0.20782  0.90775  0.06894  1.0000
  Fe  Fe36      1.0  0.23388  0.93374  0.18422  1.0000
  S   S69       1.0  0.26094  0.94330  0.21267  1.0000
  S   S70       1.0  0.18171  0.92898  0.14595  1.0000
  S   S71       1.0  0.20531  0.94269  0.21137  1.0000
  C   C163      1.0  0.21240  0.91585  0.02736  1.0000
  C   C164      1.0  0.05086  0.75427  0.42068  1.0000
  C   C165      1.0  0.01324  0.76856  0.46033  1.0000
  H   H283      1.0  0.04178  0.52576  0.09692  1.0000
  H   H284      1.0  0.23585  0.93385  0.03989  1.0000
  C   C166      1.0  0.22701  0.92852  0.01990  1.0000
  C   C167      1.0  0.16474  0.95101  0.06644  1.0000
  H   H285      1.0  0.26416  0.87697  0.26258  1.0000
  H   H286      1.0  0.08317  0.69511  0.01416  1.0000
  H   H287      1.0  0.17476  0.93722  0.06433  1.0000
  C   C168      1.0  0.28349  0.93307  0.23104  1.0000
  C   C169      1.0  0.29410  0.94512  0.25183  1.0000
  H   H288      1.0  0.20453  0.91673  0.28179  1.0000
  C   C170      1.0  0.30890  0.90618  0.24122  1.0000
  C   C171      1.0  0.29102  0.91351  0.22587  1.0000
  H   H289      1.0  0.28847  0.96027  0.25603  1.0000
  H   H290      1.0  0.24618  0.91157  0.24983  1.0000
  H   H291      1.0  0.28327  0.90414  0.20958  1.0000
  C   C172      1.0  0.08751  0.79680  0.46284  1.0000
  C   C173      1.0  0.04543  0.77530  0.43392  1.0000
  C   C174      1.0  0.07452  0.81364  0.46798  1.0000
  N   N13       1.0  0.02376  0.78197  0.43761  1.0000
  H   H292      1.0  0.07006  0.82295  0.44692  1.0000
  N   N14       1.0  0.16643  0.96347  0.03545  1.0000
  C   C175      1.0  0.15313  0.98237  0.03728  1.0000
  H   H293      1.0  0.03226  0.51456  0.17302  1.0000
  H   H294      1.0  0.03509  0.54462  0.14382  1.0000
  H   H295      1.0  0.06690  0.51046  0.20122  1.0000
  C   C176      1.0  0.16025  0.88100  0.24270  1.0000
  C   C177      1.0  0.14140  0.88803  0.23150  1.0000
  C   C178      1.0  0.12432  0.87963  0.24352  1.0000
  C   C179      1.0  0.12565  0.86397  0.26681  1.0000
  C   C180      1.0  0.14452  0.85681  0.27778  1.0000
  C   C181      1.0  0.16159  0.86529  0.26591  1.0000
  H   H296      1.0  0.13994  0.90009  0.21378  1.0000
  H   H297      1.0  0.10990  0.88538  0.23474  1.0000
  H   H298      1.0  0.14595  0.84481  0.29560  1.0000
  H   H299      1.0  0.17599  0.85961  0.27486  1.0000
  H   H300      1.0  0.24263  0.86712  0.24416  1.0000
  C   C182      1.0  0.08297  0.63812  0.02728  1.0000
  H   H301      1.0  0.09158  0.53425  0.11252  1.0000
  H   H302      1.0  0.05560  0.64730  0.05226  1.0000
  H   H303      1.0  0.05075  0.75394  0.39293  1.0000
  C   C183      1.0  0.06760  0.55877  0.17719  1.0000
  C   C184      1.0  0.25129  0.88019  0.24589  1.0000
  C   C185      1.0  0.07749  0.55575  0.14663  1.0000
  H   H304      1.0  0.05629  0.54449  0.22049  1.0000
  H   H305      1.0  0.08059  0.56829  0.13141  1.0000
  H   H306      1.0  0.00227  0.63448  0.02643  1.0000
  C   C186      1.0  0.08364  0.53643  0.13592  1.0000
  C   C187      1.0  0.03459  0.51229  0.10372  1.0000
  H   H307      1.0  0.03019  0.83236  0.44673  1.0000
  H   H308      1.0  0.22029  0.88290  0.35458  1.0000
  C   C188      1.0  0.07647  0.69952  0.23294  1.0000
  C   C189      1.0  0.07601  0.70717  0.26572  1.0000
  C   C190      1.0  0.07818  0.72732  0.27179  1.0000
  C   C191      1.0  0.08121  0.74006  0.24511  1.0000
  C   C192      1.0  0.08166  0.73242  0.21233  1.0000
  C   C193      1.0  0.07913  0.71233  0.20621  1.0000
  H   H309      1.0  0.07403  0.69742  0.28661  1.0000
  H   H310      1.0  0.07791  0.73291  0.29713  1.0000
  H   H311      1.0  0.08403  0.74208  0.19149  1.0000
  H   H312      1.0  0.07962  0.70670  0.18090  1.0000
  N   N15       1.0  0.23187  0.89925  0.29309  1.0000
  C   C194      1.0  0.22084  0.88119  0.29918  1.0000
  C   C195      1.0  0.21755  0.91718  0.29873  1.0000
  C   C196      1.0  0.24909  0.89884  0.31704  1.0000
  C   C197      1.0  0.21046  0.87994  0.33343  1.0000
  C   C198      1.0  0.22570  0.93746  0.29435  1.0000
  C   C199      1.0  0.26667  0.91073  0.30703  1.0000
  H   H313      1.0  0.23096  0.86748  0.29706  1.0000
  H   H314      1.0  0.21156  0.91744  0.32462  1.0000
  H   H315      1.0  0.24393  0.90404  0.34225  1.0000
  H   H316      1.0  0.25559  0.88337  0.32052  1.0000
  H   H317      1.0  0.19671  0.89003  0.33451  1.0000
  C   C200      1.0  0.20110  0.96887  0.06057  1.0000
  H   H318      1.0  0.25707  0.88265  0.22033  1.0000
  H   H319      1.0  0.02299  0.57400  0.11254  1.0000
  H   H320      1.0  0.23622  0.94036  0.31458  1.0000
  H   H321      1.0  0.21324  0.94911  0.29627  1.0000
  H   H322      1.0  0.27294  0.91703  0.32990  1.0000
  H   H323      1.0  0.26307  0.92325  0.28997  1.0000
  H   H324      1.0  0.27895  0.90088  0.29618  1.0000
  C   C201      1.0  0.06268  0.64361  0.02853  1.0000
  C   C202      1.0  0.06379  0.54230  0.19670  1.0000
  C   C203      1.0  0.06969  0.52299  0.18576  1.0000
  H   H325      1.0  0.01466  0.82430  0.41459  1.0000
  H   H326      1.0  0.21553  0.97397  0.05277  1.0000
  H   H327      1.0  0.04142  0.74319  0.43064  1.0000
  H   H328      1.0  0.00099  0.76812  0.36291  1.0000
  C   C204      1.0  0.14394  0.94478  0.07471  1.0000
  H   H329      1.0  0.01462  0.61668  0.15234  1.0000
  H   H330      1.0  0.01244  0.79301  0.29281  1.0000
  C   C205      1.0  0.07966  0.51994  0.15528  1.0000
  H   H331      1.0  0.22493  0.89980  0.24038  1.0000
  H   H332      1.0  0.04320  0.50448  0.12394  1.0000
  C   C206      1.0  0.15569  0.99547  0.06808  1.0000
  H   H333      1.0  0.23260  0.93937  0.26959  1.0000
  H   H334      1.0  0.13289  0.95761  0.07774  1.0000
  H   H335      1.0  0.20580  0.86480  0.33679  1.0000
  N   N16       1.0  0.11867  0.81066  0.19630  1.0000
  C   C207      1.0  0.11680  0.81268  0.15889  1.0000
  C   C208      1.0  0.13215  0.82551  0.20892  1.0000
  C   C209      1.0  0.09886  0.81463  0.21332  1.0000
  C   C210      1.0  0.12677  0.78985  0.20432  1.0000
  C   C211      1.0  0.10215  0.79957  0.14222  1.0000
  C   C212      1.0  0.15370  0.82300  0.19623  1.0000
  C   C213      1.0  0.08661  0.83388  0.20301  1.0000
  C   C214      1.0  0.13283  0.78591  0.24100  1.0000
  H   H336      1.0  0.11265  0.82830  0.15166  1.0000
  H   H337      1.0  0.13131  0.80879  0.14651  1.0000
  H   H338      1.0  0.13250  0.82557  0.23676  1.0000
  H   H339      1.0  0.12644  0.84075  0.20186  1.0000
  H   H340      1.0  0.08942  0.80221  0.20958  1.0000
  H   H341      1.0  0.10079  0.81551  0.24089  1.0000
  H   H342      1.0  0.11563  0.77923  0.19861  1.0000
  H   H343      1.0  0.13979  0.78522  0.18832  1.0000
  H   H344      1.0  0.08697  0.80208  0.15250  1.0000
  H   H345      1.0  0.10126  0.80309  0.11510  1.0000
  H   H346      1.0  0.10723  0.78368  0.14433  1.0000
  H   H347      1.0  0.15467  0.82597  0.16902  1.0000
  H   H348      1.0  0.16220  0.83407  0.20896  1.0000
  H   H349      1.0  0.16116  0.80828  0.20205  1.0000
  H   H350      1.0  0.07281  0.83542  0.21810  1.0000
  H   H351      1.0  0.08204  0.83381  0.17644  1.0000
  H   H352      1.0  0.09443  0.84718  0.20819  1.0000
  H   H353      1.0  0.14567  0.79390  0.24849  1.0000
  H   H354      1.0  0.13714  0.76989  0.24426  1.0000
  H   H355      1.0  0.12037  0.78968  0.25829  1.0000
  H   H356      1.0  0.13732  0.97925  0.03639  1.0000
  H   H357      1.0  0.01740  0.51704  0.22838  1.0000
  H   H358      1.0  0.20933  0.87985  0.27972  1.0000
  C   C215      1.0  0.23818  0.89871  0.25686  1.0000
  H   H359      1.0  0.31465  0.89109  0.23676  1.0000
  H   H360      1.0  0.06603  0.74925  0.42925  1.0000
  C   C216      1.0  0.18771  0.96778  0.02960  1.0000
  N   N17       1.0  0.09716  0.60966  0.26287  1.0000
  C   C217      1.0  0.07485  0.61126  0.26068  1.0000
  C   C218      1.0  0.10480  0.59379  0.23851  1.0000
  C   C219      1.0  0.10394  0.62945  0.25288  1.0000
  C   C220      1.0  0.10288  0.60470  0.29845  1.0000
  C   C221      1.0  0.06373  0.62757  0.28211  1.0000
  C   C222      1.0  0.10064  0.57248  0.24774  1.0000
  C   C223      1.0  0.12519  0.62995  0.23932  1.0000
  C   C224      1.0  0.12513  0.60033  0.30565  1.0000
  H   H361      1.0  0.07007  0.61406  0.23434  1.0000
  H   H362      1.0  0.06873  0.59727  0.26805  1.0000
  H   H363      1.0  0.12101  0.59332  0.23497  1.0000
  H   H364      1.0  0.09860  0.59699  0.21310  1.0000
  H   H365      1.0  0.09436  0.63623  0.23275  1.0000
  H   H366      1.0  0.10231  0.64010  0.27409  1.0000
  H   H367      1.0  0.09784  0.61711  0.31539  1.0000
  H   H368      1.0  0.09494  0.59219  0.30814  1.0000
  H   H369      1.0  0.04769  0.62798  0.27636  1.0000
  H   H370      1.0  0.06532  0.62454  0.30926  1.0000
  H   H371      1.0  0.06826  0.64246  0.27633  1.0000
  H   H372      1.0  0.08467  0.57050  0.24976  1.0000
  H   H373      1.0  0.10647  0.56242  0.22743  1.0000
  H   H374      1.0  0.10823  0.56745  0.27113  1.0000
  H   H375      1.0  0.12663  0.62333  0.21392  1.0000
  H   H376      1.0  0.13653  0.62278  0.25608  1.0000
  H   H377      1.0  0.12844  0.64561  0.23651  1.0000
  H   H378      1.0  0.13199  0.61411  0.31194  1.0000
  H   H379      1.0  0.13347  0.59269  0.28498  1.0000
  H   H380      1.0  0.12704  0.59006  0.32726  1.0000
  C   C225      1.0  0.01133  0.52722  0.20849  1.0000
  N   N18       1.0  0.00845  0.52918  0.14400  1.0000
  H   H381      1.0  0.19483  0.97899  0.08023  1.0000
  C   C226      1.0  0.31954  0.91825  0.26197  1.0000
  H   H382      1.0  0.01480  0.55759  0.16390  1.0000
  C   C227      1.0  0.02733  0.81948  0.43096  1.0000
  C   C228      1.0  0.31195  0.93778  0.26727  1.0000
  H   H383      1.0  0.04057  0.81596  0.41514  1.0000
  C   C229      1.0  0.15998  0.95166  0.00603  1.0000
  H   H384      1.0  0.03592  0.64929  0.00044  1.0000
  C   C230      1.0  0.02228  0.80219  0.45365  1.0000
  H   H385      1.0  0.14461  0.93682  0.09902  1.0000
  H   H386      1.0  0.05273  0.78521  0.41664  1.0000
  C   C231      1.0  0.01881  0.54789  0.14213  1.0000
  H   H387      1.0  0.13887  0.93432  0.05599  1.0000
  H   H388      1.0  0.01034  0.50265  0.17448  1.0000
  S   S72       1.0  0.00481  0.65217  0.11443  1.0000
  H   H389      1.0  0.16968  0.95858  0.08915  1.0000
  H   H390      1.0  0.14400  0.94931  0.00775  1.0000
  H   H391      1.0  0.05361  0.77689  0.45770  1.0000
  C   C232      1.0  0.01256  0.51668  0.11321  1.0000
  H   H392      1.0  0.01917  0.55307  0.08729  1.0000
  H   H393      1.0  0.01853  0.54113  0.21149  1.0000
  H   H394      1.0  0.20434  0.95398  0.07159  1.0000
  H   H395      1.0  0.10369  0.77222  0.48728  1.0000
  H   H396      1.0  0.03744  0.75907  0.49525  1.0000
  H   H397      1.0  0.31990  0.94727  0.28308  1.0000
  C   C233      1.0  0.01373  0.78371  0.40385  1.0000
  C   C234      1.0  0.01448  0.56078  0.11074  1.0000
  H   H398      1.0  0.01282  0.75358  0.44965  1.0000
  H   H399      1.0  0.01732  0.75232  0.38773  1.0000
  H   H400      1.0  0.16801  0.93665  0.00596  1.0000
  H   H401      1.0  0.03219  0.80242  0.47579  1.0000
  H   H402      1.0  0.15247  0.98793  0.09183  1.0000
  C   C235      1.0  0.09359  0.78525  0.49083  1.0000
  H   H403      1.0  0.00481  0.52354  0.09106  1.0000
  C   C236      1.0  0.01596  0.51752  0.17413  1.0000
  H   H404      1.0  0.19023  0.89874  0.00615  1.0000
  H   H405      1.0  0.00694  0.59799  0.02190  1.0000
  H   H406      1.0  0.15535  0.99180  0.01508  1.0000
  C   C237      1.0  0.20138  0.90877  0.00080  1.0000
  H   H407      1.0  0.02379  0.78947  0.38486  1.0000
  H   H408      1.0  0.00659  0.50205  0.11627  1.0000
  C   C238      1.0  0.00598  0.76493  0.38899  1.0000
  H   H409      1.0  0.03569  0.50248  0.08148  1.0000
  H   H410      1.0  0.32715  0.98692  0.47970  1.0000
  H   H411      1.0  0.21605  0.99417  0.18475  1.0000
  C   C239      1.0  0.02194  0.76573  0.49584  1.0000
  H   H412      1.0  0.00706  0.80618  0.46337  1.0000
  H   H413      1.0  0.19555  0.95612  0.01382  1.0000
  H   H414      1.0  0.10382  0.67905  0.00058  1.0000
  H   H415      1.0  0.00054  0.79466  0.40482  1.0000
  H   H416      1.0  0.08144  0.50540  0.00668  1.0000
  C   C240      1.0  0.99991  0.61627  0.14243  1.0000
  C   C241      1.0  0.05151  0.64469  0.99904  1.0000
  Fe  Fe37      1.0  0.07035  0.80499  0.62377  1.0000
  S   S73       1.0  0.05906  0.82809  0.66146  1.0000
  S   S74       1.0  0.06435  0.81446  0.56892  1.0000
  Fe  Fe38      1.0  0.08386  0.77630  0.68093  1.0000
  S   S75       1.0  0.07408  0.79797  0.72139  1.0000
  S   S76       1.0  0.09433  0.74372  0.68805  1.0000
  Fe  Fe39      1.0  0.04647  0.80344  0.68986  1.0000
  S   S77       1.0  0.01669  0.79979  0.71533  1.0000
  Fe  Fe40      1.0  0.08779  0.82098  0.68961  1.0000
  S   S78       1.0  0.10527  0.84827  0.70176  1.0000
  S   S79       1.0  0.05588  0.78098  0.65076  1.0000
  S   S80       1.0  0.09943  0.79864  0.65060  1.0000
  Fe  Fe41      1.0  0.18451  0.91521  0.81011  1.0000
  S   S81       1.0  0.21598  0.90718  0.82739  1.0000
  S   S82       1.0  0.16639  0.88817  0.80008  1.0000
  Fe  Fe42      1.0  0.19122  0.95974  0.81451  1.0000
  S   S83       1.0  0.22289  0.95391  0.83008  1.0000
  C   C242      1.0  0.02994  0.56862  0.82188  1.0000
  Fe  Fe43      1.0  0.22483  0.93015  0.79088  1.0000
  S   S84       1.0  0.24928  0.92006  0.75324  1.0000
  Fe  Fe44      1.0  0.21140  0.93160  0.86558  1.0000
  S   S85       1.0  0.22505  0.93386  0.91806  1.0000
  S   S86       1.0  0.19363  0.93740  0.77231  1.0000
  S   S87       1.0  0.17952  0.93821  0.85124  1.0000
  Fe  Fe45      1.0  0.05748  0.63936  0.87899  1.0000
  S   S88       1.0  0.08835  0.63456  0.85834  1.0000
  S   S89       1.0  0.04555  0.64202  0.93188  1.0000
  Fe  Fe46      1.0  0.03932  0.64312  0.80941  1.0000
  S   S90       1.0  0.06851  0.63882  0.78325  1.0000
  C   C243      1.0  0.04116  0.58672  0.75125  1.0000
  Fe  Fe47      1.0  0.07512  0.61428  0.82108  1.0000
  S   S91       1.0  0.08572  0.58368  0.80098  1.0000
  Fe  Fe48      1.0  0.07877  0.65943  0.82232  1.0000
  S   S92       1.0  0.09349  0.68832  0.81744  1.0000
  S   S93       1.0  0.04510  0.61763  0.84448  1.0000
  S   S94       1.0  0.04882  0.66514  0.84571  1.0000
  H   H417      1.0  0.27407  0.94010  0.90572  1.0000
  H   H418      1.0  0.21738  0.89822  0.73335  1.0000
  C   C244      1.0  0.12266  0.66782  0.90027  1.0000
  H   H419      1.0  0.29954  0.95072  0.86012  1.0000
  H   H420      1.0  0.13944  0.85401  0.63935  1.0000
  C   C245      1.0  0.27172  0.93011  0.74139  1.0000
  C   C246      1.0  0.27826  0.94680  0.75683  1.0000
  H   H421      1.0  0.24498  0.88301  0.71608  1.0000
  H   H422      1.0  0.24536  0.85909  0.75630  1.0000
  C   C247      1.0  0.28363  0.92057  0.71631  1.0000
  H   H423      1.0  0.26914  0.95449  0.77571  1.0000
  H   H424      1.0  0.25410  0.86609  0.68491  1.0000
  H   H425      1.0  0.27875  0.90767  0.70410  1.0000
  H   H426      1.0  0.07307  0.85691  0.57472  1.0000
  C   C248      1.0  0.09335  0.70175  0.96376  1.0000
  C   C249      1.0  0.30186  0.92754  0.70684  1.0000
  H   H427      1.0  0.05690  0.70921  0.92026  1.0000
  H   H428      1.0  0.04075  0.57991  0.82155  1.0000
  C   C250      1.0  0.09275  0.72899  0.72465  1.0000
  C   C251      1.0  0.08984  0.70886  0.72116  1.0000
  C   C252      1.0  0.08916  0.69644  0.74938  1.0000
  C   C253      1.0  0.09213  0.70385  0.78146  1.0000
  C   C254      1.0  0.09507  0.72399  0.78500  1.0000
  C   C255      1.0  0.09512  0.73656  0.75684  1.0000
  H   H429      1.0  0.08824  0.70278  0.69640  1.0000
  H   H430      1.0  0.08712  0.68096  0.74618  1.0000
  H   H431      1.0  0.09754  0.72987  0.80962  1.0000
  H   H432      1.0  0.09759  0.75195  0.75992  1.0000
  C   C256      1.0  0.14863  0.87783  0.77316  1.0000
  C   C257      1.0  0.14363  0.85840  0.77905  1.0000
  C   C258      1.0  0.13047  0.84916  0.75780  1.0000
  C   C259      1.0  0.12200  0.85916  0.72996  1.0000
  C   C260      1.0  0.12716  0.87852  0.72384  1.0000
  C   C261      1.0  0.14026  0.88779  0.74518  1.0000
  H   H433      1.0  0.14997  0.85038  0.80037  1.0000
  H   H434      1.0  0.12682  0.83431  0.76309  1.0000
  H   H435      1.0  0.12076  0.88655  0.70258  1.0000
  H   H436      1.0  0.14387  0.90267  0.73998  1.0000
  C   C262      1.0  0.07801  0.55812  0.85299  1.0000
  C   C263      1.0  0.08141  0.56042  0.81872  1.0000
  C   C264      1.0  0.08209  0.54365  0.79797  1.0000
  H   H437      1.0  0.07754  0.57084  0.86930  1.0000
  H   H438      1.0  0.08484  0.54523  0.77146  1.0000
  C   C265      1.0  0.23236  0.86566  0.77050  1.0000
  H   H439      1.0  0.07442  0.53753  0.89314  1.0000
  H   H440      1.0  0.10773  0.62930  0.99517  1.0000
  H   H441      1.0  0.31039  0.91661  0.85471  1.0000
  C   C266      1.0  0.16292  0.96069  0.97101  1.0000
  C   C267      1.0  0.20463  0.91446  0.96735  1.0000
  C   C268      1.0  0.21935  0.92697  0.95987  1.0000
  H   H442      1.0  0.01622  0.62481  0.97601  1.0000
  H   H443      1.0  0.19603  0.90882  0.94732  1.0000
  H   H444      1.0  0.01033  0.64175  0.85288  1.0000
  C   C269      1.0  0.08662  0.79026  0.52339  1.0000
  C   C270      1.0  0.07340  0.80695  0.52842  1.0000
  C   C271      1.0  0.01580  0.72021  0.75859  1.0000
  H   H445      1.0  0.09145  0.78116  0.54453  1.0000
  H   H446      1.0  0.29909  0.92340  0.92816  1.0000
  C   C272      1.0  0.06044  0.64012  0.96801  1.0000
  H   H447      1.0  0.09580  0.84560  0.53935  1.0000
  C   C273      1.0  0.08076  0.63451  0.96659  1.0000
  H   H448      1.0  0.11716  0.82482  0.50218  1.0000
  H   H449      1.0  0.08776  0.63082  0.94280  1.0000
  N   N19       1.0  0.02692  0.73117  0.73290  1.0000
  H   H450      1.0  0.30164  0.96634  0.76021  1.0000
  H   H451      1.0  0.04306  0.55617  0.76518  1.0000
  H   H452      1.0  0.07022  0.86302  0.61773  1.0000
  H   H453      1.0  0.01320  0.75539  0.50994  1.0000
  H   H454      1.0  0.15813  0.95035  0.95174  1.0000
  N   N20       1.0  0.01730  0.57014  0.79089  1.0000
  H   H455      1.0  0.24201  0.94353  0.98097  1.0000
  C   C274      1.0  0.27978  0.89376  0.81669  1.0000
  H   H456      1.0  0.08023  0.68332  0.88757  1.0000
  H   H457      1.0  0.17999  0.90140  0.69081  1.0000
  H   H458      1.0  0.04744  0.59394  0.77311  1.0000
  S   S95       1.0  0.33203  0.95285  0.71346  1.0000
  H   H459      1.0  0.26755  0.88454  0.82284  1.0000
  H   H460      1.0  0.27779  0.95568  0.83440  1.0000
  H   H461      1.0  0.00806  0.73056  0.77682  1.0000
  H   H462      1.0  0.09347  0.51451  0.93674  1.0000
  H   H463      1.0  0.03954  0.71046  0.79447  1.0000
  C   C275      1.0  0.07951  0.68360  0.91539  1.0000
  H   H464      1.0  0.23875  0.88711  0.67260  1.0000
  H   H465      1.0  0.08095  0.51195  0.79516  1.0000
  H   H466      1.0  0.02096  0.75709  0.70125  1.0000
  H   H467      1.0  0.05524  0.69041  0.95174  1.0000
  C   C276      1.0  0.23050  0.93393  0.98639  1.0000
  H   H468      1.0  0.02572  0.52948  0.77682  1.0000
  H   H469      1.0  0.02978  0.56783  0.87613  1.0000
  H   H470      1.0  0.03226  0.74705  0.79915  1.0000
  H   H471      1.0  0.02382  0.70626  0.69956  1.0000
  C   C277      1.0  0.08083  0.86270  0.59648  1.0000
  H   H472      1.0  0.27960  0.96797  0.87340  1.0000
  C   C278      1.0  0.08092  0.51198  0.95369  1.0000
  H   H473      1.0  0.17863  0.96276  0.96538  1.0000
  C   C279      1.0  0.03483  0.71678  0.70634  1.0000
  H   H474      1.0  0.09484  0.83444  0.61141  1.0000
  H   H475      1.0  0.03938  0.55443  0.82244  1.0000
  H   H476      1.0  0.15376  0.97482  0.96755  1.0000
  H   H477      1.0  0.29415  0.88624  0.82446  1.0000
  H   H478      1.0  0.13316  0.67748  0.88863  1.0000
  H   H479      1.0  0.01200  0.58595  0.85948  1.0000
  H   H480      1.0  0.05273  0.73690  0.67813  1.0000
  H   H481      1.0  0.04447  0.49778  0.97010  1.0000
  H   H482      1.0  0.25697  0.89229  0.93461  1.0000
  C   C280      1.0  0.01888  0.57072  0.85563  1.0000
  C   C281      1.0  0.00345  0.55398  0.79012  1.0000
  S   S96       1.0  0.17613  0.99108  0.81507  1.0000
  H   H483      1.0  0.10941  0.66422  0.94823  1.0000
  H   H484      1.0  0.00070  0.82153  0.65665  1.0000
  H   H485      1.0  0.01970  0.59807  0.93729  1.0000
  C   C282      1.0  0.01326  0.53281  0.79451  1.0000
  H   H486      1.0  0.10606  0.70998  0.97173  1.0000
  H   H487      1.0  0.08049  0.71296  0.96353  1.0000
  H   H488      1.0  0.05370  0.75899  0.78798  1.0000
  H   H489      1.0  0.04746  0.68632  0.91030  1.0000
  H   H490      1.0  0.00727  0.75772  0.73832  1.0000
  S   S97       1.0  0.01065  0.64869  0.78202  1.0000
  C   C283      1.0  0.01309  0.74742  0.71834  1.0000
  H   H491      1.0  0.30460  0.89490  0.87600  1.0000
  N   N21       1.0  0.09725  0.69271  0.92964  1.0000
  C   C284      1.0  0.12158  0.86815  0.56984  1.0000
  H   H492      1.0  0.10441  0.82283  0.55827  1.0000
  H   H493      1.0  0.08404  0.87816  0.59188  1.0000
  C   C285      1.0  0.12405  0.83357  0.52180  1.0000
  H   H494      1.0  0.14753  0.83850  0.57965  1.0000
  H   H495      1.0  0.13468  0.86667  0.55295  1.0000
  H   H496      1.0  0.10982  0.87572  0.55386  1.0000
  H   H497      1.0  0.10413  0.85484  0.63072  1.0000
  C   C286      1.0  0.03954  0.75428  0.77818  1.0000
  C   C287      1.0  0.06749  0.81862  0.50048  1.0000
  C   C288      1.0  0.03098  0.56807  0.76094  1.0000
  H   H498      1.0  0.06880  0.50674  0.93870  1.0000
  C   C289      1.0  0.27600  0.91466  0.83173  1.0000
  H   H499      1.0  0.07950  0.67607  0.98451  1.0000
  H   H500      1.0  0.07700  0.72124  0.88230  1.0000
  H   H501      1.0  0.11815  0.88149  0.62081  1.0000
  C   C290      1.0  0.29666  0.95355  0.74782  1.0000
  H   H502      1.0  0.10824  0.70194  0.88144  1.0000
  H   H503      1.0  0.01852  0.53010  0.82052  1.0000
  H   H504      1.0  0.15412  0.83099  0.63656  1.0000
  C   C291      1.0  0.30991  0.91948  0.90807  1.0000
  H   H505      1.0  0.20423  0.89838  0.67124  1.0000
  H   H506      1.0  0.05192  0.74890  0.72949  1.0000
  C   C292      1.0  0.08900  0.72586  0.89858  1.0000
  H   H507      1.0  0.11099  0.66521  0.88194  1.0000
  N   N22       1.0  0.20745  0.86940  0.72127  1.0000
  C   C293      1.0  0.18800  0.86206  0.71078  1.0000
  C   C294      1.0  0.20394  0.89147  0.72543  1.0000
  C   C295      1.0  0.21289  0.86023  0.75476  1.0000
  C   C296      1.0  0.22287  0.86339  0.69503  1.0000
  C   C297      1.0  0.18720  0.83948  0.70906  1.0000
  C   C298      1.0  0.19601  0.90296  0.69431  1.0000
  C   C299      1.0  0.24091  0.87583  0.69266  1.0000
  H   H508      1.0  0.17601  0.86773  0.72802  1.0000
  H   H509      1.0  0.18351  0.86777  0.68560  1.0000
  H   H510      1.0  0.21450  0.84388  0.75310  1.0000
  H   H511      1.0  0.22860  0.84770  0.69859  1.0000
  H   H512      1.0  0.21601  0.86422  0.66971  1.0000
  H   H513      1.0  0.19968  0.83212  0.69459  1.0000
  H   H514      1.0  0.18658  0.83294  0.73447  1.0000
  H   H515      1.0  0.17326  0.83621  0.69648  1.0000
  H   H516      1.0  0.19757  0.91893  0.69813  1.0000
  H   H517      1.0  0.11767  0.71424  0.91632  1.0000
  C   C300      1.0  0.07624  0.53917  0.86645  1.0000
  H   H518      1.0  0.28554  0.92410  0.81718  1.0000
  H   H519      1.0  0.27085  0.88706  0.87849  1.0000
  C   C301      1.0  0.10905  0.83748  0.55066  1.0000
  C   C302      1.0  0.11409  0.67682  0.93322  1.0000
  C   C303      1.0  0.30860  0.94401  0.72274  1.0000
  H   H520      1.0  0.20084  0.86398  0.77333  1.0000
  C   C304      1.0  0.10406  0.70827  0.90637  1.0000
  H   H521      1.0  0.03060  0.76795  0.77053  1.0000
  H   H522      1.0  0.19318  0.89509  0.74608  1.0000
  C   C305      1.0  0.26827  0.90181  0.92505  1.0000
  N   N23       1.0  0.27963  0.91650  0.86887  1.0000
  H   H523      1.0  0.23351  0.85936  0.79615  1.0000
  C   C306      1.0  0.07735  0.52232  0.84582  1.0000
  H   H524      1.0  0.28016  0.89492  0.78896  1.0000
  H   H525      1.0  0.13107  0.65341  0.90552  1.0000
  C   C307      1.0  0.13407  0.83586  0.59438  1.0000
  N   N24       1.0  0.11618  0.84812  0.58087  1.0000
  H   H526      1.0  0.28283  0.89500  0.93349  1.0000
  H   H527      1.0  0.13224  0.81978  0.59160  1.0000
  H   H528      1.0  0.23309  0.88175  0.77325  1.0000
  H   H529      1.0  0.09654  0.73691  0.88391  1.0000
  H   H530      1.0  0.05548  0.72859  0.75704  1.0000
  H   H531      1.0  0.12663  0.68247  0.94723  1.0000
  C   C308      1.0  0.07980  0.52475  0.81133  1.0000
  H   H532      1.0  0.05358  0.58262  0.73373  1.0000
  H   H533      1.0  0.04928  0.71421  0.65765  1.0000
  H   H534      1.0  0.32092  0.90818  0.91875  1.0000
  C   C309      1.0  0.12686  0.88257  0.59756  1.0000
  H   H535      1.0  0.07553  0.52679  0.96332  1.0000
  C   C310      1.0  0.30132  0.91122  0.87559  1.0000
  H   H536      1.0  0.07951  0.66781  0.92263  1.0000
  H   H537      1.0  0.12326  0.89795  0.58876  1.0000
  C   C311      1.0  0.09953  0.84940  0.60613  1.0000
  H   H538      1.0  0.25670  0.94043  0.87355  1.0000
  H   H539      1.0  0.26049  0.92011  0.82541  1.0000
  H   H540      1.0  0.01840  0.69658  0.79551  1.0000
  C   C312      1.0  0.04422  0.74024  0.74837  1.0000
  H   H541      1.0  0.26486  0.91638  0.93698  1.0000
  H   H542      1.0  0.25113  0.90597  0.87986  1.0000
  C   C313      1.0  0.28325  0.95367  0.86042  1.0000
  H   H543      1.0  0.14287  0.88055  0.60356  1.0000
  H   H544      1.0  0.31084  0.92000  0.68759  1.0000
  C   C314      1.0  0.27279  0.93743  0.87856  1.0000
  C   C315      1.0  0.13923  0.83846  0.63158  1.0000
  C   C316      1.0  0.04184  0.72601  0.67358  1.0000
  C   C317      1.0  0.26698  0.90253  0.88659  1.0000
  H   H545      1.0  0.04768  0.70719  0.71601  1.0000
  C   C318      1.0  0.02830  0.70417  0.77852  1.0000
  C   C319      1.0  0.05882  0.69320  0.92519  1.0000
  H   H546      1.0  0.08288  0.73344  0.92130  1.0000
  H   H547      1.0  0.12877  0.83111  0.64779  1.0000
  H   H548      1.0  0.03081  0.59769  0.73829  1.0000
  H   H549      1.0  0.00285  0.63129  0.93930  1.0000
  H   H550      1.0  0.00220  0.52207  0.78942  1.0000
  H   H551      1.0  0.00418  0.58959  0.96950  1.0000
  H   H552      1.0  0.00377  0.71265  0.74648  1.0000
  H   H553      1.0  0.03560  0.69263  0.76200  1.0000
  H   H554      1.0  0.02325  0.56324  0.73825  1.0000
  H   H555      1.0  0.00735  0.66065  0.96520  1.0000
  C   C320      1.0  0.00243  0.62213  0.96238  1.0000
  H   H556      1.0  0.31830  0.93241  0.90239  1.0000
  H   H557      1.0  0.13768  0.82473  0.52987  1.0000
  C   C321      1.0  0.09203  0.63364  0.99622  1.0000
  H   H558      1.0  0.00764  0.55996  0.85841  1.0000
  C   C322      1.0  0.08974  0.68703  0.99211  1.0000
  H   H559      1.0  0.05751  0.83172  0.50401  1.0000
  C   C323      1.0  0.00494  0.60067  0.94943  1.0000
  H   H560      1.0  0.12779  0.84744  0.50967  1.0000
  H   H561      1.0  0.01447  0.60215  0.79482  1.0000
  H   H562      1.0  0.02109  0.77970  0.51026  1.0000
  C   C324      1.0  0.00507  0.58971  0.79083  1.0000
  H   H563      1.0  0.02927  0.73307  0.65903  1.0000
  S   S98       1.0  0.07757  0.49859  0.86480  1.0000
  H   H564      1.0  0.10426  0.50013  0.98546  1.0000
  C   C325      1.0  0.08808  0.49866  0.98342  1.0000
  Fe  Fe49      1.0  0.35079  0.11782  0.33143  1.0000
  S   S99       1.0  0.35123  0.08647  0.34902  1.0000
  Fe  Fe50      1.0  0.39653  0.11695  0.33803  1.0000
  S   S100      1.0  0.39950  0.08546  0.35443  1.0000
  S   S101      1.0  0.42451  0.13351  0.33907  1.0000
  Fe  Fe51      1.0  0.37708  0.08107  0.31458  1.0000
  S   S102      1.0  0.37672  0.05413  0.28226  1.0000
  Fe  Fe52      1.0  0.37335  0.09383  0.38755  1.0000
  S   S103      1.0  0.37416  0.07958  0.43902  1.0000
  S   S104      1.0  0.37592  0.11199  0.29473  1.0000
  S   S105      1.0  0.37116  0.12585  0.37340  1.0000
  Fe  Fe53      1.0  0.57914  0.08768  0.39060  1.0000
  S   S106      1.0  0.57021  0.08528  0.33699  1.0000
  S   S107      1.0  0.58851  0.06084  0.42127  1.0000
  Fe  Fe54      1.0  0.56895  0.13119  0.39197  1.0000
  S   S108      1.0  0.55884  0.13223  0.33812  1.0000
  S   S109      1.0  0.56875  0.15938  0.42167  1.0000
  Fe  Fe55      1.0  0.54321  0.10524  0.35118  1.0000
  S   S110      1.0  0.51362  0.09362  0.33602  1.0000
  Fe  Fe56      1.0  0.58669  0.11219  0.32849  1.0000
  S   S111      1.0  0.60579  0.11424  0.28102  1.0000
  S   S112      1.0  0.55146  0.10587  0.40559  1.0000
  S   S113      1.0  0.59754  0.11301  0.38148  1.0000
  C   C326      1.0  0.57015  0.15911  0.46591  1.0000
  H   H565      1.0  0.65841  0.05559  0.19923  1.0000
  H   H566      1.0  0.42796  0.10965  0.40158  1.0000
  H   H567      1.0  0.56842  0.19080  0.46797  1.0000
  C   C327      1.0  0.34306  0.01868  0.44543  1.0000
  C   C328      1.0  0.63127  0.11759  0.27351  1.0000
  C   C329      1.0  0.64441  0.12119  0.29929  1.0000
  H   H568      1.0  0.45065  0.01951  0.28314  1.0000
  C   C330      1.0  0.63826  0.11760  0.24029  1.0000
  H   H569      1.0  0.63941  0.12095  0.32499  1.0000
  H   H570      1.0  0.60733  0.17995  0.39138  1.0000
  H   H571      1.0  0.62826  0.11494  0.22006  1.0000
  C   C331      1.0  0.37373  0.09439  0.47525  1.0000
  H   H572      1.0  0.44257  0.15202  0.44483  1.0000
  C   C332      1.0  0.36965  0.11485  0.47350  1.0000
  H   H573      1.0  0.41825  0.07639  0.43114  1.0000
  H   H574      1.0  0.36636  0.12186  0.44963  1.0000
  C   C333      1.0  0.48902  0.10517  0.33733  1.0000
  C   C334      1.0  0.48489  0.12542  0.34287  1.0000
  C   C335      1.0  0.46512  0.13388  0.34292  1.0000
  C   C336      1.0  0.44921  0.12221  0.33793  1.0000
  C   C337      1.0  0.45335  0.10194  0.33270  1.0000
  C   C338      1.0  0.47311  0.09354  0.33214  1.0000
  H   H575      1.0  0.49693  0.13462  0.34666  1.0000
  H   H576      1.0  0.46214  0.14959  0.34683  1.0000
  H   H577      1.0  0.44135  0.09278  0.32853  1.0000
  H   H578      1.0  0.47607  0.07793  0.32743  1.0000
  C   C339      1.0  0.59492  0.01026  0.34701  1.0000
  C   C340      1.0  0.60085  0.02874  0.33809  1.0000
  C   C341      1.0  0.59996  0.04404  0.36159  1.0000
  C   C342      1.0  0.59281  0.04095  0.39381  1.0000
  C   C343      1.0  0.58746  0.02230  0.40303  1.0000
  C   C344      1.0  0.43922  0.01021  0.27331  1.0000
  H   H579      1.0  0.60570  0.03137  0.31279  1.0000
  H   H580      1.0  0.60444  0.05835  0.35455  1.0000
  H   H581      1.0  0.58133  0.02004  0.42751  1.0000
  H   H582      1.0  0.60797  0.04718  0.48286  1.0000
  C   C345      1.0  0.37088  0.01569  0.29757  1.0000
  C   C346      1.0  0.37464  0.03432  0.30958  1.0000
  C   C347      1.0  0.37723  0.03712  0.34381  1.0000
  H   H583      1.0  0.36867  0.01349  0.27108  1.0000
  H   H584      1.0  0.38005  0.05135  0.35343  1.0000
  N   N25       1.0  0.53467  0.02816  0.32404  1.0000
  C   C348      1.0  0.54668  0.02674  0.29207  1.0000
  C   C349      1.0  0.36985  0.99989  0.32000  1.0000
  C   C350      1.0  0.54345  0.04295  0.34649  1.0000
  C   C351      1.0  0.51363  0.03500  0.31498  1.0000
  C   C352      1.0  0.54917  0.04637  0.27370  1.0000
  H   H585      1.0  0.52265  0.04408  0.38959  1.0000
  H   H586      1.0  0.49596  0.04944  0.35552  1.0000
  C   C353      1.0  0.53864  0.04231  0.38418  1.0000
  C   C354      1.0  0.59292  0.16838  0.31957  1.0000
  H   H587      1.0  0.40624  0.15737  0.44880  1.0000
  H   H588      1.0  0.58346  0.17028  0.26673  1.0000
  H   H589      1.0  0.41288  0.01111  0.32505  1.0000
  H   H590      1.0  0.55987  0.04123  0.34487  1.0000
  H   H591      1.0  0.53903  0.05822  0.33796  1.0000
  H   H592      1.0  0.51272  0.05052  0.30585  1.0000
  H   H593      1.0  0.50845  0.02670  0.29316  1.0000
  H   H594      1.0  0.44521  0.00461  0.24904  1.0000
  H   H595      1.0  0.53486  0.05422  0.26640  1.0000
  H   H596      1.0  0.55783  0.05628  0.28864  1.0000
  H   H597      1.0  0.57213  0.12753  0.47244  1.0000
  N   N26       1.0  0.61212  0.17804  0.31917  1.0000
  H   H598      1.0  0.54016  0.01702  0.27352  1.0000
  H   H599      1.0  0.42390  0.03341  0.24306  1.0000
  C   C355      1.0  0.66397  0.12548  0.29176  1.0000
  C   C356      1.0  0.59667  0.20923  0.35068  1.0000
  H   H600      1.0  0.62204  0.15672  0.28104  1.0000
  C   C357      1.0  0.60905  0.20022  0.32114  1.0000
  C   C358      1.0  0.39232  0.02042  0.49351  1.0000
  C   C359      1.0  0.49784  0.03486  0.34280  1.0000
  C   C360      1.0  0.62543  0.16983  0.34701  1.0000
  H   H601      1.0  0.33384  0.07082  0.28472  1.0000
  H   H602      1.0  0.41406  0.16377  0.40784  1.0000
  C   C361      1.0  0.46995  0.11356  0.42425  1.0000
  H   H603      1.0  0.40599  0.02595  0.48309  1.0000
  H   H604      1.0  0.64931  0.17340  0.25721  1.0000
  C   C362      1.0  0.37657  0.02137  0.36596  1.0000
  H   H605      1.0  0.34440  0.06671  0.22482  1.0000
  H   H606      1.0  0.66296  0.12153  0.20707  1.0000
  H   H607      1.0  0.37928  0.02366  0.39213  1.0000
  H   H608      1.0  0.65413  0.08202  0.20391  1.0000
  C   C363      1.0  0.62220  0.17276  0.28618  1.0000
  H   H609      1.0  0.54551  0.02871  0.39615  1.0000
  C   C364      1.0  0.33791  0.08115  0.23438  1.0000
  H   H610      1.0  0.56409  0.16807  0.29611  1.0000
  H   H611      1.0  0.62382  0.02125  0.45961  1.0000
  C   C365      1.0  0.42515  0.10699  0.42863  1.0000
  H   H612      1.0  0.48448  0.10573  0.43067  1.0000
  C   C366      1.0  0.45679  0.11562  0.45578  1.0000
  C   C367      1.0  0.61581  0.16667  0.38140  1.0000
  H   H613      1.0  0.47305  0.12823  0.41438  1.0000
  C   C368      1.0  0.42473  0.12514  0.48277  1.0000
  H   H614      1.0  0.63255  0.15506  0.33991  1.0000
  C   C369      1.0  0.58870  0.00687  0.37973  1.0000
  H   H615      1.0  0.54520  0.05484  0.39657  1.0000
  H   H616      1.0  0.50076  0.02316  0.36170  1.0000
  C   C370      1.0  0.37641  0.02139  0.46580  1.0000
  C   C371      1.0  0.64392  0.17771  0.28269  1.0000
  H   H617      1.0  0.60260  0.20670  0.29759  1.0000
  H   H618      1.0  0.44204  0.07916  0.41480  1.0000
  H   H619      1.0  0.57421  0.19127  0.29226  1.0000
  H   H620      1.0  0.58004  0.03583  0.48197  1.0000
  C   C372      1.0  0.41307  0.15120  0.42538  1.0000
  H   H621      1.0  0.62354  0.20666  0.32275  1.0000
  H   H622      1.0  0.33529  0.05098  0.45064  1.0000
  H   H623      1.0  0.63776  0.17933  0.35122  1.0000
  H   H624      1.0  0.59597  0.15206  0.31738  1.0000
  C   C373      1.0  0.57805  0.17511  0.29188  1.0000
  H   H625      1.0  0.43066  0.13773  0.49620  1.0000
  C   C374      1.0  0.42081  0.02419  0.26510  1.0000
  H   H626      1.0  0.40878  0.10918  0.43171  1.0000
  H   H627      1.0  0.40778  0.01614  0.25896  1.0000
  H   H628      1.0  0.64551  0.19369  0.28548  1.0000
  H   H629      1.0  0.41709  0.03456  0.28606  1.0000
  H   H630      1.0  0.55771  0.04315  0.25029  1.0000
  N   N27       1.0  0.43518  0.12167  0.44965  1.0000
  H   H631      1.0  0.44094  0.13949  0.40614  1.0000
  H   H632      1.0  0.61410  0.18024  0.26491  1.0000
  H   H633      1.0  0.52935  0.00787  0.36483  1.0000
  H   H634      1.0  0.56188  0.01988  0.29697  1.0000
  H   H635      1.0  0.40323  0.14109  0.41353  1.0000
  H   H636      1.0  0.64559  0.04966  0.28344  1.0000
  H   H637      1.0  0.60612  0.15438  0.38053  1.0000
  H   H638      1.0  0.48344  0.03202  0.33144  1.0000
  C   C375      1.0  0.53666  0.00800  0.34007  1.0000
  H   H639      1.0  0.60256  0.00758  0.46851  1.0000
  H   H640      1.0  0.58489  0.17050  0.34366  1.0000
  C   C376      1.0  0.43141  0.08484  0.43442  1.0000
  H   H641      1.0  0.58906  0.22359  0.34277  1.0000
  C   C377      1.0  0.42772  0.00331  0.32946  1.0000
  H   H642      1.0  0.55250  0.00350  0.34546  1.0000
  C   C378      1.0  0.43404  0.14119  0.43137  1.0000
  H   H643      1.0  0.58462  0.20041  0.35892  1.0000
  H   H644      1.0  0.46332  0.10501  0.40427  1.0000
  H   H645      1.0  0.43737  0.08095  0.45942  1.0000
  H   H646      1.0  0.60626  0.21192  0.37238  1.0000
  N   N28       1.0  0.35602  0.01627  0.47605  1.0000
  H   H647      1.0  0.45910  0.10144  0.46932  1.0000
  H   H648      1.0  0.46323  0.12650  0.47251  1.0000
  H   H649      1.0  0.37594  0.03669  0.45585  1.0000
  H   H650      1.0  0.64143  0.06760  0.25005  1.0000
  H   H651      1.0  0.63867  0.07488  0.29260  1.0000
  C   C379      1.0  0.57177  0.14166  0.48494  1.0000
  H   H652      1.0  0.43719  0.01484  0.33834  1.0000
  H   H653      1.0  0.62758  0.16229  0.39988  1.0000
  C   C380      1.0  0.56970  0.17728  0.48236  1.0000
  C   C381      1.0  0.64767  0.06494  0.27528  1.0000
  C   C382      1.0  0.37297  0.00272  0.35421  1.0000
  C   C383      1.0  0.65797  0.12134  0.23281  1.0000
  H   H654      1.0  0.40873  0.12944  0.47896  1.0000
  H   H655      1.0  0.38232  0.01151  0.44521  1.0000
  C   C384      1.0  0.66534  0.06965  0.19806  1.0000
  H   H656      1.0  0.66470  0.03641  0.24080  1.0000
  H   H657      1.0  0.35052  0.08954  0.24197  1.0000
  H   H658      1.0  0.33567  0.04002  0.26993  1.0000
  H   H659      1.0  0.35291  0.04430  0.41789  1.0000
  H   H660      1.0  0.34934  0.00908  0.42482  1.0000
  C   C385      1.0  0.33968  0.03984  0.43126  1.0000
  H   H661      1.0  0.65387  0.16919  0.30042  1.0000
  C   C386      1.0  0.61807  0.00934  0.47481  1.0000
  H   H662      1.0  0.33279  0.02607  0.23336  1.0000
  H   H663      1.0  0.41688  0.99765  0.37954  1.0000
  H   H664      1.0  0.57211  0.01244  0.49490  1.0000
  Fe  Fe57      1.0  0.38722  0.11893  0.61781  1.0000
  S   S114      1.0  0.38386  0.13645  0.66559  1.0000
  S   S115      1.0  0.37488  0.13240  0.56973  1.0000
  Fe  Fe58      1.0  0.40824  0.08381  0.65260  1.0000
  S   S116      1.0  0.40598  0.09813  0.70311  1.0000
  S   S117      1.0  0.42445  0.05371  0.64779  1.0000
  Fe  Fe59      1.0  0.37453  0.10857  0.68900  1.0000
  Fe  Fe60      1.0  0.41556  0.12448  0.67529  1.0000
  S   S118      1.0  0.43868  0.14393  0.69475  1.0000
  S   S119      1.0  0.37629  0.09178  0.64038  1.0000
  S   S120      1.0  0.41938  0.10950  0.62556  1.0000
  Fe  Fe61      1.0  0.55791  0.12498  0.68158  1.0000
  S   S121      1.0  0.55292  0.11819  0.62771  1.0000
  S   S122      1.0  0.53218  0.13356  0.71656  1.0000
  Fe  Fe62      1.0  0.60377  0.12205  0.67487  1.0000
  S   S123      1.0  0.60155  0.11480  0.62000  1.0000
  S   S124      1.0  0.63649  0.12405  0.68804  1.0000
  Fe  Fe63      1.0  0.57664  0.13834  0.61719  1.0000
  S   S125      1.0  0.57440  0.16358  0.58037  1.0000
  Fe  Fe64      1.0  0.57824  0.09529  0.63549  1.0000
  S   S126      1.0  0.57807  0.06561  0.61157  1.0000
  S   S127      1.0  0.58000  0.14717  0.67089  1.0000
  S   S128      1.0  0.58202  0.10044  0.69049  1.0000
  C   C387      1.0  0.65091  0.12671  0.72466  1.0000
  C   C388      1.0  0.64266  0.12781  0.75677  1.0000
  C   C389      1.0  0.58844  0.02662  0.53431  1.0000
  H   H665      1.0  0.52779  0.20009  0.65139  1.0000
  H   H666      1.0  0.62690  0.12717  0.75997  1.0000
  H   H667      1.0  0.35577  0.02480  0.74683  1.0000
  H   H668      1.0  0.60672  0.20888  0.67447  1.0000
  C   C390      1.0  0.55500  0.03805  0.69099  1.0000
  C   C391      1.0  0.56079  0.05291  0.66947  1.0000
  C   C392      1.0  0.56991  0.04782  0.63880  1.0000
  C   C393      1.0  0.57283  0.02805  0.62952  1.0000
  C   C394      1.0  0.56728  0.01333  0.65094  1.0000
  C   C395      1.0  0.61271  0.04833  0.50916  1.0000
  H   H669      1.0  0.55805  0.06823  0.67650  1.0000
  H   H670      1.0  0.57957  0.02399  0.60586  1.0000
  H   H671      1.0  0.56024  0.03523  0.51022  1.0000
  C   C396      1.0  0.41040  0.03802  0.62515  1.0000
  C   C397      1.0  0.41291  0.01770  0.63089  1.0000
  C   C398      1.0  0.39573  0.04576  0.60321  1.0000
  H   H672      1.0  0.42419  0.01164  0.64795  1.0000
  H   H673      1.0  0.39415  0.06138  0.59797  1.0000
  C   C399      1.0  0.46452  0.13824  0.70086  1.0000
  C   C400      1.0  0.47351  0.14860  0.72602  1.0000
  C   C401      1.0  0.49403  0.14633  0.73075  1.0000
  C   C402      1.0  0.50623  0.13414  0.70975  1.0000
  C   C403      1.0  0.49744  0.12356  0.68432  1.0000
  C   C404      1.0  0.47655  0.12548  0.68006  1.0000
  H   H674      1.0  0.46450  0.15856  0.74207  1.0000
  H   H675      1.0  0.50054  0.15449  0.75051  1.0000
  H   H676      1.0  0.50668  0.11396  0.66808  1.0000
  H   H677      1.0  0.46983  0.11752  0.66031  1.0000
  C   C405      1.0  0.37293  0.03988  0.68782  1.0000
  C   C406      1.0  0.57269  0.16092  0.53646  1.0000
  H   H678      1.0  0.59959  0.02517  0.77997  1.0000
  H   H679      1.0  0.57065  0.19240  0.52946  1.0000
  H   H680      1.0  0.57434  0.12913  0.53491  1.0000
  C   C407      1.0  0.37807  0.09693  0.53567  1.0000
  C   C408      1.0  0.37412  0.11742  0.53386  1.0000
  S   S129      1.0  0.55162  0.99925  0.70787  1.0000
  H   H681      1.0  0.38152  0.08997  0.55952  1.0000
  C   C409      1.0  0.33963  0.05147  0.70648  1.0000
  H   H682      1.0  0.59985  0.19315  0.70752  1.0000
  C   C410      1.0  0.60127  0.01992  0.75376  1.0000
  C   C411      1.0  0.47230  0.01953  0.64515  1.0000
  H   H683      1.0  0.61920  0.00150  0.80904  1.0000
  H   H684      1.0  0.53197  0.20542  0.59185  1.0000
  H   H685      1.0  0.33347  0.14137  0.84784  1.0000
  H   H686      1.0  0.62611  0.01825  0.61086  1.0000
  N   N29       1.0  0.35247  0.03363  0.69477  1.0000
  H   H687      1.0  0.36651  0.14213  0.50125  1.0000
  H   H688      1.0  0.59422  0.18702  0.66560  1.0000
  H   H689      1.0  0.54799  0.04195  0.71470  1.0000
  H   H690      1.0  0.65484  0.15213  0.64971  1.0000
  C   C412      1.0  0.38283  0.03331  0.58845  1.0000
  H   H691      1.0  0.63211  0.17360  0.57335  1.0000
  C   C413      1.0  0.57096  0.17818  0.51728  1.0000
  H   H692      1.0  0.52222  0.18406  0.68588  1.0000
  H   H693      1.0  0.35624  0.01376  0.65245  1.0000
  H   H694      1.0  0.48783  0.04703  0.72881  1.0000
  H   H695      1.0  0.54659  0.18307  0.66896  1.0000
  H   H696      1.0  0.49965  0.04078  0.67217  1.0000
  H   H697      1.0  0.59026  0.02908  0.73858  1.0000
  H   H698      1.0  0.51088  0.02302  0.69970  1.0000
  H   H699      1.0  0.47874  0.02330  0.73269  1.0000
  H   H700      1.0  0.66250  0.21379  0.64155  1.0000
  C   C414      1.0  0.55843  0.01821  0.68172  1.0000
  N   N30       1.0  0.50633  0.17205  0.61979  1.0000
  C   C415      1.0  0.49051  0.17484  0.64649  1.0000
  C   C416      1.0  0.52594  0.16879  0.63753  1.0000
  C   C417      1.0  0.50278  0.15368  0.60033  1.0000
  C   C418      1.0  0.50488  0.19005  0.59747  1.0000
  C   C419      1.0  0.46886  0.17544  0.63453  1.0000
  C   C420      1.0  0.53069  0.18514  0.66220  1.0000
  C   C421      1.0  0.51728  0.14793  0.57154  1.0000
  C   C422      1.0  0.52379  0.19451  0.57813  1.0000
  H   H701      1.0  0.49249  0.16298  0.66550  1.0000
  H   H702      1.0  0.49171  0.18879  0.66057  1.0000
  H   H703      1.0  0.53851  0.16678  0.61991  1.0000
  H   H704      1.0  0.52667  0.15475  0.65204  1.0000
  H   H705      1.0  0.50284  0.14077  0.61757  1.0000
  H   H706      1.0  0.48797  0.15508  0.58838  1.0000
  H   H707      1.0  0.49280  0.18915  0.57887  1.0000
  H   H708      1.0  0.50073  0.20352  0.61265  1.0000
  H   H709      1.0  0.46475  0.16049  0.62784  1.0000
  H   H710      1.0  0.45892  0.18047  0.65557  1.0000
  H   H711      1.0  0.46578  0.18579  0.61340  1.0000
  H   H712      1.0  0.63727  0.01276  0.51609  1.0000
  C   C423      1.0  0.38464  0.01312  0.59569  1.0000
  C   C424      1.0  0.60551  0.19325  0.68140  1.0000
  C   C425      1.0  0.62577  0.18108  0.68000  1.0000
  H   H713      1.0  0.51407  0.13328  0.56169  1.0000
  H   H714      1.0  0.53294  0.14643  0.57945  1.0000
  C   C426      1.0  0.46658  0.00679  0.61538  1.0000
  H   H715      1.0  0.64532  0.15164  0.59112  1.0000
  H   H716      1.0  0.45898  0.02148  0.66155  1.0000
  H   H717      1.0  0.50268  0.03105  0.60913  1.0000
  H   H718      1.0  0.37666  0.06231  0.72685  1.0000
  H   H719      1.0  0.47059  0.99783  0.69943  1.0000
  H   H720      1.0  0.35392  0.15901  0.62142  1.0000
  H   H721      1.0  0.51943  0.20170  0.55398  1.0000
  H   H722      1.0  0.63409  0.00334  0.57577  1.0000
  C   C427      1.0  0.50724  0.00477  0.64243  1.0000
  H   H723      1.0  0.37101  0.03954  0.57268  1.0000
  H   H724      1.0  0.53397  0.18155  0.57175  1.0000
  H   H725      1.0  0.51524  0.15844  0.55035  1.0000
  H   H726      1.0  0.36844  0.00818  0.71812  1.0000
  H   H727      1.0  0.62022  0.15268  0.63815  1.0000
  H   H728      1.0  0.63399  0.03818  0.56047  1.0000
  H   H729      1.0  0.58149  0.03738  0.55274  1.0000
  C   C428      1.0  0.62103  0.01220  0.51263  1.0000
  C   C429      1.0  0.63095  0.16067  0.58986  1.0000
  N   N31       1.0  0.60995  0.02987  0.52899  1.0000
  C   C430      1.0  0.51466  0.02056  0.61881  1.0000
  H   H730      1.0  0.46743  0.04138  0.70357  1.0000
  C   C431      1.0  0.38391  0.04803  0.71792  1.0000
  H   H731      1.0  0.45305  0.01401  0.60352  1.0000
  H   H732      1.0  0.39903  0.05100  0.70973  1.0000
  C   C432      1.0  0.64645  0.21473  0.64752  1.0000
  H   H733      1.0  0.47403  0.03466  0.63556  1.0000
  H   H734      1.0  0.41729  0.09557  0.49771  1.0000
  H   H735      1.0  0.38266  0.02726  0.67760  1.0000
  H   H736      1.0  0.34488  0.05674  0.73097  1.0000
  H   H737      1.0  0.33260  0.14954  0.90434  1.0000
  H   H738      1.0  0.39645  0.00514  0.50215  1.0000
  N   N32       1.0  0.63538  0.17910  0.64589  1.0000
  H   H739      1.0  0.35609  0.02433  0.52813  1.0000
  C   C433      1.0  0.40004  0.00526  0.61613  1.0000
  C   C434      1.0  0.57302  0.14256  0.52029  1.0000
  C   C435      1.0  0.62278  0.16663  0.62486  1.0000
  H   H740      1.0  0.62039  0.15136  0.57755  1.0000
  C   C436      1.0  0.33983  0.04041  0.63446  1.0000
  C   C437      1.0  0.63618  0.19871  0.62862  1.0000
  C   C438      1.0  0.35451  0.01795  0.72170  1.0000
  S   S130      1.0  0.34750  0.10191  0.72087  1.0000
  H   H741      1.0  0.62387  0.16621  0.69070  1.0000
  H   H742      1.0  0.62116  0.20505  0.62108  1.0000
  H   H743      1.0  0.58698  0.01205  0.54623  1.0000
  H   H744      1.0  0.34138  0.12797  0.62017  1.0000
  C   C439      1.0  0.49656  0.02761  0.68725  1.0000
  C   C440      1.0  0.61913  0.03250  0.56299  1.0000
  C   C441      1.0  0.65489  0.12966  0.78494  1.0000
  C   C442      1.0  0.62196  0.01387  0.58523  1.0000
  H   H745      1.0  0.61018  0.04379  0.57799  1.0000
  H   H746      1.0  0.52170  0.01321  0.59645  1.0000
  H   H747      1.0  0.33622  0.13638  0.66111  1.0000
  H   H748      1.0  0.60755  0.07160  0.54774  1.0000
  C   C443      1.0  0.36968  0.12630  0.50277  1.0000
  C   C444      1.0  0.48159  0.03503  0.71448  1.0000
  H   H749      1.0  0.63512  0.18803  0.69846  1.0000
  H   H750      1.0  0.38575  0.03737  0.73886  1.0000
  H   H751      1.0  0.60789  0.17427  0.62048  1.0000
  H   H752      1.0  0.41801  0.11275  0.53097  1.0000
  H   H753      1.0  0.60834  0.00614  0.58761  1.0000
  H   H754      1.0  0.64837  0.13041  0.80970  1.0000
  H   H755      1.0  0.37265  0.05155  0.66843  1.0000
  H   H756      1.0  0.63974  0.22951  0.63981  1.0000
  H   H757      1.0  0.64444  0.21432  0.67494  1.0000
  N   N33       1.0  0.49014  0.01151  0.66492  1.0000
  H   H758      1.0  0.66287  0.16767  0.70214  1.0000
  H   H759      1.0  0.52568  0.02909  0.63160  1.0000
  C   C445      1.0  0.65580  0.16837  0.64832  1.0000
  H   H760      1.0  0.64418  0.19680  0.60436  1.0000
  C   C446      1.0  0.57478  0.02751  0.50339  1.0000
  H   H761      1.0  0.38789  0.02998  0.51515  1.0000
  H   H762      1.0  0.61610  0.02272  0.74423  1.0000
  C   C447      1.0  0.60183  0.06749  0.52297  1.0000
  H   H763      1.0  0.58563  0.06654  0.52458  1.0000
  C   C448      1.0  0.34881  0.02955  0.50454  1.0000
  H   H764      1.0  0.38096  0.06962  0.50798  1.0000
  H   H765      1.0  0.60421  0.07981  0.50555  1.0000
  C   C449      1.0  0.42555  0.10770  0.50738  1.0000
  C   C450      1.0  0.33763  0.15954  0.62458  1.0000
  H   H766      1.0  0.35194  0.04967  0.62833  1.0000
  H   H767      1.0  0.44080  0.10225  0.51446  1.0000
  H   H768      1.0  0.62700  0.99914  0.70406  1.0000
  H   H769      1.0  0.56998  0.99821  0.64332  1.0000
  C   C451      1.0  0.34514  0.02529  0.66253  1.0000
  C   C452      1.0  0.37773  0.08544  0.50645  1.0000
  H   H770      1.0  0.62872  0.05069  0.50720  1.0000
  H   H771      1.0  0.66199  0.08505  0.71290  1.0000
  H   H772      1.0  0.35341  0.04472  0.50041  1.0000
  H   H773      1.0  0.33349  0.09866  0.63525  1.0000
  H   H774      1.0  0.34103  0.06429  0.68953  1.0000
  C   C453      1.0  0.33808  0.00373  0.72448  1.0000
  H   H775      1.0  0.33345  0.14422  0.72260  1.0000
  C   C454      1.0  0.59695  0.99811  0.75063  1.0000
  H   H776      1.0  0.63899  0.99785  0.76314  1.0000
  H   H777      1.0  0.66456  0.17074  0.62528  1.0000
  H   H778      1.0  0.47820  0.00555  0.59576  1.0000
  H   H779      1.0  0.33655  0.03230  0.61128  1.0000
  H   H780      1.0  0.33357  0.17050  0.64455  1.0000
  H   H781      1.0  0.61719  0.99829  0.52486  1.0000
  S   S131      1.0  0.36670  0.99802  0.58182  1.0000
  H   H782      1.0  0.52034  0.99957  0.65763  1.0000
  Fe  Fe65      1.0  0.36419  0.92131  0.31577  1.0000
  S   S132      1.0  0.35801  0.92959  0.36969  1.0000
  H   H783      1.0  0.63183  0.94329  0.15914  1.0000
  Fe  Fe66      1.0  0.40927  0.92682  0.32313  1.0000
  S   S133      1.0  0.40608  0.93581  0.37678  1.0000
  S   S134      1.0  0.43892  0.92406  0.29548  1.0000
  Fe  Fe67      1.0  0.38620  0.91145  0.38232  1.0000
  S   S135      1.0  0.39160  0.88864  0.42319  1.0000
  Fe  Fe68      1.0  0.37838  0.95330  0.35977  1.0000
  H   H784      1.0  0.47244  0.87810  0.28815  1.0000
  S   S136      1.0  0.39106  0.90103  0.32929  1.0000
  S   S137      1.0  0.38298  0.94642  0.30509  1.0000
  Fe  Fe69      1.0  0.59266  0.92977  0.38659  1.0000
  S   S138      1.0  0.57913  0.90840  0.35265  1.0000
  S   S139      1.0  0.60143  0.91748  0.43750  1.0000
  Fe  Fe70      1.0  0.58742  0.96241  0.33467  1.0000
  S   S140      1.0  0.57242  0.94375  0.29815  1.0000
  H   H785      1.0  0.49471  0.87616  0.31171  1.0000
  Fe  Fe71      1.0  0.55562  0.93324  0.34282  1.0000
  S   S141      1.0  0.52340  0.93314  0.36063  1.0000
  Fe  Fe72      1.0  0.59747  0.92105  0.31167  1.0000
  S   S142      1.0  0.61689  0.90371  0.27281  1.0000
  S   S143      1.0  0.56898  0.95418  0.37808  1.0000
  S   S144      1.0  0.61270  0.94028  0.34690  1.0000
  C   C455      1.0  0.59928  0.93245  0.47344  1.0000
  C   C456      1.0  0.64113  0.91044  0.26345  1.0000
  C   C457      1.0  0.59528  0.95290  0.47113  1.0000
  H   H786      1.0  0.55796  0.88857  0.43042  1.0000
  H   H787      1.0  0.59419  0.95992  0.44682  1.0000
  H   H788      1.0  0.36411  0.98540  0.46544  1.0000
  C   C458      1.0  0.38682  0.89274  0.46633  1.0000
  H   H789      1.0  0.48221  0.96703  0.28682  1.0000
  H   H790      1.0  0.39070  0.86160  0.47653  1.0000
  H   H791      1.0  0.62659  0.99541  0.46698  1.0000
  H   H792      1.0  0.40804  0.86037  0.33473  1.0000
  H   H793      1.0  0.53547  0.94279  0.42965  1.0000
  H   H794      1.0  0.48221  0.85445  0.30501  1.0000
  H   H795      1.0  0.45805  0.81594  0.35269  1.0000
  H   H796      1.0  0.55067  0.96929  0.48475  1.0000
  C   C459      1.0  0.54934  0.90948  0.47008  1.0000
  C   C460      1.0  0.46226  0.92713  0.31368  1.0000
  C   C461      1.0  0.47945  0.92400  0.29395  1.0000
  C   C462      1.0  0.49832  0.92598  0.30765  1.0000
  C   C463      1.0  0.50017  0.93094  0.34137  1.0000
  C   C464      1.0  0.48296  0.93399  0.36111  1.0000
  C   C465      1.0  0.46412  0.93217  0.34738  1.0000
  H   H797      1.0  0.47818  0.92000  0.26788  1.0000
  H   H798      1.0  0.51142  0.92348  0.29222  1.0000
  H   H799      1.0  0.48424  0.93776  0.38726  1.0000
  H   H800      1.0  0.45107  0.93449  0.36293  1.0000
  H   H801      1.0  0.45946  0.83088  0.31704  1.0000
  H   H802      1.0  0.36647  0.98567  0.31086  1.0000
  H   H803      1.0  0.63791  0.93822  0.28936  1.0000
  H   H804      1.0  0.47899  0.83045  0.34778  1.0000
  H   H805      1.0  0.63736  0.90713  0.14014  1.0000
  C   C466      1.0  0.54023  0.96596  0.46461  1.0000
  C   C467      1.0  0.64905  0.91419  0.15418  1.0000
  C   C468      1.0  0.42242  0.97445  0.24732  1.0000
  C   C469      1.0  0.54857  0.90268  0.43324  1.0000
  H   H806      1.0  0.43924  0.98316  0.36976  1.0000
  N   N34       1.0  0.44865  0.86688  0.34728  1.0000
  C   C470      1.0  0.43611  0.88073  0.36985  1.0000
  C   C471      1.0  0.43771  0.86593  0.31450  1.0000
  C   C472      1.0  0.46835  0.87544  0.34250  1.0000
  C   C473      1.0  0.45146  0.84707  0.36419  1.0000
  C   C474      1.0  0.44513  0.88534  0.40412  1.0000
  C   C475      1.0  0.41878  0.85483  0.31536  1.0000
  C   C476      1.0  0.47988  0.87047  0.30987  1.0000
  C   C477      1.0  0.46278  0.83035  0.34410  1.0000
  H   H807      1.0  0.43250  0.89520  0.35717  1.0000
  H   H808      1.0  0.42169  0.87489  0.37549  1.0000
  H   H809      1.0  0.44697  0.85856  0.29454  1.0000
  H   H810      1.0  0.43370  0.88109  0.30469  1.0000
  H   H811      1.0  0.46644  0.89178  0.34310  1.0000
  H   H812      1.0  0.47852  0.87125  0.36364  1.0000
  H   H813      1.0  0.45988  0.84813  0.38785  1.0000
  H   H814      1.0  0.43710  0.84196  0.37276  1.0000
  H   H815      1.0  0.44642  0.87221  0.42066  1.0000
  H   H816      1.0  0.45957  0.89169  0.40183  1.0000
  H   H817      1.0  0.43495  0.89659  0.41702  1.0000
  H   H818      1.0  0.55476  0.91326  0.41583  1.0000
  H   H819      1.0  0.62667  0.92541  0.18977  1.0000
  C   C478      1.0  0.45555  0.98284  0.30611  1.0000
  H   H820      1.0  0.42300  0.96579  0.29936  1.0000
  H   H821      1.0  0.64956  0.94668  0.11357  1.0000
  C   C479      1.0  0.64767  0.92821  0.27475  1.0000
  H   H822      1.0  0.46060  0.96117  0.26552  1.0000
  H   H823      1.0  0.47144  0.98438  0.25759  1.0000
  H   H824      1.0  0.41113  0.85679  0.29087  1.0000
  H   H825      1.0  0.53345  0.89993  0.42522  1.0000
  N   N35       1.0  0.66534  0.91924  0.13073  1.0000
  H   H826      1.0  0.52493  0.97043  0.47259  1.0000
  C   C480      1.0  0.38275  0.91157  0.48048  1.0000
  H   H827      1.0  0.64899  0.93693  0.19335  1.0000
  H   H828      1.0  0.51227  0.91202  0.48888  1.0000
  H   H829      1.0  0.64918  0.88414  0.23480  1.0000
  H   H830      1.0  0.45344  0.97041  0.32343  1.0000
  H   H831      1.0  0.42231  0.83875  0.31898  1.0000
  C   C481      1.0  0.38761  0.87616  0.48716  1.0000
  C   C482      1.0  0.65668  0.93267  0.10350  1.0000
  H   H832      1.0  0.38217  0.92448  0.46459  1.0000
  C   C483      1.0  0.63876  0.93121  0.17484  1.0000
  H   H833      1.0  0.64444  0.92578  0.09063  1.0000
  S   S145      1.0  0.34215  0.90816  0.28035  1.0000
  S   S146      1.0  0.37319  0.98328  0.38289  1.0000
  H   H834      1.0  0.49753  0.95294  0.46468  1.0000
  H   H835      1.0  0.55937  0.94166  0.44767  1.0000
  H   H836      1.0  0.41028  0.98288  0.23350  1.0000
  H   H837      1.0  0.52944  0.97761  0.33514  1.0000
  H   H838      1.0  0.46512  0.99274  0.31958  1.0000
  H   H839      1.0  0.51232  0.92237  0.44886  1.0000
  C   C484      1.0  0.54334  0.94413  0.45385  1.0000
  H   H840      1.0  0.58411  0.99263  0.38669  1.0000
  C   C485      1.0  0.51596  0.92555  0.47535  1.0000
  H   H841      1.0  0.51297  0.99459  0.31240  1.0000
  H   H842      1.0  0.65471  0.90321  0.17308  1.0000
  C   C486      1.0  0.46784  0.97355  0.27685  1.0000
  H   H843      1.0  0.54357  0.97538  0.44294  1.0000
  N   N36       1.0  0.53757  0.92874  0.47849  1.0000
  N   N37       1.0  0.43594  0.99380  0.29759  1.0000
  C   C487      1.0  0.35794  0.99485  0.48646  1.0000
  H   H844      1.0  0.41959  0.95867  0.24454  1.0000
  H   H845      1.0  0.53788  0.98754  0.29711  1.0000
  H   H846      1.0  0.66206  0.89427  0.09786  1.0000
  C   C488      1.0  0.42493  0.98925  0.35912  1.0000
  H   H847      1.0  0.43662  0.97616  0.23465  1.0000
  H   H848      1.0  0.56524  0.91025  0.47626  1.0000
  C   C489      1.0  0.52865  0.99122  0.31958  1.0000
  C   C490      1.0  0.42149  0.97984  0.28494  1.0000
  C   C491      1.0  0.65407  0.89791  0.24373  1.0000
  S   S147      1.0  0.59338  0.99238  0.31601  1.0000
  H   H849      1.0  0.41584  0.97710  0.35223  1.0000
  H   H850      1.0  0.66431  0.95036  0.06059  1.0000
  H   H851      1.0  0.66411  0.95716  0.15703  1.0000
  C   C492      1.0  0.50090  0.94267  0.48592  1.0000
  H   H852      1.0  0.54440  0.89714  0.48536  1.0000
  H   H853      1.0  0.40605  0.98620  0.28953  1.0000
  H   H854      1.0  0.48697  0.93657  0.49394  1.0000
  Fe  Fe73      1.0  0.37402  0.92587  0.60981  1.0000
  S   S148      1.0  0.37921  0.92335  0.66553  1.0000
  S   S149      1.0  0.37562  0.89776  0.57965  1.0000
  Fe  Fe74      1.0  0.37070  0.96985  0.61131  1.0000
  S   S150      1.0  0.37573  0.97096  0.66658  1.0000
  H   H855      1.0  0.60551  0.95993  0.73334  1.0000
  Fe  Fe75      1.0  0.40003  0.94698  0.65711  1.0000
  S   S151      1.0  0.42976  0.94770  0.68364  1.0000
  Fe  Fe76      1.0  0.35433  0.94740  0.67025  1.0000
  H   H856      1.0  0.40183  0.98964  0.62130  1.0000
  S   S152      1.0  0.39644  0.94769  0.60145  1.0000
  S   S153      1.0  0.34767  0.94815  0.61498  1.0000
  Fe  Fe77      1.0  0.56048  0.97113  0.68034  1.0000
  S   S154      1.0  0.55526  0.94109  0.69931  1.0000
  C   C493      1.0  0.66300  0.93592  0.72570  1.0000
  Fe  Fe78      1.0  0.57931  0.95579  0.61544  1.0000
  S   S155      1.0  0.57593  0.92419  0.62938  1.0000
  S   S156      1.0  0.58957  0.96995  0.56791  1.0000
  Fe  Fe79      1.0  0.54515  0.93541  0.64680  1.0000
  S   S157      1.0  0.51653  0.92434  0.62695  1.0000
  Fe  Fe80      1.0  0.58655  0.93281  0.68091  1.0000
  S   S158      1.0  0.60790  0.91561  0.71732  1.0000
  S   S159      1.0  0.54824  0.96618  0.62959  1.0000
  S   S160      1.0  0.59198  0.96349  0.66516  1.0000
  H   H857      1.0  0.58458  0.94256  0.77716  1.0000
  C   C494      1.0  0.43016  0.88183  0.57940  1.0000
  N   N38       1.0  0.43687  0.88065  0.61545  1.0000
  C   C495      1.0  0.45389  0.94303  0.66647  1.0000
  C   C496      1.0  0.45720  0.93960  0.63230  1.0000
  C   C497      1.0  0.47656  0.93461  0.62029  1.0000
  C   C498      1.0  0.49284  0.93335  0.64215  1.0000
  C   C499      1.0  0.48960  0.93761  0.67604  1.0000
  C   C500      1.0  0.47023  0.94231  0.68811  1.0000
  H   H858      1.0  0.44482  0.94046  0.61524  1.0000
  H   H859      1.0  0.47893  0.93142  0.59401  1.0000
  H   H860      1.0  0.50194  0.93650  0.69321  1.0000
  H   H861      1.0  0.46785  0.94496  0.71457  1.0000
  C   C501      1.0  0.42400  0.89538  0.63591  1.0000
  C   C502      1.0  0.64405  0.93248  0.71356  1.0000
  H   H862      1.0  0.62390  0.97701  0.85203  1.0000
  C   C503      1.0  0.60079  0.92349  0.50508  1.0000
  H   H863      1.0  0.64230  0.97180  0.76178  1.0000
  C   C504      1.0  0.54313  0.93430  0.51355  1.0000
  H   H864      1.0  0.53598  0.94882  0.52132  1.0000
  C   C505      1.0  0.59786  0.93484  0.53432  1.0000
  C   C506      1.0  0.59369  0.95526  0.53198  1.0000
  H   H865      1.0  0.34268  0.97012  0.50395  1.0000
  H   H866      1.0  0.59888  0.92780  0.55861  1.0000
  H   H867      1.0  0.38431  0.86510  0.53706  1.0000
  C   C507      1.0  0.62302  0.97152  0.82595  1.0000
  C   C508      1.0  0.37988  0.89678  0.53593  1.0000
  C   C509      1.0  0.63227  0.98466  0.75331  1.0000
  H   H868      1.0  0.52264  0.91737  0.54281  1.0000
  H   H869      1.0  0.42353  0.90152  0.53729  1.0000
  H   H870      1.0  0.33373  0.99278  0.52268  1.0000
  H   H871      1.0  0.46822  0.87101  0.66376  1.0000
  H   H872      1.0  0.43509  0.88227  0.68508  1.0000
  H   H873      1.0  0.43871  0.87044  0.56389  1.0000
  C   C510      1.0  0.63210  0.92027  0.73124  1.0000
  H   H874      1.0  0.44677  0.90487  0.55591  1.0000
  H   H875      1.0  0.45979  0.90017  0.60580  1.0000
  H   H876      1.0  0.46737  0.87481  0.59975  1.0000
  H   H877      1.0  0.33837  0.99358  0.70274  1.0000
  H   H878      1.0  0.58192  0.99719  0.76144  1.0000
  H   H879      1.0  0.46305  0.99188  0.62343  1.0000
  C   C511      1.0  0.46829  0.88530  0.65054  1.0000
  C   C512      1.0  0.58490  0.95871  0.77321  1.0000
  H   H880      1.0  0.42884  0.91048  0.63271  1.0000
  C   C513      1.0  0.42257  0.89139  0.67400  1.0000
  H   H881      1.0  0.63838  0.96766  0.81719  1.0000
  H   H882      1.0  0.58098  0.96559  0.79764  1.0000
  H   H883      1.0  0.40851  0.88494  0.68013  1.0000
  H   H884      1.0  0.63048  0.90194  0.77501  1.0000
  C   C514      1.0  0.60561  0.96299  0.76057  1.0000
  C   C515      1.0  0.43550  0.85964  0.62671  1.0000
  C   C516      1.0  0.43132  0.90188  0.56168  1.0000
  H   H885      1.0  0.61664  0.95133  0.77019  1.0000
  C   C517      1.0  0.38401  0.87815  0.52154  1.0000
  H   H886      1.0  0.42176  0.90571  0.68750  1.0000
  H   H887      1.0  0.46178  0.89759  0.66641  1.0000
  H   H888      1.0  0.48087  0.98189  0.66800  1.0000
  C   C518      1.0  0.63950  0.91150  0.76113  1.0000
  H   H889      1.0  0.54759  0.90535  0.53890  1.0000
  H   H890      1.0  0.55921  0.93619  0.51464  1.0000
  H   H891      1.0  0.41446  0.87856  0.57729  1.0000
  H   H892      1.0  0.48406  0.88809  0.64687  1.0000
  H   H893      1.0  0.42385  0.91425  0.57615  1.0000
  H   H894      1.0  0.41086  0.84841  0.59872  1.0000
  C   C519      1.0  0.45820  0.88527  0.61610  1.0000
  H   H895      1.0  0.41441  0.83837  0.63970  1.0000
  N   N39       1.0  0.61168  0.98340  0.76715  1.0000
  H   H896      1.0  0.44078  0.85715  0.65265  1.0000
  H   H897      1.0  0.60399  0.90767  0.50696  1.0000
  H   H898      1.0  0.40297  0.86292  0.63487  1.0000
  C   C520      1.0  0.41468  0.85214  0.62483  1.0000
  C   C521      1.0  0.33904  0.98607  0.49866  1.0000
  H   H899      1.0  0.61498  0.95800  0.82698  1.0000
  H   H900      1.0  0.40854  0.89622  0.62645  1.0000
  H   H901      1.0  0.66380  0.90814  0.79640  1.0000
  H   H902      1.0  0.44556  0.84938  0.61141  1.0000
  H   H903      1.0  0.54268  0.92591  0.56587  1.0000
  H   H904      1.0  0.62798  0.97260  0.70265  1.0000
  C   C522      1.0  0.53860  0.91967  0.54140  1.0000
  H   H905      1.0  0.63883  0.93895  0.69015  1.0000
  H   H906      1.0  0.51323  0.97776  0.69619  1.0000
  H   H907      1.0  0.37624  0.92808  0.52632  1.0000
  H   H908      1.0  0.59529  0.99464  0.72360  1.0000
  H   H909      1.0  0.57336  0.96374  0.75471  1.0000
  H   H910      1.0  0.50430  0.99145  0.62766  1.0000
  C   C523      1.0  0.50015  0.98490  0.70951  1.0000
  C   C524      1.0  0.59261  0.96426  0.50038  1.0000
  H   H911      1.0  0.59682  0.99064  0.81446  1.0000
  C   C525      1.0  0.61204  0.98767  0.80416  1.0000
  H   H912      1.0  0.49369  0.97309  0.72404  1.0000
  C   C526      1.0  0.63412  0.98529  0.71481  1.0000
  H   H913      1.0  0.65004  0.98459  0.70793  1.0000
  C   C527      1.0  0.65842  0.91501  0.77339  1.0000
  C   C528      1.0  0.37943  0.91361  0.51541  1.0000
  H   H914      1.0  0.34088  0.99418  0.74684  1.0000
  H   H915      1.0  0.36849  0.99234  0.50752  1.0000
  H   H916      1.0  0.58932  0.98001  0.49852  1.0000
  H   H917      1.0  0.50548  0.95099  0.50787  1.0000
  C   C529      1.0  0.48443  0.99406  0.68493  1.0000
  H   H918      1.0  0.50493  0.99567  0.72793  1.0000
  Fe  Fe81      1.0  0.74394  0.08767  0.18128  1.0000
  S   S161      1.0  0.71605  0.10495  0.16362  1.0000
  S   S162      1.0  0.73745  0.05504  0.18228  1.0000
  Fe  Fe82      1.0  0.76373  0.12666  0.19688  1.0000
  S   S163      1.0  0.73648  0.14534  0.18058  1.0000
  S   S164      1.0  0.79286  0.13970  0.21324  1.0000
  Fe  Fe83      1.0  0.71877  0.12392  0.20900  1.0000
  S   S165      1.0  0.69556  0.13177  0.25047  1.0000
  Fe  Fe84      1.0  0.73626  0.12435  0.13638  1.0000
  S   S166      1.0  0.72928  0.13556  0.08272  1.0000
  S   S167      1.0  0.74620  0.10625  0.22768  1.0000
  S   S168      1.0  0.76399  0.10618  0.15158  1.0000
  Fe  Fe85      1.0  0.85528  0.23264  0.29631  1.0000
  S   S169      1.0  0.84829  0.25618  0.33599  1.0000
  S   S170      1.0  0.82795  0.21700  0.27752  1.0000
  Fe  Fe86      1.0  0.89993  0.24029  0.29860  1.0000
  S   S171      1.0  0.89532  0.26302  0.33882  1.0000
  S   S172      1.0  0.93037  0.23526  0.27363  1.0000
  Fe  Fe87      1.0  0.87512  0.24275  0.36346  1.0000
  S   S173      1.0  0.87875  0.23193  0.41798  1.0000
  Fe  Fe88      1.0  0.86910  0.27469  0.30802  1.0000
  S   S174      1.0  0.86622  0.30837  0.30259  1.0000
  S   S175      1.0  0.88161  0.21868  0.32483  1.0000
  S   S176      1.0  0.87423  0.25249  0.26667  1.0000
  Fe  Fe89      1.0  0.89160  0.43760  0.16517  1.0000
  S   S177      1.0  0.90136  0.43875  0.11188  1.0000
  S   S178      1.0  0.89826  0.46493  0.19500  1.0000
  Fe  Fe90      1.0  0.88117  0.39433  0.15825  1.0000
  S   S179      1.0  0.89004  0.39348  0.10355  1.0000
  S   S180      1.0  0.87219  0.36373  0.17361  1.0000
  Fe  Fe91      1.0  0.91609  0.40869  0.12030  1.0000
  S   S181      1.0  0.94653  0.40116  0.09950  1.0000
  Fe  Fe92      1.0  0.87435  0.42367  0.09984  1.0000
  S   S182      1.0  0.85930  0.43792  0.05449  1.0000
  S   S183      1.0  0.90864  0.40801  0.17483  1.0000
  S   S184      1.0  0.86317  0.42405  0.15305  1.0000
  C   C530      1.0  0.86112  0.42378  0.01765  1.0000
  H   H919      1.0  0.71600  0.05378  0.24959  1.0000
  C   C531      1.0  0.99239  0.43190  0.23079  1.0000
  C   C532      1.0  0.81115  0.19494  0.15069  1.0000
  H   H920      1.0  0.90661  0.31943  0.31641  1.0000
  C   C533      1.0  0.87145  0.24100  0.45864  1.0000
  N   N40       1.0  0.99051  0.41012  0.22640  1.0000
  C   C534      1.0  0.85686  0.25658  0.46352  1.0000
  H   H921      1.0  0.97197  0.37418  0.01669  1.0000
  H   H922      1.0  0.84999  0.26403  0.44209  1.0000
  C   C535      1.0  0.86801  0.32343  0.26638  1.0000
  C   C536      1.0  0.87197  0.34329  0.27035  1.0000
  C   C537      1.0  0.87366  0.35578  0.24238  1.0000
  C   C538      1.0  0.87107  0.34863  0.21000  1.0000
  C   C539      1.0  0.86717  0.32875  0.20605  1.0000
  C   C540      1.0  0.86575  0.31619  0.23397  1.0000
  H   H923      1.0  0.87364  0.34910  0.29528  1.0000
  H   H924      1.0  0.87653  0.37103  0.24592  1.0000
  H   H925      1.0  0.86507  0.32305  0.18117  1.0000
  H   H926      1.0  0.86264  0.30100  0.23043  1.0000
  C   C541      1.0  0.73951  0.13108  0.04164  1.0000
  C   C542      1.0  0.75868  0.12223  0.03633  1.0000
  H   H927      1.0  0.96683  0.39187  0.21349  1.0000
  H   H928      1.0  0.76759  0.11730  0.05755  1.0000
  H   H929      1.0  0.96991  0.28020  0.27396  1.0000
  C   C543      1.0  0.80210  0.16130  0.23185  1.0000
  C   C544      1.0  0.78983  0.17806  0.24113  1.0000
  C   C545      1.0  0.79799  0.19481  0.25488  1.0000
  C   C546      1.0  0.81857  0.19529  0.25961  1.0000
  C   C547      1.0  0.83083  0.17857  0.25015  1.0000
  C   C548      1.0  0.82267  0.16182  0.23645  1.0000
  H   H930      1.0  0.77402  0.17814  0.23783  1.0000
  H   H931      1.0  0.78824  0.20756  0.26192  1.0000
  H   H932      1.0  0.84665  0.17854  0.25327  1.0000
  H   H933      1.0  0.83245  0.14911  0.22929  1.0000
  H   H934      1.0  0.90808  0.29170  0.20344  1.0000
  C   C549      1.0  0.92294  0.29511  0.28898  1.0000
  H   H935      1.0  0.96041  0.29123  0.31262  1.0000
  C   C550      1.0  0.96177  0.41912  0.11270  1.0000
  C   C551      1.0  0.98172  0.41781  0.10334  1.0000
  H   H936      1.0  0.80419  0.16567  0.16350  1.0000
  C   C552      1.0  0.96639  0.44871  0.14453  1.0000
  C   C553      1.0  0.95413  0.43461  0.13322  1.0000
  H   H937      1.0  0.93426  0.48500  0.10168  1.0000
  H   H938      1.0  0.71083  0.09029  0.25701  1.0000
  H   H939      1.0  0.96045  0.46046  0.16089  1.0000
  H   H940      1.0  0.93891  0.43549  0.14129  1.0000
  C   C554      1.0  0.95300  0.23940  0.29365  1.0000
  C   C555      1.0  0.97050  0.23905  0.27454  1.0000
  H   H941      1.0  0.90518  0.31648  0.24115  1.0000
  C   C556      1.0  0.67095  0.12551  0.25848  1.0000
  C   C557      1.0  0.97229  0.24549  0.34325  1.0000
  C   C558      1.0  0.95398  0.24287  0.32806  1.0000
  H   H942      1.0  0.96990  0.23638  0.24789  1.0000
  H   H943      1.0  0.93010  0.28066  0.29765  1.0000
  H   H944      1.0  0.97289  0.24763  0.37002  1.0000
  H   H945      1.0  0.94069  0.24308  0.34312  1.0000
  H   H946      1.0  0.96164  0.31198  0.24392  1.0000
  C   C559      1.0  0.78003  0.00861  0.17340  1.0000
  C   C560      1.0  0.77086  0.02803  0.17598  1.0000
  C   C561      1.0  0.75022  0.03122  0.17727  1.0000
  C   C562      1.0  0.73898  0.01482  0.17531  1.0000
  H   H947      1.0  0.72605  0.07827  0.28824  1.0000
  C   C563      1.0  0.99402  0.39919  0.25905  1.0000
  H   H948      1.0  0.77975  0.04046  0.17741  1.0000
  H   H949      1.0  0.72307  0.01706  0.17532  1.0000
  H   H950      1.0  0.66971  0.08570  0.27614  1.0000
  H   H951      1.0  0.78147  0.11382  0.99993  1.0000
  H   H952      1.0  0.81653  0.17546  0.07473  1.0000
  H   H953      1.0  0.90512  0.40249  0.00118  1.0000
  H   H954      1.0  0.79740  0.16726  0.04783  1.0000
  H   H955      1.0  0.80747  0.13481  0.12968  1.0000
  H   H956      1.0  0.78590  0.20211  0.09395  1.0000
  N   N41       1.0  0.68400  0.05940  0.25322  1.0000
  H   H957      1.0  0.93259  0.38531  0.02377  1.0000
  H   H958      1.0  0.81746  0.16720  0.12616  1.0000
  H   H959      1.0  0.93290  0.31825  0.32308  1.0000
  H   H960      1.0  0.95151  0.40169  0.02470  1.0000
  H   H961      1.0  0.94222  0.33545  0.21583  1.0000
  H   H962      1.0  0.85930  0.39585  0.04232  1.0000
  H   H963      1.0  0.98766  0.40588  0.08739  1.0000
  C   C564      1.0  0.98976  0.24523  0.32419  1.0000
  C   C565      1.0  0.80190  0.17958  0.06354  1.0000
  H   H964      1.0  0.90771  0.29157  0.28253  1.0000
  H   H965      1.0  0.91903  0.33240  0.26423  1.0000
  C   C566      1.0  0.79829  0.13814  0.10706  1.0000
  H   H966      1.0  0.68857  0.01098  0.22198  1.0000
  H   H967      1.0  0.69700  0.06587  0.20490  1.0000
  H   H968      1.0  0.93859  0.41221  0.22936  1.0000
  C   C567      1.0  0.91643  0.42873  0.01929  1.0000
  H   H969      1.0  0.85873  0.19654  0.45433  1.0000
  C   C568      1.0  0.68374  0.07043  0.22041  1.0000
  H   H970      1.0  0.97154  0.25114  0.43726  1.0000
  N   N42       1.0  0.78560  0.17446  0.12152  1.0000
  C   C569      1.0  0.95932  0.37414  0.99909  1.0000
  H   H971      1.0  0.82637  0.19301  0.16108  1.0000
  H   H972      1.0  0.70913  0.02406  0.23342  1.0000
  H   H973      1.0  0.92537  0.42280  0.04077  1.0000
  C   C570      1.0  0.78570  0.18600  0.08933  1.0000
  H   H974      1.0  0.90138  0.43302  0.02915  1.0000
  H   H975      1.0  0.77344  0.14741  0.13718  1.0000
  H   H976      1.0  0.98441  0.27187  0.42609  1.0000
  C   C571      1.0  0.76647  0.12015  0.00349  1.0000
  C   C572      1.0  0.68000  0.03807  0.24917  1.0000
  H   H977      1.0  0.79240  0.12407  0.09958  1.0000
  H   H978      1.0  0.98240  0.43813  0.25096  1.0000
  H   H979      1.0  0.67396  0.06555  0.30406  1.0000
  H   H980      1.0  0.77654  0.01221  0.08068  1.0000
  C   C573      1.0  0.78081  0.15348  0.11497  1.0000
  C   C574      1.0  0.85282  0.49213  0.09134  1.0000
  C   C575      1.0  0.71069  0.08004  0.27848  1.0000
  H   H981      1.0  0.95492  0.41414  0.26392  1.0000
  H   H982      1.0  0.69317  0.03271  0.19913  1.0000
  H   H983      1.0  0.77001  0.15289  0.09410  1.0000
  C   C576      1.0  0.86056  0.40329  0.01856  1.0000
  C   C577      1.0  0.66952  0.06945  0.27788  1.0000
  H   H984      1.0  0.98863  0.37906  0.17428  1.0000
  C   C578      1.0  0.95325  0.30910  0.26714  1.0000
  C   C579      1.0  0.98371  0.26007  0.44502  1.0000
  C   C580      1.0  0.93566  0.28645  0.23306  1.0000
  C   C581      1.0  0.91647  0.27980  0.21773  1.0000
  C   C582      1.0  0.96671  0.29422  0.28768  1.0000
  H   H985      1.0  0.94527  0.29052  0.21200  1.0000
  H   H986      1.0  0.94349  0.27299  0.24422  1.0000
  H   H987      1.0  0.90678  0.27385  0.23688  1.0000
  H   H988      1.0  0.92039  0.26755  0.19989  1.0000
  C   C583      1.0  0.88007  0.23152  0.48707  1.0000
  H   H989      1.0  0.98113  0.30037  0.29205  1.0000
  C   C584      1.0  0.98876  0.24221  0.28963  1.0000
  C   C585      1.0  0.76952  0.18407  0.14378  1.0000
  C   C586      1.0  0.74827  0.18482  0.12972  1.0000
  H   H990      1.0  0.76954  0.17644  0.16854  1.0000
  H   H991      1.0  0.77208  0.19966  0.14928  1.0000
  H   H992      1.0  0.74413  0.17026  0.12112  1.0000
  H   H993      1.0  0.92841  0.31871  0.19163  1.0000
  H   H994      1.0  0.74606  0.19563  0.10900  1.0000
  H   H995      1.0  0.95127  0.43388  0.23325  1.0000
  H   H996      1.0  0.79827  0.08062  0.00279  1.0000
  H   H997      1.0  0.79565  0.05487  0.00152  1.0000
  H   H998      1.0  0.67384  0.12866  0.31188  1.0000
  H   H999      1.0  0.89131  0.21942  0.48374  1.0000
  H   H1000     1.0  0.83447  0.18860  0.45803  1.0000
  H   H1001     1.0  0.79599  0.00628  0.17259  1.0000
  H   H1002     1.0  0.90991  0.47438  0.06032  1.0000
  C   C587      1.0  0.98641  0.44713  0.13586  1.0000
  C   C588      1.0  0.92772  0.32936  0.21266  1.0000
  H   H1003     1.0  0.98762  0.44000  0.20759  1.0000
  C   C589      1.0  0.80486  0.17456  0.14030  1.0000
  H   H1004     1.0  0.84606  0.48137  0.10785  1.0000
  C   C590      1.0  0.70451  0.05965  0.26781  1.0000
  H   H1005     1.0  0.81147  0.20524  0.12927  1.0000
  C   C591      1.0  0.90852  0.48996  0.06934  1.0000
  C   C592      1.0  0.96961  0.40774  0.21499  1.0000
  H   H1006     1.0  0.92220  0.44246  0.00988  1.0000
  N   N43       1.0  0.93311  0.30276  0.25867  1.0000
  H   H1007     1.0  0.80767  0.14266  0.08628  1.0000
  H   H1008     1.0  0.88149  0.48044  0.02456  1.0000
  C   C593      1.0  0.94404  0.39162  0.00786  1.0000
  H   H1009     1.0  0.71345  0.14432  0.01700  1.0000
  C   C594      1.0  0.72825  0.13739  0.01341  1.0000
  H   H1010     1.0  0.84546  0.49128  0.06677  1.0000
  C   C595      1.0  0.92050  0.32030  0.24539  1.0000
  H   H1011     1.0  0.98651  0.38525  0.25867  1.0000
  H   H1012     1.0  0.85873  0.48231  0.17784  1.0000
  H   H1013     1.0  0.70624  0.04987  0.29019  1.0000
  H   H1014     1.0  0.73767  0.18982  0.14983  1.0000
  H   H1015     1.0  0.80431  0.19229  0.04700  1.0000
  H   H1016     1.0  0.80170  0.20161  0.17114  1.0000
  H   H1017     1.0  0.91914  0.30060  0.34243  1.0000
  H   H1018     1.0  0.95213  0.32344  0.28068  1.0000
  H   H1019     1.0  0.91693  0.34183  0.20529  1.0000
  H   H1020     1.0  0.70122  0.08688  0.29872  1.0000
  C   C596      1.0  0.92027  0.30933  0.31911  1.0000
  H   H1021     1.0  0.77406  0.07256  0.00053  1.0000
  N   N44       1.0  0.82766  0.19298  0.38429  1.0000
  C   C597      1.0  0.82995  0.17798  0.35629  1.0000
  C   C598      1.0  0.80938  0.18888  0.40376  1.0000
  C   C599      1.0  0.84577  0.19015  0.40631  1.0000
  C   C600      1.0  0.82596  0.21322  0.36872  1.0000
  C   C601      1.0  0.84951  0.17718  0.33632  1.0000
  C   C602      1.0  0.78976  0.19148  0.38419  1.0000
  H   H1022     1.0  0.68114  0.03038  0.27384  1.0000
  C   C603      1.0  0.82103  0.23098  0.39219  1.0000
  H   H1023     1.0  0.82861  0.16281  0.36609  1.0000
  H   H1024     1.0  0.81802  0.18071  0.33735  1.0000
  H   H1025     1.0  0.80723  0.19834  0.42624  1.0000
  H   H1026     1.0  0.81097  0.17354  0.41382  1.0000
  H   H1027     1.0  0.85082  0.17418  0.40859  1.0000
  H   H1028     1.0  0.85839  0.19722  0.39481  1.0000
  H   H1029     1.0  0.84007  0.21604  0.35620  1.0000
  H   H1030     1.0  0.81516  0.21433  0.34772  1.0000
  H   H1031     1.0  0.86270  0.17337  0.35207  1.0000
  H   H1032     1.0  0.84932  0.16551  0.31691  1.0000
  H   H1033     1.0  0.85114  0.19114  0.32285  1.0000
  H   H1034     1.0  0.78687  0.20663  0.37407  1.0000
  H   H1035     1.0  0.78921  0.18055  0.36370  1.0000
  H   H1036     1.0  0.77737  0.18899  0.40148  1.0000
  H   H1037     1.0  0.98715  0.40800  0.28019  1.0000
  H   H1038     1.0  0.77154  0.18495  0.07569  1.0000
  C   C604      1.0  0.69364  0.02601  0.22444  1.0000
  H   H1039     1.0  0.83476  0.23648  0.40231  1.0000
  H   H1040     1.0  0.81101  0.22812  0.41306  1.0000
  H   H1041     1.0  0.81301  0.24311  0.37777  1.0000
  H   H1042     1.0  0.83823  0.21343  0.44444  1.0000
  H   H1043     1.0  0.91210  0.47973  0.12194  1.0000
  H   H1044     1.0  0.96721  0.41360  0.18916  1.0000
  C   C605      1.0  0.91833  0.49011  0.10423  1.0000
  C   C606      1.0  0.95287  0.41764  0.23702  1.0000
  H   H1045     1.0  0.87713  0.47064  0.08174  1.0000
  C   C607      1.0  0.84382  0.19774  0.44267  1.0000
  C   C608      1.0  0.99407  0.43182  0.11497  1.0000
  H   H1046     1.0  0.68522  0.08637  0.22476  1.0000
  H   H1047     1.0  0.95291  0.35987  0.00339  1.0000
  H   H1048     1.0  0.88043  0.48666  0.11567  1.0000
  H   H1049     1.0  0.97956  0.26641  0.46984  1.0000
  C   C609      1.0  0.88868  0.48940  0.18524  1.0000
  H   H1050     1.0  0.99434  0.18985  0.25745  1.0000
  C   C610      1.0  0.87521  0.48637  0.08953  1.0000
  C   C611      1.0  0.86863  0.49395  0.17816  1.0000
  H   H1051     1.0  0.66987  0.07109  0.17147  1.0000
  C   C612      1.0  0.88068  0.49639  0.03155  1.0000
  C   C613      1.0  0.85093  0.26240  0.49630  1.0000
  Fe  Fe93      1.0  0.86491  0.25299  0.61700  1.0000
  S   S185      1.0  0.88135  0.22378  0.62880  1.0000
  S   S186      1.0  0.85113  0.26059  0.56562  1.0000
  Fe  Fe94      1.0  0.87272  0.26958  0.68733  1.0000
  S   S187      1.0  0.89048  0.24148  0.70200  1.0000
  S   S188      1.0  0.87017  0.28975  0.73315  1.0000
  Fe  Fe95      1.0  0.90417  0.24212  0.65108  1.0000
  S   S189      1.0  0.93613  0.23640  0.63353  1.0000
  Fe  Fe96      1.0  0.86584  0.22564  0.67924  1.0000
  S   S190      1.0  0.85693  0.19905  0.71054  1.0000
  S   S191      1.0  0.88826  0.27134  0.63770  1.0000
  S   S192      1.0  0.84762  0.25376  0.66601  1.0000
  Fe  Fe97      1.0  0.75600  0.12644  0.87901  1.0000
  S   S193      1.0  0.78039  0.12046  0.84032  1.0000
  S   S194      1.0  0.76597  0.12299  0.93435  1.0000
  Fe  Fe98      1.0  0.72394  0.12953  0.82371  1.0000
  S   S195      1.0  0.74604  0.12361  0.78232  1.0000
  S   S196      1.0  0.69020  0.13189  0.81794  1.0000
  Fe  Fe99      1.0  0.75995  0.10008  0.81657  1.0000
  S   S197      1.0  0.77032  0.06967  0.79599  1.0000
  Fe  Fe100     1.0  0.76491  0.14466  0.80889  1.0000
  S   S198      1.0  0.77764  0.16970  0.77777  1.0000
  S   S199      1.0  0.73678  0.10459  0.85637  1.0000
  S   S200      1.0  0.74160  0.15205  0.84911  1.0000
  Fe  Fe101     1.0  0.87830  0.43943  0.83409  1.0000
  S   S201      1.0  0.89306  0.42704  0.88053  1.0000
  S   S202      1.0  0.86627  0.47143  0.84228  1.0000
  Fe  Fe102     1.0  0.88236  0.39853  0.79954  1.0000
  S   S203      1.0  0.89723  0.38356  0.84390  1.0000
  S   S204      1.0  0.87778  0.38224  0.75050  1.0000
  Fe  Fe103     1.0  0.87474  0.40167  0.87470  1.0000
  S   S205      1.0  0.86165  0.38828  0.92038  1.0000
  Fe  Fe104     1.0  0.91422  0.41026  0.84619  1.0000
  S   S206      1.0  0.94527  0.40762  0.86501  1.0000
  S   S207      1.0  0.85813  0.41474  0.83033  1.0000
  S   S208      1.0  0.90124  0.42453  0.79963  1.0000
  C   C614      1.0  0.87152  0.31562  0.73711  1.0000
  C   C615      1.0  0.87185  0.32814  0.70937  1.0000
  C   C616      1.0  0.87356  0.34850  0.71394  1.0000
  C   C617      1.0  0.87518  0.35655  0.74618  1.0000
  C   C618      1.0  0.87491  0.34400  0.77388  1.0000
  C   C619      1.0  0.87297  0.32369  0.76934  1.0000
  H   H1052     1.0  0.87064  0.32219  0.68443  1.0000
  H   H1053     1.0  0.87365  0.35809  0.69235  1.0000
  H   H1054     1.0  0.87614  0.34995  0.79881  1.0000
  H   H1055     1.0  0.87281  0.31416  0.79099  1.0000
  C   C620      1.0  0.83458  0.19089  0.72827  1.0000
  C   C621      1.0  0.81574  0.19989  0.72088  1.0000
  C   C622      1.0  0.79866  0.19316  0.73613  1.0000
  C   C623      1.0  0.79994  0.17712  0.75869  1.0000
  C   C624      1.0  0.81877  0.16797  0.76575  1.0000
  C   C625      1.0  0.83587  0.17484  0.75076  1.0000
  H   H1056     1.0  0.81429  0.21195  0.70322  1.0000
  H   H1057     1.0  0.78427  0.20036  0.73020  1.0000
  H   H1058     1.0  0.82016  0.15566  0.78296  1.0000
  H   H1059     1.0  0.85024  0.16760  0.75672  1.0000
  C   C626      1.0  0.82678  0.27728  0.79009  1.0000
  H   H1060     1.0  0.80338  0.04521  0.90222  1.0000
  H   H1061     1.0  0.70886  0.09437  0.77930  1.0000
  C   C627      1.0  0.75186  0.01108  0.83859  1.0000
  C   C628      1.0  0.76555  0.01115  0.81238  1.0000
  C   C629      1.0  0.77112  0.02921  0.79960  1.0000
  C   C630      1.0  0.76294  0.04731  0.81266  1.0000
  C   C631      1.0  0.74890  0.04721  0.83826  1.0000
  C   C632      1.0  0.74352  0.02921  0.85131  1.0000
  H   H1062     1.0  0.78907  0.41675  0.93278  1.0000
  H   H1063     1.0  0.78191  0.02914  0.77960  1.0000
  H   H1064     1.0  0.74225  0.06101  0.84806  1.0000
  H   H1065     1.0  0.73278  0.02929  0.87137  1.0000
  C   C633      1.0  0.78540  0.47366  0.88772  1.0000
  C   C634      1.0  0.97867  0.42611  0.85667  1.0000
  C   C635      1.0  0.96126  0.42107  0.84170  1.0000
  C   C636      1.0  0.95685  0.42703  0.80882  1.0000
  C   C637      1.0  0.97006  0.43789  0.79087  1.0000
  H   H1066     1.0  0.80084  0.06798  0.85571  1.0000
  H   H1067     1.0  0.98218  0.42155  0.88204  1.0000
  H   H1068     1.0  0.94355  0.42289  0.79699  1.0000
  H   H1069     1.0  0.96688  0.44219  0.76526  1.0000
  C   C638      1.0  0.94707  0.41874  0.96677  1.0000
  C   C639      1.0  0.97911  0.23891  0.70424  1.0000
  C   C640      1.0  0.96055  0.23765  0.68902  1.0000
  C   C641      1.0  0.95860  0.23983  0.65436  1.0000
  C   C642      1.0  0.97531  0.24351  0.63522  1.0000
  H   H1070     1.0  0.93926  0.42769  0.94663  1.0000
  N   N45       1.0  0.81151  0.44364  0.89289  1.0000
  H   H1071     1.0  0.94791  0.23442  0.70393  1.0000
  H   H1072     1.0  0.97401  0.24499  0.60834  1.0000
  H   H1073     1.0  0.94655  0.30287  0.63063  1.0000
  C   C643      1.0  0.86344  0.42244  0.95689  1.0000
  C   C644      1.0  0.86217  0.40204  0.95766  1.0000
  C   C645      1.0  0.77792  0.03752  0.94920  1.0000
  H   H1074     1.0  0.86440  0.42996  0.93325  1.0000
  H   H1075     1.0  0.82655  0.46748  0.87012  1.0000
  C   C646      1.0  0.87438  0.23755  0.51982  1.0000
  C   C647      1.0  0.85966  0.25300  0.52474  1.0000
  H   H1076     1.0  0.84641  0.47623  0.91684  1.0000
  H   H1077     1.0  0.88122  0.23010  0.54127  1.0000
  C   C648      1.0  0.92953  0.39023  0.94985  1.0000
  H   H1078     1.0  0.83531  0.28451  0.77040  1.0000
  C   C649      1.0  0.75515  0.12633  0.97524  1.0000
  H   H1079     1.0  0.83673  0.45860  0.94383  1.0000
  H   H1080     1.0  0.89080  0.18079  0.62835  1.0000
  H   H1081     1.0  0.72691  0.13977  0.95926  1.0000
  H   H1082     1.0  0.97756  0.49000  0.81143  1.0000
  H   H1083     1.0  0.77193  0.03882  0.97498  1.0000
  H   H1084     1.0  0.79722  0.48207  0.87730  1.0000
  H   H1085     1.0  0.99314  0.37413  0.71918  1.0000
  C   C650      1.0  0.99582  0.24269  0.68511  1.0000
  H   H1086     1.0  0.90363  0.15719  0.61695  1.0000
  C   C651      1.0  0.91500  0.41335  0.99115  1.0000
  H   H1087     1.0  0.96521  0.15757  0.65460  1.0000
  H   H1088     1.0  0.99450  0.38799  0.81112  1.0000
  C   C652      1.0  0.83317  0.46812  0.92190  1.0000
  H   H1089     1.0  0.72350  0.02944  0.78608  1.0000
  H   H1090     1.0  0.78064  0.44530  0.90699  1.0000
  H   H1091     1.0  0.92599  0.48630  0.79549  1.0000
  H   H1092     1.0  0.83204  0.41940  0.90870  1.0000
  C   C653      1.0  0.81769  0.42708  0.91685  1.0000
  C   C654      1.0  0.80320  0.41095  0.92106  1.0000
  H   H1093     1.0  0.81759  0.42096  0.85505  1.0000
  H   H1094     1.0  0.93048  0.28362  0.64081  1.0000
  C   C655      1.0  0.67617  0.07624  0.71835  1.0000
  C   C656      1.0  0.97075  0.29143  0.68352  1.0000
  H   H1095     1.0  0.74596  0.05902  0.97576  1.0000
  H   H1096     1.0  0.82018  0.43271  0.94246  1.0000
  C   C657      1.0  0.72296  0.08475  0.73368  1.0000
  H   H1097     1.0  0.72260  0.07295  0.71487  1.0000
  H   H1098     1.0  0.88760  0.48061  0.78115  1.0000
  C   C658      1.0  0.82864  0.45633  0.89027  1.0000
  C   C659      1.0  0.74472  0.07110  0.95726  1.0000
  H   H1099     1.0  0.80037  0.40341  0.89718  1.0000
  H   H1100     1.0  0.79316  0.03021  0.95211  1.0000
  N   N46       1.0  0.92732  0.17764  0.66593  1.0000
  C   C660      1.0  0.94756  0.18435  0.67308  1.0000
  C   C661      1.0  0.91258  0.19141  0.68468  1.0000
  C   C662      1.0  0.92361  0.18001  0.62886  1.0000
  C   C663      1.0  0.92702  0.15637  0.67658  1.0000
  C   C664      1.0  0.96507  0.17385  0.65355  1.0000
  C   C665      1.0  0.91525  0.19197  0.72299  1.0000
  C   C666      1.0  0.90393  0.17344  0.61562  1.0000
  C   C667      1.0  0.90655  0.14899  0.68474  1.0000
  H   H1101     1.0  0.94781  0.20040  0.66800  1.0000
  H   H1102     1.0  0.95135  0.18245  0.70003  1.0000
  H   H1103     1.0  0.89712  0.18826  0.67998  1.0000
  H   H1104     1.0  0.91333  0.20676  0.67544  1.0000
  H   H1105     1.0  0.92449  0.19570  0.62125  1.0000
  H   H1106     1.0  0.93514  0.17128  0.61406  1.0000
  H   H1107     1.0  0.93416  0.14641  0.65712  1.0000
  H   H1108     1.0  0.93606  0.15362  0.69961  1.0000
  H   H1109     1.0  0.77519  0.47011  0.86734  1.0000
  H   H1110     1.0  0.98109  0.39611  0.77467  1.0000
  H   H1111     1.0  0.74995  0.02891  0.92748  1.0000
  H   H1112     1.0  0.91755  0.17707  0.73418  1.0000
  H   H1113     1.0  0.92768  0.20074  0.72991  1.0000
  H   H1114     1.0  0.90167  0.19942  0.73452  1.0000
  H   H1115     1.0  0.69235  0.03640  0.75374  1.0000
  H   H1116     1.0  0.90674  0.42091  0.97002  1.0000
  N   N47       1.0  0.94774  0.49431  0.83168  1.0000
  H   H1117     1.0  0.90634  0.13353  0.67589  1.0000
  H   H1118     1.0  0.89368  0.15736  0.67314  1.0000
  H   H1119     1.0  0.90418  0.14837  0.71222  1.0000
  H   H1120     1.0  0.81095  0.28177  0.78479  1.0000
  H   H1121     1.0  0.80087  0.25184  0.80426  1.0000
  C   C668      1.0  0.70407  0.04678  0.75062  1.0000
  C   C669      1.0  0.86298  0.23080  0.78655  1.0000
  H   H1122     1.0  0.78003  0.04490  0.88258  1.0000
  C   C670      1.0  0.83133  0.28720  0.82366  1.0000
  H   H1123     1.0  0.96527  0.17894  0.62716  1.0000
  H   H1124     1.0  0.82521  0.44948  0.82260  1.0000
  H   H1125     1.0  0.80418  0.21901  0.82663  1.0000
  H   H1126     1.0  0.73641  0.04503  0.75798  1.0000
  C   C671      1.0  0.67905  0.07523  0.75659  1.0000
  C   C672      1.0  0.71438  0.07990  0.76826  1.0000
  H   H1127     1.0  0.71540  0.09857  0.72347  1.0000
  H   H1128     1.0  0.68610  0.07122  0.85476  1.0000
  C   C673      1.0  0.80947  0.44721  0.82779  1.0000
  H   H1129     1.0  0.95016  0.47510  0.78836  1.0000
  H   H1130     1.0  0.75041  0.06016  0.90701  1.0000
  H   H1131     1.0  0.69943  0.13029  0.74614  1.0000
  H   H1132     1.0  0.72703  0.07492  0.78476  1.0000
  N   N48       1.0  0.93540  0.30543  0.70224  1.0000
  C   C674      1.0  0.92649  0.31860  0.72982  1.0000
  C   C675      1.0  0.93124  0.28459  0.71098  1.0000
  C   C676      1.0  0.92480  0.31134  0.67017  1.0000
  C   C677      1.0  0.95719  0.30825  0.69978  1.0000
  C   C678      1.0  0.92678  0.34106  0.72447  1.0000
  C   C679      1.0  0.93979  0.27672  0.74461  1.0000
  H   H1133     1.0  0.92146  0.30468  0.61752  1.0000
  H   H1134     1.0  0.84239  0.44711  0.88313  1.0000
  H   H1135     1.0  0.91089  0.31565  0.73447  1.0000
  H   H1136     1.0  0.93426  0.31541  0.75395  1.0000
  H   H1137     1.0  0.93663  0.27387  0.69158  1.0000
  H   H1138     1.0  0.91496  0.28331  0.71185  1.0000
  H   H1139     1.0  0.90857  0.31027  0.67317  1.0000
  H   H1140     1.0  0.92661  0.32698  0.66381  1.0000
  H   H1141     1.0  0.95946  0.32208  0.68589  1.0000
  H   H1142     1.0  0.96338  0.31027  0.72525  1.0000
  H   H1143     1.0  0.94173  0.34537  0.71824  1.0000
  H   H1144     1.0  0.91602  0.34665  0.70515  1.0000
  H   H1145     1.0  0.92201  0.34879  0.74802  1.0000
  H   H1146     1.0  0.93823  0.26064  0.74619  1.0000
  H   H1147     1.0  0.95572  0.27884  0.74719  1.0000
  H   H1148     1.0  0.93142  0.28357  0.76611  1.0000
  C   C680      1.0  0.68782  0.07719  0.82915  1.0000
  H   H1149     1.0  0.68790  0.08362  0.70542  1.0000
  H   H1150     1.0  0.96564  0.37430  0.97363  1.0000
  H   H1151     1.0  0.77726  0.48399  0.90548  1.0000
  C   C681      1.0  0.86075  0.39250  0.98857  1.0000
  H   H1152     1.0  0.66647  0.06738  0.76638  1.0000
  C   C682      1.0  0.81677  0.22351  0.81142  1.0000
  H   H1153     1.0  0.75974  0.08259  0.91602  1.0000
  H   H1154     1.0  0.81506  0.21725  0.78619  1.0000
  H   H1155     1.0  0.82088  0.47931  0.92819  1.0000
  H   H1156     1.0  0.83041  0.21676  0.82334  1.0000
  H   H1157     1.0  0.84721  0.28504  0.83035  1.0000
  H   H1158     1.0  0.86320  0.44914  0.98605  1.0000
  H   H1159     1.0  0.94291  0.38287  0.93791  1.0000
  C   C683      1.0  0.72393  0.03564  0.76049  1.0000
  C   C684      1.0  0.67546  0.13045  0.78142  1.0000
  H   H1160     1.0  0.67481  0.06144  0.70741  1.0000
  C   C685      1.0  0.98745  0.44298  0.80610  1.0000
  H   H1161     1.0  0.74715  0.08526  0.96979  1.0000
  H   H1162     1.0  0.77835  0.08030  0.87028  1.0000
  C   C686      1.0  0.81620  0.24616  0.81104  1.0000
  N   N49       1.0  0.77876  0.05740  0.93273  1.0000
  C   C687      1.0  0.78879  0.05387  0.89919  1.0000
  C   C688      1.0  0.92493  0.46909  0.85588  1.0000
  H   H1163     1.0  0.79227  0.42932  0.85894  1.0000
  C   C689      1.0  0.75850  0.06767  0.92672  1.0000
  C   C690      1.0  0.79244  0.07249  0.87877  1.0000
  C   C691      1.0  0.76548  0.02284  0.93110  1.0000
  H   H1164     1.0  0.68375  0.16555  0.67509  1.0000
  H   H1165     1.0  0.67642  0.09058  0.76603  1.0000
  H   H1166     1.0  0.82775  0.30339  0.82114  1.0000
  H   H1167     1.0  0.81814  0.25061  0.83749  1.0000
  C   C692      1.0  0.68368  0.12950  0.74926  1.0000
  H   H1168     1.0  0.79493  0.45865  0.93355  1.0000
  H   H1169     1.0  0.82217  0.28223  0.84450  1.0000
  H   H1170     1.0  0.85452  0.21768  0.78821  1.0000
  H   H1171     1.0  0.90252  0.17753  0.58874  1.0000
  H   H1172     1.0  0.98061  0.23682  0.73098  1.0000
  C   C693      1.0  0.82896  0.24902  0.75257  1.0000
  C   C694      1.0  0.85194  0.24993  0.80042  1.0000
  C   C695      1.0  0.73587  0.13484  0.98050  1.0000
  H   H1173     1.0  0.86157  0.26174  0.79317  1.0000
  H   H1174     1.0  0.84007  0.25601  0.73698  1.0000
  C   C696      1.0  0.96774  0.41166  0.95325  1.0000
  N   N50       1.0  0.83096  0.25511  0.78859  1.0000
  H   H1175     1.0  0.69846  0.08860  0.83116  1.0000
  H   H1176     1.0  0.98468  0.40770  0.72248  1.0000
  H   H1177     1.0  0.92242  0.39945  0.92938  1.0000
  H   H1178     1.0  0.73890  0.08700  0.73656  1.0000
  C   C697      1.0  0.99417  0.38669  0.78340  1.0000
  C   C698      1.0  0.80853  0.25398  0.73636  1.0000
  H   H1179     1.0  0.91561  0.36374  0.93615  1.0000
  H   H1180     1.0  0.70492  0.04915  0.72328  1.0000
  H   H1181     1.0  0.85250  0.24910  0.82824  1.0000
  H   H1182     1.0  0.97912  0.17793  0.66481  1.0000
  N   N51       1.0  0.69849  0.06569  0.76942  1.0000
  H   H1183     1.0  0.86713  0.23276  0.75999  1.0000
  H   H1184     1.0  0.98208  0.29789  0.66778  1.0000
  H   H1185     1.0  0.87695  0.22753  0.80063  1.0000
  H   H1186     1.0  0.80412  0.43925  0.80577  1.0000
  C   C699      1.0  0.93145  0.29973  0.63842  1.0000
  H   H1187     1.0  0.79674  0.24657  0.74929  1.0000
  H   H1188     1.0  0.80125  0.08283  0.89247  1.0000
  H   H1189     1.0  0.83239  0.23293  0.74919  1.0000
  C   C700      1.0  0.79130  0.07028  0.95314  1.0000
  H   H1190     1.0  0.80455  0.27009  0.73465  1.0000
  H   H1191     1.0  0.80073  0.46164  0.82908  1.0000
  H   H1192     1.0  0.80909  0.24841  0.71022  1.0000
  H   H1193     1.0  0.95586  0.46388  0.84403  1.0000
  H   H1194     1.0  0.70948  0.05372  0.81690  1.0000
  C   C701      1.0  0.67148  0.12754  0.72113  1.0000
  C   C702      1.0  0.78942  0.06931  0.99159  1.0000
  H   H1195     1.0  0.67067  0.18916  0.68074  1.0000
  C   C703      1.0  0.79316  0.45483  0.90667  1.0000
  H   H1196     1.0  0.97927  0.28268  0.70295  1.0000
  C   C704      1.0  0.80741  0.43447  0.85938  1.0000
  H   H1197     1.0  0.99229  0.37104  0.77754  1.0000
  H   H1198     1.0  0.67806  0.12666  0.69644  1.0000
  H   H1199     1.0  0.68491  0.04854  0.80766  1.0000
  C   C705      1.0  0.69546  0.06018  0.80561  1.0000
  H   H1200     1.0  0.72711  0.02288  0.74340  1.0000
  H   H1201     1.0  0.77206  0.01783  0.90681  1.0000
  H   H1202     1.0  0.78830  0.08606  0.94597  1.0000
  H   H1203     1.0  0.67315  0.08419  0.82164  1.0000
  H   H1204     1.0  0.81004  0.39942  0.93819  1.0000
  H   H1205     1.0  0.91993  0.46318  0.83179  1.0000
  H   H1206     1.0  0.96328  0.28138  0.66714  1.0000
  C   C706      1.0  0.86263  0.43331  0.98679  1.0000
  H   H1207     1.0  0.80733  0.06659  0.94779  1.0000
  C   C707      1.0  0.94184  0.48908  0.79659  1.0000
  H   H1208     1.0  0.96726  0.40143  0.93178  1.0000
  H   H1209     1.0  0.92543  0.45661  0.87388  1.0000
  H   H1210     1.0  0.92036  0.36522  0.98015  1.0000
  H   H1211     1.0  0.76500  0.00936  0.94666  1.0000
  H   H1212     1.0  0.72912  0.07192  0.94866  1.0000
  C   C708      1.0  0.87558  0.49330  0.82690  1.0000
  C   C709      1.0  0.94578  0.47640  0.85333  1.0000
  C   C710      1.0  0.99154  0.43729  0.83910  1.0000
  C   C711      1.0  0.99378  0.24522  0.65053  1.0000
  N   N52       1.0  0.93434  0.40307  0.97901  1.0000
  H   H1213     1.0  0.85974  0.37671  0.98935  1.0000
  H   H1214     1.0  0.83951  0.27434  0.49967  1.0000
  H   H1215     1.0  0.97497  0.42466  0.94388  1.0000
  C   C712      1.0  0.91569  0.37400  0.95778  1.0000
  C   C713      1.0  0.88528  0.49389  0.79605  1.0000
  H   H1216     1.0  0.94996  0.42916  0.98721  1.0000
  H   H1217     1.0  0.95065  0.47865  0.87935  1.0000
  H   H1218     1.0  0.97745  0.40509  0.97330  1.0000
  C   C714      1.0  0.66876  0.17327  0.67835  1.0000
  H   H1219     1.0  0.99052  0.43051  0.67842  1.0000
  H   H1220     1.0  0.90022  0.38030  0.96114  1.0000
  H   H1221     1.0  0.98449  0.48039  0.86858  1.0000
  H   H1222     1.0  0.91380  0.48062  0.86543  1.0000
  C   C715      1.0  0.98129  0.49633  0.86283  1.0000
  Fe  Fe105     1.0  0.89075  0.61335  0.11178  1.0000
  S   S209      1.0  0.86899  0.61114  0.15427  1.0000
  S   S210      1.0  0.88842  0.63098  0.06377  1.0000
  Fe  Fe106     1.0  0.92399  0.59144  0.14997  1.0000
  S   S211      1.0  0.90539  0.58719  0.19519  1.0000
  S   S212      1.0  0.95600  0.58026  0.14946  1.0000
  Fe  Fe107     1.0  0.88258  0.57953  0.15803  1.0000
  S   S213      1.0  0.86389  0.55347  0.16399  1.0000
  Fe  Fe108     1.0  0.89366  0.61910  0.18826  1.0000
  S   S214      1.0  0.89457  0.63841  0.23545  1.0000
  S   S215      1.0  0.90227  0.58145  0.11309  1.0000
  S   S216      1.0  0.91418  0.62351  0.14560  1.0000
  Fe  Fe109     1.0  0.76746  0.89523  0.18488  1.0000
  S   S217      1.0  0.73526  0.89324  0.17052  1.0000
  S   S218      1.0  0.78564  0.86590  0.19865  1.0000
  Fe  Fe110     1.0  0.76417  0.94019  0.17245  1.0000
  S   S219      1.0  0.73233  0.94093  0.15871  1.0000
  S   S220      1.0  0.78066  0.96800  0.16839  1.0000
  Fe  Fe111     1.0  0.72900  0.92039  0.20190  1.0000
  S   S221      1.0  0.70381  0.92823  0.23887  1.0000
  Fe  Fe112     1.0  0.74080  0.91389  0.12778  1.0000
  S   S222      1.0  0.72371  0.91629  0.07819  1.0000
  S   S223      1.0  0.76070  0.92155  0.21855  1.0000
  S   S224      1.0  0.77323  0.91401  0.13943  1.0000
  Fe  Fe113     1.0  0.88537  0.77213  0.37546  1.0000
  S   S225      1.0  0.89425  0.79999  0.35091  1.0000
  S   S226      1.0  0.89247  0.76644  0.43153  1.0000
  Fe  Fe114     1.0  0.87746  0.75299  0.30650  1.0000
  S   S227      1.0  0.88578  0.77993  0.27874  1.0000
  S   S228      1.0  0.86767  0.72882  0.27119  1.0000
  Fe  Fe115     1.0  0.91130  0.77988  0.31459  1.0000
  S   S229      1.0  0.94213  0.78116  0.29215  1.0000
  Fe  Fe116     1.0  0.86774  0.79803  0.31678  1.0000
  S   S230      1.0  0.84907  0.82762  0.30570  1.0000
  S   S231      1.0  0.90398  0.75203  0.34014  1.0000
  S   S232      1.0  0.85782  0.77113  0.34350  1.0000
  C   C716      1.0  0.88161  0.77064  0.47201  1.0000
  H   H1223     1.0  0.81422  0.60950  0.24083  1.0000
  C   C717      1.0  0.86260  0.77994  0.47676  1.0000
  H   H1224     1.0  0.84546  0.57575  0.30913  1.0000
  H   H1225     1.0  0.85388  0.78486  0.45523  1.0000
  C   C718      1.0  0.73203  0.91378  0.03587  1.0000
  C   C719      1.0  0.74879  0.90151  0.02688  1.0000
  H   H1226     1.0  0.75287  0.94297  0.07836  1.0000
  H   H1227     1.0  0.75750  0.89366  0.04606  1.0000
  H   H1228     1.0  0.91753  0.50506  0.11542  1.0000
  C   C720      1.0  0.74810  0.99548  0.17318  1.0000
  H   H1229     1.0  0.93074  0.69513  0.16291  1.0000
  H   H1230     1.0  0.96169  0.66760  0.25372  1.0000
  H   H1231     1.0  0.73573  0.97015  0.00885  1.0000
  C   C721      1.0  0.97259  0.63090  0.10955  1.0000
  H   H1232     1.0  0.93745  0.65756  0.15754  1.0000
  H   H1233     1.0  0.87286  0.54382  0.04712  1.0000
  H   H1234     1.0  0.87773  0.87536  0.22736  1.0000
  H   H1235     1.0  0.82442  0.57651  0.28259  1.0000
  C   C722      1.0  0.80400  0.85589  0.22785  1.0000
  C   C723      1.0  0.81071  0.83570  0.22585  1.0000
  C   C724      1.0  0.82456  0.82684  0.24901  1.0000
  C   C725      1.0  0.83188  0.83799  0.27491  1.0000
  C   C726      1.0  0.82534  0.85823  0.27669  1.0000
  C   C727      1.0  0.81161  0.86713  0.25338  1.0000
  H   H1236     1.0  0.80505  0.82676  0.20631  1.0000
  H   H1237     1.0  0.82934  0.81130  0.24705  1.0000
  H   H1238     1.0  0.83084  0.86711  0.29648  1.0000
  H   H1239     1.0  0.80676  0.88264  0.25543  1.0000
  C   C728      1.0  0.88248  0.61980  0.02572  1.0000
  C   C729      1.0  0.86888  0.60549  0.02450  1.0000
  C   C730      1.0  0.75431  0.95906  0.07844  1.0000
  H   H1240     1.0  0.86255  0.60037  0.04745  1.0000
  C   C731      1.0  0.99639  0.81070  0.33012  1.0000
  C   C732      1.0  0.87388  0.52899  0.17248  1.0000
  C   C733      1.0  0.86129  0.51364  0.17199  1.0000
  H   H1241     1.0  0.78858  0.99021  0.09800  1.0000
  H   H1242     1.0  0.68528  0.95275  0.18260  1.0000
  C   C734      1.0  0.68187  0.92783  0.14947  1.0000
  C   C735      1.0  0.89394  0.52448  0.17964  1.0000
  H   H1243     1.0  0.84573  0.51697  0.16677  1.0000
  C   C736      1.0  0.72078  0.92362  0.01036  1.0000
  C   C737      1.0  0.77494  0.99631  0.08517  1.0000
  H   H1244     1.0  0.90381  0.53615  0.18030  1.0000
  C   C738      1.0  0.88823  0.66406  0.24336  1.0000
  C   C739      1.0  0.89513  0.67253  0.27280  1.0000
  C   C740      1.0  0.88973  0.69249  0.28108  1.0000
  C   C741      1.0  0.87689  0.70419  0.26037  1.0000
  C   C742      1.0  0.87019  0.69574  0.23073  1.0000
  C   C743      1.0  0.87596  0.67592  0.22206  1.0000
  H   H1245     1.0  0.90453  0.66354  0.28964  1.0000
  H   H1246     1.0  0.89492  0.69865  0.30406  1.0000
  H   H1247     1.0  0.86022  0.70457  0.21453  1.0000
  H   H1248     1.0  0.87043  0.66972  0.19939  1.0000
  C   C744      1.0  0.96114  0.80569  0.33488  1.0000
  C   C745      1.0  0.96289  0.79195  0.30877  1.0000
  C   C746      1.0  0.98153  0.78740  0.29389  1.0000
  H   H1249     1.0  0.94688  0.80941  0.34642  1.0000
  H   H1250     1.0  0.98302  0.77685  0.27360  1.0000
  C   C747      1.0  0.96993  0.59961  0.13770  1.0000
  C   C748      1.0  0.96190  0.61465  0.11664  1.0000
  H   H1251     1.0  0.76116  0.94075  0.02115  1.0000
  H   H1252     1.0  0.94748  0.61374  0.10567  1.0000
  H   H1253     1.0  0.99747  0.66222  0.19288  1.0000
  H   H1254     1.0  0.91620  0.69076  0.20033  1.0000
  H   H1255     1.0  0.82010  0.60867  0.19750  1.0000
  H   H1256     1.0  0.99524  0.52994  0.21324  1.0000
  H   H1257     1.0  0.88692  0.61266  0.29445  1.0000
  H   H1258     1.0  0.89376  0.88165  0.19442  1.0000
  H   H1259     1.0  0.99518  0.58891  0.16695  1.0000
  H   H1260     1.0  0.87929  0.86126  0.18929  1.0000
  H   H1261     1.0  0.83566  0.62102  0.22448  1.0000
  N   N53       1.0  0.73922  0.86474  0.27927  1.0000
  C   C749      1.0  0.73123  0.88604  0.27525  1.0000
  C   C750      1.0  0.73791  0.85510  0.24544  1.0000
  C   C751      1.0  0.76067  0.86456  0.28920  1.0000
  C   C752      1.0  0.72728  0.85539  0.30597  1.0000
  C   C753      1.0  0.73340  0.89960  0.30576  1.0000
  C   C754      1.0  0.71694  0.85537  0.23058  1.0000
  C   C755      1.0  0.77212  0.84420  0.29379  1.0000
  C   C756      1.0  0.72708  0.83263  0.30521  1.0000
  H   H1262     1.0  0.73838  0.89295  0.25363  1.0000
  H   H1263     1.0  0.71514  0.88718  0.26943  1.0000
  H   H1264     1.0  0.74424  0.83957  0.24535  1.0000
  H   H1265     1.0  0.74716  0.86241  0.22690  1.0000
  H   H1266     1.0  0.76892  0.87287  0.27047  1.0000
  H   H1267     1.0  0.76222  0.87219  0.31352  1.0000
  H   H1268     1.0  0.73233  0.85954  0.33131  1.0000
  H   H1269     1.0  0.71148  0.86135  0.30453  1.0000
  H   H1270     1.0  0.74890  0.90329  0.30883  1.0000
  H   H1271     1.0  0.72444  0.91383  0.30146  1.0000
  H   H1272     1.0  0.72792  0.89328  0.32921  1.0000
  H   H1273     1.0  0.70602  0.85040  0.24866  1.0000
  H   H1274     1.0  0.80199  0.96085  0.05227  1.0000
  H   H1275     1.0  0.71731  0.84533  0.20863  1.0000
  H   H1276     1.0  0.76631  0.83599  0.31507  1.0000
  H   H1277     1.0  0.78767  0.84640  0.30033  1.0000
  H   H1278     1.0  0.77282  0.83525  0.27060  1.0000
  H   H1279     1.0  0.72796  0.82693  0.33128  1.0000
  H   H1280     1.0  0.73931  0.82457  0.29131  1.0000
  H   H1281     1.0  0.71277  0.82837  0.29532  1.0000
  C   C757      1.0  0.83015  0.60443  0.30499  1.0000
  H   H1282     1.0  0.81501  0.60329  0.31502  1.0000
  H   H1283     1.0  0.82918  0.61731  0.28808  1.0000
  H   H1284     1.0  0.83933  0.60753  0.32704  1.0000
  H   H1285     1.0  0.90938  0.68174  0.16077  1.0000
  H   H1286     1.0  0.72403  0.95959  0.05909  1.0000
  H   H1287     1.0  0.98306  0.54576  0.16654  1.0000
  H   H1288     1.0  0.67526  0.92563  0.05890  1.0000
  H   H1289     1.0  0.85528  0.52647  0.05866  1.0000
  H   H1290     1.0  0.71182  0.87028  0.22128  1.0000
  N   N54       1.0  0.95344  0.66500  0.20183  1.0000
  C   C758      1.0  0.96246  0.64397  0.20486  1.0000
  H   H1291     1.0  0.73255  0.98394  0.06313  1.0000
  H   H1292     1.0  0.99284  0.76065  0.40296  1.0000
  C   C759      1.0  0.94960  0.67326  0.23654  1.0000
  C   C760      1.0  0.94983  0.62926  0.22265  1.0000
  H   H1293     1.0  0.93602  0.70042  0.25876  1.0000
  H   H1294     1.0  0.76207  0.99555  0.10211  1.0000
  C   C761      1.0  0.67348  0.90030  0.11402  1.0000
  H   H1295     1.0  0.96630  0.63773  0.17972  1.0000
  C   C762      1.0  0.99825  0.79655  0.30472  1.0000
  H   H1296     1.0  0.70772  0.93307  0.01689  1.0000
  C   C763      1.0  0.68160  0.88347  0.13748  1.0000
  H   H1297     1.0  0.84950  0.50680  0.10303  1.0000
  H   H1298     1.0  0.95909  0.61521  0.22691  1.0000
  C   C764      1.0  0.67977  0.92080  0.24731  1.0000
  C   C765      1.0  0.98861  0.67655  0.19664  1.0000
  C   C766      1.0  0.89244  0.50701  0.00496  1.0000
  H   H1299     1.0  0.93732  0.62539  0.20694  1.0000
  H   H1300     1.0  0.69186  0.88851  0.15651  1.0000
  H   H1301     1.0  0.69591  0.92529  0.13504  1.0000
  C   C767      1.0  0.78947  0.95451  0.06539  1.0000
  H   H1302     1.0  0.73915  0.98312  0.17204  1.0000
  H   H1303     1.0  0.93251  0.81774  0.49649  1.0000
  C   C768      1.0  0.76870  0.99222  0.17239  1.0000
  H   H1304     1.0  0.91668  0.50151  0.19237  1.0000
  H   H1305     1.0  0.68301  0.89327  0.22060  1.0000
  C   C769      1.0  0.92235  0.68439  0.17655  1.0000
  H   H1306     1.0  0.79171  0.95741  0.09252  1.0000
  N   N55       1.0  0.90066  0.83890  0.24458  1.0000
  C   C770      1.0  0.91697  0.82239  0.24199  1.0000
  C   C771      1.0  0.88149  0.83054  0.23556  1.0000
  C   C772      1.0  0.89956  0.84540  0.28071  1.0000
  C   C773      1.0  0.90550  0.85557  0.22179  1.0000
  C   C774      1.0  0.93785  0.82754  0.25229  1.0000
  C   C775      1.0  0.88122  0.81994  0.20146  1.0000
  C   C776      1.0  0.88441  0.86282  0.28926  1.0000
  C   C777      1.0  0.88793  0.86905  0.20781  1.0000
  H   H1307     1.0  0.91337  0.80950  0.25738  1.0000
  H   H1308     1.0  0.91856  0.81683  0.21587  1.0000
  H   H1309     1.0  0.86883  0.84198  0.23592  1.0000
  H   H1310     1.0  0.87760  0.81964  0.25469  1.0000
  H   H1311     1.0  0.89632  0.83279  0.29714  1.0000
  H   H1312     1.0  0.91394  0.85012  0.28941  1.0000
  H   H1313     1.0  0.91549  0.86527  0.23471  1.0000
  H   H1314     1.0  0.91398  0.84980  0.19943  1.0000
  H   H1315     1.0  0.93930  0.82838  0.27988  1.0000
  H   H1316     1.0  0.94885  0.81544  0.24408  1.0000
  H   H1317     1.0  0.94210  0.84132  0.24060  1.0000
  H   H1318     1.0  0.86564  0.81850  0.19405  1.0000
  H   H1319     1.0  0.88844  0.82799  0.18137  1.0000
  H   H1320     1.0  0.88854  0.80473  0.20335  1.0000
  H   H1321     1.0  0.86939  0.86084  0.28001  1.0000
  H   H1322     1.0  0.88944  0.87694  0.28003  1.0000
  H   H1323     1.0  0.88318  0.86410  0.31692  1.0000
  H   H1324     1.0  0.96613  0.64279  0.09405  1.0000
  H   H1325     1.0  0.95785  0.52316  0.15395  1.0000
  C   C778      1.0  0.88618  0.51982  0.07892  1.0000
  C   C779      1.0  0.96771  0.67614  0.18173  1.0000
  H   H1326     1.0  0.94907  0.62062  0.02009  1.0000
  C   C780      1.0  0.83761  0.58447  0.28881  1.0000
  C   C781      1.0  0.82675  0.60814  0.22291  1.0000
  C   C782      1.0  0.79277  0.93188  0.06078  1.0000
  C   C783      1.0  0.93445  0.66452  0.18250  1.0000
  C   C784      1.0  0.99161  0.63172  0.12250  1.0000
  H   H1327     1.0  0.94423  0.63465  0.24735  1.0000
  C   C785      1.0  0.98910  0.62651  0.02023  1.0000
  H   H1328     1.0  0.87391  0.60175  0.23788  1.0000
  H   H1329     1.0  0.85769  0.61596  0.26388  1.0000
  H   H1330     1.0  0.78401  0.98911  0.03441  1.0000
  H   H1331     1.0  0.93581  0.66789  0.24705  1.0000
  C   C786      1.0  0.73320  0.96903  0.07415  1.0000
  H   H1332     1.0  0.86210  0.53385  0.25116  1.0000
  H   H1333     1.0  0.67165  0.94700  0.27620  1.0000
  C   C787      1.0  0.83921  0.58830  0.22689  1.0000
  N   N56       1.0  0.85101  0.58521  0.25869  1.0000
  H   H1334     1.0  0.82860  0.57685  0.22399  1.0000
  H   H1335     1.0  0.84921  0.58668  0.20474  1.0000
  H   H1336     1.0  0.75899  0.96182  0.10461  1.0000
  H   H1337     1.0  0.80594  0.92615  0.07539  1.0000
  C   C788      1.0  0.86527  0.60097  0.26143  1.0000
  H   H1338     1.0  0.94420  0.70453  0.21744  1.0000
  N   N57       1.0  0.76979  0.96413  0.05347  1.0000
  H   H1339     1.0  0.84105  0.54554  0.27238  1.0000
  H   H1340     1.0  0.87258  0.56251  0.27787  1.0000
  H   H1341     1.0  0.97696  0.50984  0.17720  1.0000
  H   H1342     1.0  0.92407  0.65536  0.19555  1.0000
  H   H1343     1.0  0.99740  0.77419  0.46300  1.0000
  H   H1344     1.0  0.97688  0.63378  0.03560  1.0000
  C   C789      1.0  0.85148  0.54723  0.25139  1.0000
  C   C790      1.0  0.77163  0.98603  0.05150  1.0000
  C   C791      1.0  0.67327  0.90305  0.23564  1.0000
  C   C792      1.0  0.98649  0.53457  0.14658  1.0000
  H   H1345     1.0  0.78011  0.92404  0.06963  1.0000
  C   C793      1.0  0.86317  0.56560  0.25544  1.0000
  H   H1346     1.0  0.89960  0.52685  0.07057  1.0000
  H   H1347     1.0  0.97501  0.50620  0.13253  1.0000
  C   C794      1.0  0.97780  0.81515  0.34526  1.0000
  H   H1348     1.0  0.96959  0.66971  0.15611  1.0000
  H   H1349     1.0  0.89256  0.58734  0.28424  1.0000
  C   C795      1.0  0.88020  0.59851  0.29048  1.0000
  H   H1350     1.0  0.75840  0.99410  0.04034  1.0000
  H   H1351     1.0  0.88643  0.52043  0.10674  1.0000
  H   H1352     1.0  0.97660  0.64331  0.21898  1.0000
  H   H1353     1.0  0.86317  0.54355  0.08818  1.0000
  H   H1354     1.0  0.87361  0.56581  0.23385  1.0000
  C   C796      1.0  0.94793  0.69601  0.24038  1.0000
  H   H1355     1.0  0.68865  0.95841  0.13994  1.0000
  H   H1356     1.0  0.98832  0.68047  0.22354  1.0000
  C   C797      1.0  0.90122  0.50482  0.18638  1.0000
  H   H1357     1.0  0.87322  0.59456  0.31435  1.0000
  H   H1358     1.0  0.97622  0.82612  0.36486  1.0000
  H   H1359     1.0  0.84350  0.54714  0.22725  1.0000
  H   H1360     1.0  0.96169  0.70099  0.25131  1.0000
  C   C798      1.0  0.67136  0.93818  0.07611  1.0000
  H   H1361     1.0  0.98073  0.54180  0.12320  1.0000
  C   C799      1.0  0.76584  0.95599  0.01915  1.0000
  C   C800      1.0  0.86830  0.53375  0.06706  1.0000
  H   H1362     1.0  0.96207  0.69164  0.17724  1.0000
  C   C801      1.0  0.98898  0.60038  0.15039  1.0000
  H   H1363     1.0  0.72619  0.97115  0.09920  1.0000
  H   H1364     1.0  0.68467  0.91999  0.17360  1.0000
  H   H1365     1.0  0.79578  0.92787  0.03421  1.0000
  C   C802      1.0  0.97363  0.51726  0.15294  1.0000
  C   C803      1.0  0.67940  0.95025  0.15716  1.0000
  H   H1366     1.0  0.69008  0.87193  0.12234  1.0000
  H   H1367     1.0  0.66949  0.87622  0.14989  1.0000
  H   H1368     1.0  0.68595  0.90300  0.09699  1.0000
  H   H1369     1.0  0.90722  0.75685  0.49717  1.0000
  H   H1370     1.0  0.77970  0.95470  0.00395  1.0000
  H   H1371     1.0  0.99661  0.68774  0.18312  1.0000
  H   H1372     1.0  0.98081  0.59650  0.03143  1.0000
  H   H1373     1.0  0.89459  0.52243  0.01202  1.0000
  H   H1374     1.0  0.68512  0.94328  0.08660  1.0000
  H   H1375     1.0  0.99692  0.60632  0.06098  1.0000
  C   C804      1.0  0.99361  0.60547  0.03382  1.0000
  H   H1376     1.0  0.99852  0.66524  0.00761  1.0000
  N   N58       1.0  0.88728  0.49863  0.06727  1.0000
  H   H1377     1.0  0.86493  0.50155  0.02803  1.0000
  H   H1378     1.0  0.91819  0.49812  0.05280  1.0000
  H   H1379     1.0  0.90701  0.49885  0.99995  1.0000
  H   H1380     1.0  0.99867  0.56626  0.10903  1.0000
  C   C805      1.0  0.66685  0.93324  0.26697  1.0000
  Fe  Fe117     1.0  0.86870  0.78244  0.63034  1.0000
  S   S233      1.0  0.87300  0.81255  0.65109  1.0000
  S   S234      1.0  0.85483  0.77950  0.57844  1.0000
  Fe  Fe118     1.0  0.88389  0.76142  0.69493  1.0000
  S   S235      1.0  0.88960  0.79026  0.71967  1.0000
  S   S236      1.0  0.89558  0.73191  0.71902  1.0000
  Fe  Fe119     1.0  0.85983  0.80248  0.69927  1.0000
  S   S237      1.0  0.83665  0.81991  0.73342  1.0000
  Fe  Fe120     1.0  0.90223  0.79847  0.66993  1.0000
  S   S238      1.0  0.92902  0.81536  0.65786  1.0000
  S   S239      1.0  0.85348  0.77288  0.67745  1.0000
  S   S240      1.0  0.89858  0.76911  0.64618  1.0000
  Fe  Fe121     1.0  0.74296  0.91752  0.87396  1.0000
  S   S241      1.0  0.76951  0.93242  0.85644  1.0000
  S   S242      1.0  0.74794  0.90174  0.92460  1.0000
  Fe  Fe122     1.0  0.71980  0.92815  0.80824  1.0000
  S   S243      1.0  0.74542  0.94370  0.78827  1.0000
  S   S244      1.0  0.69459  0.93197  0.76927  1.0000
  Fe  Fe123     1.0  0.76528  0.91742  0.80670  1.0000
  S   S245      1.0  0.78998  0.90406  0.77087  1.0000
  Fe  Fe124     1.0  0.74738  0.95702  0.83950  1.0000
  C   C806      1.0  0.99662  0.63767  0.84249  1.0000
  S   S246      1.0  0.73963  0.90134  0.82465  1.0000
  S   S247      1.0  0.72093  0.94262  0.85898  1.0000
  Fe  Fe125     1.0  0.87914  0.60252  0.87857  1.0000
  S   S248      1.0  0.86681  0.60032  0.82663  1.0000
  S   S249      1.0  0.86065  0.59845  0.92478  1.0000
  Fe  Fe126     1.0  0.92001  0.60772  0.85284  1.0000
  S   S250      1.0  0.91128  0.60591  0.79870  1.0000
  S   S251      1.0  0.94980  0.61087  0.87547  1.0000
  Fe  Fe127     1.0  0.88456  0.62611  0.81379  1.0000
  S   S252      1.0  0.86829  0.65246  0.78592  1.0000
  Fe  Fe128     1.0  0.89439  0.58047  0.81598  1.0000
  S   S253      1.0  0.89731  0.55133  0.78727  1.0000
  S   S254      1.0  0.89471  0.62945  0.86700  1.0000
  S   S255      1.0  0.90530  0.58103  0.86871  1.0000
  C   C807      1.0  0.88830  0.52934  0.80273  1.0000
  C   C808      1.0  0.89141  0.51187  0.78390  1.0000
  C   C809      1.0  0.98879  0.81463  0.66875  1.0000
  C   C810      1.0  0.85810  0.69207  0.86893  1.0000
  C   C811      1.0  0.87223  0.51082  0.84551  1.0000
  C   C812      1.0  0.87872  0.52870  0.83370  1.0000
  H   H1381     1.0  0.89858  0.51226  0.75972  1.0000
  H   H1382     1.0  0.82458  0.62189  0.84655  1.0000
  C   C813      1.0  0.90357  0.81694  0.53440  1.0000
  H   H1383     1.0  0.87617  0.54203  0.84842  1.0000
  C   C814      1.0  0.88746  0.71022  0.73837  1.0000
  C   C815      1.0  0.90175  0.69567  0.75035  1.0000
  C   C816      1.0  0.89623  0.67809  0.76530  1.0000
  C   C817      1.0  0.87626  0.67465  0.76822  1.0000
  C   C818      1.0  0.86195  0.68922  0.75629  1.0000
  C   C819      1.0  0.86747  0.70690  0.74165  1.0000
  H   H1384     1.0  0.91727  0.69798  0.74805  1.0000
  H   H1385     1.0  0.90747  0.66711  0.77424  1.0000
  H   H1386     1.0  0.84646  0.68681  0.75842  1.0000
  H   H1387     1.0  0.85625  0.71794  0.73300  1.0000
  C   C820      1.0  0.82334  0.84338  0.74265  1.0000
  C   C821      1.0  0.82568  0.86048  0.72397  1.0000
  C   C822      1.0  0.81537  0.87872  0.73299  1.0000
  C   C823      1.0  0.80230  0.88031  0.76057  1.0000
  C   C824      1.0  0.79962  0.86314  0.77885  1.0000
  C   C825      1.0  0.81012  0.84493  0.77004  1.0000
  H   H1388     1.0  0.83541  0.85968  0.70250  1.0000
  H   H1389     1.0  0.81754  0.89177  0.71841  1.0000
  H   H1390     1.0  0.78972  0.86394  0.80015  1.0000
  H   H1391     1.0  0.80804  0.83192  0.78479  1.0000
  H   H1392     1.0  0.86452  0.51059  0.86922  1.0000
  H   H1393     1.0  0.99168  0.55643  0.80951  1.0000
  H   H1394     1.0  0.83170  0.64372  0.82743  1.0000
  H   H1395     1.0  0.91804  0.78349  0.55838  1.0000
  H   H1396     1.0  0.89075  0.62461  0.94187  1.0000
  H   H1397     1.0  0.97095  0.60046  0.97805  1.0000
  H   H1398     1.0  0.88513  0.67966  0.59195  1.0000
  H   H1399     1.0  0.84584  0.70237  0.87836  1.0000
  C   C826      1.0  0.96032  0.62843  0.81682  1.0000
  C   C827      1.0  0.96530  0.62369  0.84997  1.0000
  C   C828      1.0  0.98329  0.62864  0.86290  1.0000
  H   H1400     1.0  0.94631  0.62495  0.80683  1.0000
  C   C829      1.0  0.99217  0.59411  0.75938  1.0000
  C   C830      1.0  0.96924  0.81810  0.65684  1.0000
  C   C831      1.0  0.95352  0.80947  0.67255  1.0000
  C   C832      1.0  0.95754  0.79727  0.70031  1.0000
  H   H1401     1.0  0.96631  0.82771  0.63556  1.0000
  H   H1402     1.0  0.94561  0.79062  0.71279  1.0000
  C   C833      1.0  0.88478  0.76712  0.53311  1.0000
  C   C834      1.0  0.86580  0.77644  0.53784  1.0000
  S   S256      1.0  0.74559  0.98904  0.85801  1.0000
  H   H1403     1.0  0.89326  0.76171  0.55452  1.0000
  C   C835      1.0  0.99225  0.64126  0.80879  1.0000
  H   H1404     1.0  0.88514  0.80810  0.57659  1.0000
  C   C836      1.0  0.74228  0.90801  0.96717  1.0000
  C   C837      1.0  0.72600  0.92097  0.97627  1.0000
  H   H1405     1.0  0.94068  0.63651  0.98544  1.0000
  H   H1406     1.0  0.71694  0.92827  0.95696  1.0000
  H   H1407     1.0  0.67211  0.94525  0.71157  1.0000
  C   C838      1.0  0.87036  0.60558  0.96343  1.0000
  H   H1408     1.0  0.85631  0.67706  0.92897  1.0000
  H   H1409     1.0  0.90014  0.80398  0.51908  1.0000
  N   N59       1.0  0.86198  0.71489  0.61409  1.0000
  C   C839      1.0  0.84371  0.72814  0.62304  1.0000
  H   H1410     1.0  0.92856  0.84960  0.52273  1.0000
  C   C840      1.0  0.87662  0.71627  0.64218  1.0000
  C   C841      1.0  0.85633  0.69400  0.61023  1.0000
  C   C842      1.0  0.83401  0.72402  0.65704  1.0000
  C   C843      1.0  0.87045  0.72298  0.58250  1.0000
  C   C844      1.0  0.92898  0.83133  0.56881  1.0000
  H   H1411     1.0  0.85377  0.65507  0.97503  1.0000
  H   H1412     1.0  0.84699  0.74393  0.62298  1.0000
  H   H1413     1.0  0.83193  0.72707  0.60397  1.0000
  N   N60       1.0  0.92419  0.81366  0.54873  1.0000
  H   H1414     1.0  0.87923  0.73196  0.64686  1.0000
  H   H1415     1.0  0.87073  0.71076  0.66610  1.0000
  H   H1416     1.0  0.85627  0.68651  0.63505  1.0000
  H   H1417     1.0  0.84573  0.73928  0.55609  1.0000
  H   H1418     1.0  0.84275  0.72925  0.67816  1.0000
  H   H1419     1.0  0.81927  0.73246  0.65842  1.0000
  H   H1420     1.0  0.83176  0.70820  0.66049  1.0000
  H   H1421     1.0  0.86470  0.66501  0.58908  1.0000
  H   H1422     1.0  0.87603  0.73764  0.58752  1.0000
  C   C845      1.0  0.96729  0.61648  0.97396  1.0000
  C   C846      1.0  0.97808  0.64967  0.97600  1.0000
  C   C847      1.0  0.99461  0.74086  0.70043  1.0000
  C   C848      1.0  0.99273  0.80296  0.69717  1.0000
  H   H1423     1.0  0.84390  0.67156  0.83878  1.0000
  H   H1424     1.0  0.93955  0.50708  0.89750  1.0000
  N   N61       1.0  0.89852  0.84902  0.75281  1.0000
  C   C849      1.0  0.91720  0.84063  0.73547  1.0000
  C   C850      1.0  0.88153  0.84723  0.72903  1.0000
  C   C851      1.0  0.89587  0.83695  0.78415  1.0000
  C   C852      1.0  0.90095  0.87025  0.76147  1.0000
  C   C853      1.0  0.93626  0.83943  0.75672  1.0000
  C   C854      1.0  0.88290  0.85775  0.69498  1.0000
  C   C855      1.0  0.87452  0.83471  0.79617  1.0000
  C   C856      1.0  0.88262  0.88228  0.77584  1.0000
  H   H1425     1.0  0.91539  0.82545  0.72616  1.0000
  H   H1426     1.0  0.92052  0.84945  0.71303  1.0000
  H   H1427     1.0  0.86721  0.85287  0.74028  1.0000
  H   H1428     1.0  0.87983  0.83145  0.72368  1.0000
  H   H1429     1.0  0.90236  0.82144  0.78071  1.0000
  H   H1430     1.0  0.90408  0.84278  0.80556  1.0000
  H   H1431     1.0  0.91283  0.87124  0.78035  1.0000
  H   H1432     1.0  0.90588  0.87832  0.73914  1.0000
  H   H1433     1.0  0.94058  0.85424  0.76358  1.0000
  H   H1434     1.0  0.93516  0.83028  0.77950  1.0000
  H   H1435     1.0  0.94863  0.83232  0.74152  1.0000
  H   H1436     1.0  0.82924  0.66174  0.96071  1.0000
  C   C857      1.0  0.93801  0.80952  0.51926  1.0000
  H   H1437     1.0  0.93613  0.52487  0.82698  1.0000
  H   H1438     1.0  0.86491  0.84866  0.79681  1.0000
  H   H1439     1.0  0.87490  0.82850  0.82190  1.0000
  H   H1440     1.0  0.86747  0.82401  0.78015  1.0000
  H   H1441     1.0  0.86992  0.88322  0.75837  1.0000
  H   H1442     1.0  0.88631  0.89767  0.78025  1.0000
  H   H1443     1.0  0.87824  0.87647  0.80038  1.0000
  H   H1444     1.0  0.81059  0.66564  0.91204  1.0000
  H   H1445     1.0  0.91148  0.85876  0.55481  1.0000
  H   H1446     1.0  0.94277  0.77593  0.60312  1.0000
  H   H1447     1.0  0.76620  0.88828  0.98609  1.0000
  H   H1448     1.0  0.97631  0.59297  0.76542  1.0000
  H   H1449     1.0  0.97028  0.64024  0.77019  1.0000
  C   C858      1.0  0.83665  0.64151  0.88222  1.0000
  H   H1450     1.0  0.86682  0.68447  0.55986  1.0000
  H   H1451     1.0  0.86325  0.69804  0.84481  1.0000
  H   H1452     1.0  0.96054  0.83092  0.52333  1.0000
  H   H1453     1.0  0.94854  0.52938  0.88048  1.0000
  C   C859      1.0  0.86916  0.68027  0.58645  1.0000
  H   H1454     1.0  0.97418  0.50400  0.88465  1.0000
  H   H1455     1.0  0.80919  0.64402  0.85277  1.0000
  C   C860      1.0  0.85180  0.67111  0.86295  1.0000
  H   H1456     1.0  0.99611  0.58428  0.73794  1.0000
  H   H1457     1.0  0.74829  0.95896  0.97389  1.0000
  C   C861      1.0  0.97383  0.63722  0.79616  1.0000
  H   H1458     1.0  0.96049  0.50786  0.76667  1.0000
  H   H1459     1.0  0.82347  0.68728  0.91435  1.0000
  H   H1460     1.0  0.96844  0.80875  0.50163  1.0000
  N   N62       1.0  0.84003  0.66257  0.89069  1.0000
  H   H1461     1.0  0.87236  0.82309  0.54599  1.0000
  H   H1462     1.0  0.93531  0.51851  0.77329  1.0000
  H   H1463     1.0  0.87083  0.69181  0.88635  1.0000
  C   C862      1.0  0.89037  0.62657  0.99576  1.0000
  H   H1464     1.0  0.99385  0.60938  0.75063  1.0000
  H   H1465     1.0  0.69594  0.87948  0.67803  1.0000
  H   H1466     1.0  0.84161  0.63765  0.95160  1.0000
  H   H1467     1.0  0.86897  0.85635  0.68101  1.0000
  H   H1468     1.0  0.82853  0.63453  0.90260  1.0000
  N   N63       1.0  0.98431  0.62827  0.98343  1.0000
  H   H1469     1.0  0.90239  0.82949  0.51643  1.0000
  C   C863      1.0  0.85597  0.72579  0.55277  1.0000
  H   H1470     1.0  0.95303  0.79879  0.59676  1.0000
  C   C864      1.0  0.93672  0.51909  0.87911  1.0000
  C   C865      1.0  0.82483  0.63806  0.85027  1.0000
  H   H1471     1.0  0.96688  0.80853  0.54618  1.0000
  H   H1472     1.0  0.79310  0.68319  0.87198  1.0000
  C   C866      1.0  0.92457  0.79584  0.57129  1.0000
  H   H1473     1.0  0.85106  0.63249  0.87976  1.0000
  H   H1474     1.0  0.86554  0.66145  0.85796  1.0000
  H   H1475     1.0  0.92256  0.52707  0.88738  1.0000
  C   C867      1.0  0.82075  0.67461  0.89779  1.0000
  H   H1476     1.0  0.88447  0.87373  0.69777  1.0000
  H   H1477     1.0  0.84716  0.71300  0.54916  1.0000
  C   C868      1.0  0.85265  0.66200  0.92187  1.0000
  H   H1478     1.0  0.98699  0.62537  0.88862  1.0000
  H   H1479     1.0  0.96546  0.65527  0.99217  1.0000
  C   C869      1.0  0.80919  0.68370  0.86733  1.0000
  H   H1480     1.0  0.68673  0.89287  0.71505  1.0000
  H   H1481     1.0  0.97278  0.65136  0.94964  1.0000
  C   C870      1.0  0.97699  0.79432  0.71283  1.0000
  H   H1482     1.0  0.89494  0.85073  0.67908  1.0000
  H   H1483     1.0  0.95399  0.78021  0.56373  1.0000
  H   H1484     1.0  0.84089  0.69382  0.60088  1.0000
  H   H1485     1.0  0.89589  0.68864  0.64105  1.0000
  H   H1486     1.0  0.93774  0.86094  0.55881  1.0000
  N   N64       1.0  0.73092  0.88545  0.71418  1.0000
  C   C871      1.0  0.71613  0.90049  0.69823  1.0000
  C   C872      1.0  0.74886  0.89601  0.72289  1.0000
  C   C873      1.0  0.72176  0.87839  0.74597  1.0000
  C   C874      1.0  0.73547  0.86862  0.68995  1.0000
  C   C875      1.0  0.69535  0.89374  0.69152  1.0000
  C   C876      1.0  0.75867  0.90615  0.69341  1.0000
  C   C877      1.0  0.73451  0.86322  0.76703  1.0000
  C   C878      1.0  0.75552  0.85613  0.69425  1.0000
  H   H1487     1.0  0.71411  0.91409  0.71380  1.0000
  H   H1488     1.0  0.72163  0.90541  0.67362  1.0000
  H   H1489     1.0  0.76055  0.88610  0.73471  1.0000
  H   H1490     1.0  0.74503  0.90757  0.74218  1.0000
  H   H1491     1.0  0.71713  0.89119  0.76247  1.0000
  H   H1492     1.0  0.70806  0.87113  0.74058  1.0000
  H   H1493     1.0  0.72354  0.85835  0.69069  1.0000
  H   H1494     1.0  0.73559  0.87438  0.66385  1.0000
  C   C879      1.0  0.93424  0.51180  0.84302  1.0000
  H   H1495     1.0  0.91538  0.79913  0.59402  1.0000
  H   H1496     1.0  0.96418  0.61810  0.94664  1.0000
  H   H1497     1.0  0.76098  0.89636  0.67137  1.0000
  H   H1498     1.0  0.74991  0.92001  0.68615  1.0000
  H   H1499     1.0  0.77340  0.91036  0.70140  1.0000
  H   H1500     1.0  0.72654  0.86065  0.79076  1.0000
  H   H1501     1.0  0.74895  0.86835  0.77426  1.0000
  H   H1502     1.0  0.73660  0.84875  0.75419  1.0000
  H   H1503     1.0  0.75359  0.84059  0.68736  1.0000
  H   H1504     1.0  0.76178  0.85567  0.71974  1.0000
  H   H1505     1.0  0.76669  0.86100  0.67640  1.0000
  H   H1506     1.0  0.94414  0.82952  0.57936  1.0000
  C   C880      1.0  0.88465  0.61920  0.96475  1.0000
  H   H1507     1.0  0.88353  0.71360  0.57342  1.0000
  H   H1508     1.0  0.91845  0.50925  0.83937  1.0000
  H   H1509     1.0  0.86710  0.65331  0.91735  1.0000
  H   H1510     1.0  0.88795  0.83434  0.57487  1.0000
  C   C881      1.0  0.94493  0.78748  0.58409  1.0000
  H   H1511     1.0  0.90449  0.70797  0.61419  1.0000
  H   H1512     1.0  0.68693  0.90496  0.67572  1.0000
  H   H1513     1.0  0.90681  0.70901  0.65833  1.0000
  C   C882      1.0  0.99408  0.66424  0.98101  1.0000
  H   H1514     1.0  0.81235  0.67625  0.84313  1.0000
  C   C883      1.0  0.89698  0.70470  0.63790  1.0000
  H   H1515     1.0  0.97980  0.78545  0.73504  1.0000
  H   H1516     1.0  0.81150  0.69960  0.86477  1.0000
  C   C884      1.0  0.94483  0.50463  0.76923  1.0000
  H   H1517     1.0  0.85146  0.58821  0.99250  1.0000
  H   H1518     1.0  0.99585  0.50232  0.85899  1.0000
  C   C885      1.0  0.88655  0.82086  0.55984  1.0000
  C   C886      1.0  0.84349  0.65360  0.95373  1.0000
  H   H1519     1.0  0.91968  0.83284  0.59180  1.0000
  H   H1520     1.0  0.96993  0.51484  0.82230  1.0000
  H   H1521     1.0  0.99467  0.59084  0.81246  1.0000
  H   H1522     1.0  0.98789  0.67923  0.97351  1.0000
  H   H1523     1.0  0.99704  0.72615  0.68865  1.0000
  C   C887      1.0  0.92641  0.85125  0.55012  1.0000
  H   H1524     1.0  0.98199  0.74069  0.71818  1.0000
  C   C888      1.0  0.95961  0.81473  0.52336  1.0000
  H   H1525     1.0  0.83993  0.78968  0.51262  1.0000
  C   C889      1.0  0.85473  0.78268  0.50942  1.0000
  H   H1526     1.0  0.99041  0.75136  0.67984  1.0000
  H   H1527     1.0  0.93684  0.61106  0.98503  1.0000
  H   H1528     1.0  0.86443  0.72794  0.52938  1.0000
  H   H1529     1.0  0.93825  0.79373  0.51164  1.0000
  C   C890      1.0  0.67034  0.92725  0.75572  1.0000
  C   C891      1.0  0.89260  0.76425  0.50048  1.0000
  C   C892      1.0  0.96904  0.49928  0.83046  1.0000
  C   C893      1.0  0.75370  0.89847  0.99277  1.0000
  C   C894      1.0  0.94755  0.62173  0.99253  1.0000
  C   C895      1.0  0.86260  0.59865  0.99338  1.0000
  H   H1530     1.0  0.75563  0.98188  0.98851  1.0000
  H   H1531     1.0  0.99377  0.59814  0.92998  1.0000
  H   H1532     1.0  0.99530  0.55420  0.76598  1.0000
  H   H1533     1.0  0.90077  0.63774  0.99657  1.0000
  H   H1534     1.0  0.88418  0.50751  0.98096  1.0000
  C   C896      1.0  0.75041  0.96768  0.99695  1.0000
  H   H1535     1.0  0.94037  0.49870  0.74474  1.0000
  H   H1536     1.0  0.77215  0.99732  0.80247  1.0000
