data_image0
_chemical_formula_structural       CHCHSFeCH3CH4CSHCHCH5SH3CNCH2CSCH2SCH2CH2C2HC2H4CHNC2H2C2H4FeHCHC3H3CH2FeS2CSFeSFeS2FeHS2CNH2SC8H4NHC2H2SC2HCSH7CH6C2FeC2H3C2H2C2H6C2H5CFeH2FeHFeH5NHCH6SFeH2FeH2FeH3SH7CHCFeS2FeCFeSHS2HFeHNC2SFeHCH2CHSHC4H3SCHCFeHFeH2FeHC2HC5H3NHCHCHCH11SCFeHCH2CHC4H2SH2CHCH2CS2HNCHC2H2C3SHSH4CH5NFe2H4CHCSH3C3SC2H3FeC2H2CH2C2H2CH3CH2CHCHCSH2NC4H2CH3CH4SH2FeC2NCHNHCHCH2C2H2CH3CH2SHCH2C6HS2H3C2HC2H2SHC2HCHC3HCH4CH5S2H3CH2CH2CH10CHC2H9CNHCH3C3H4SCH2CHSFeSCFeS2FeS2HCH2FeSCSFeS2FeS2FeSFeS3H2FeS2FeS2FeSFeCS2H4CHCH4CH2C4SH2C2HC2H3C6H4C2HC6H4SC3HC2HC6H10CHSH2C3HCH2CHCH2CHNH2CHCH5C2H9C3HCH5C2H2CH3CH2CHNC8H21C2H2C2H2SC5HNH2FeC3SC2H2C3H3C2H4SFeCH2S2H5CH2SC3H4NCHCH3CHNH4C2HCNH5CH5CHCNH2NH8SCHCH5CHC2H4NHCH2NC2H3CH2C3H2C2HSCFeS2FeS2FeSFeS4CH3CHSC3H2SH3C2H5C6H4C6H3CH2C6H6C2HC2H2C2NCHFeNSHFeH5CHFeH4SH3C2H2CSH4CH4SHCH4NH2CHCH7CS2C2HCH2C3SH6SHCH2C4FeH2CH6C2HCH4C2H2CH2CH2CHCSCSHCHCH2SHC2HCHCFeS2FeS2FeHFeS3C2SHSFeSNFeSHC6H6CH2FeH2C3H6C3H2CH6CSN2CH4C2HSH2CH2C2HNC3H9CH2CH4C2HCHCH2C2H2C2H4C2H5C2H2CHC2H2C2HC2H7CHC4HCH5CSH3CH3FeSNFeSFeSFeHS2FeS2FeS2FeS2FeS2FeSFeS3HSH2SFeS2FeS2FeSFeS3HCFeH2C4H2C6H4C6H4C6H2CHC6H4C6H5C4H3C2HC6H7FeCH7CH2SC4H4CHSH2CH3CHCFeH3CHNHCHNSCHNSH2C3NC6H15NC8H14CH7CFeH12C2H4CSCHCHCH2CH4C2NSHC6H4SH2C2H4C2HCHNC8H21C3H7C2HCHSHCNCH4CHCH2CH5CH3CH3C2H7CH5CHSHCFeH2SHC2H6CHCH4FeS2FeS2FeSFeSHSFeHSFeHSHSCH2SFeHSFeS2Fe2HS2H2FeH2FeS2C6H5CH2S2C7H4CH4CHC6H4CNCHC2H2CHSH5CHCH3CH2SH9CH4CSCHCHCH3CH2CSH2SHCH3C3H2C2H5CH5CHFeH3CHC2H6CHCHNCH2CHCH2NHCH2CH2C2HC2HC4FeSHCHC2HCHSH2CHSH4SCH2CH2CH4CHNC4HC3H9CH10CHCFeSCH6CHC3H2CHSH3C2HCH3CH6CHCHCH8NC3HC3HFeS2FeSH4SNHSFeHCSHC2FeH2CNHCH4C3H2FeCH3C2H3CH3C2H2CHFeHFeHC5H3CHCH2CH4CH4C2HSCH2NH2CH6CH3CHCHCHCNCS2HCHC2H4S2CHCH3
_chemical_formula_sum              "C672 H1152 S192 Fe96 N48"
_cell_length_a       58.2635
_cell_length_b       60.4519
_cell_length_c       59.9307
_cell_angle_alpha    79.1768
_cell_angle_beta     74.4784
_cell_angle_gamma    77.2909

_space_group_name_H-M_alt    "P 1"
_space_group_IT_number       1

loop_
  _space_group_symop_operation_xyz
  'x, y, z'

loop_
  _atom_site_type_symbol
  _atom_site_label
  _atom_site_symmetry_multiplicity
  _atom_site_fract_x
  _atom_site_fract_y
  _atom_site_fract_z
  _atom_site_occupancy
  C   C1        1.0  0.45246  0.07725  0.43089  1.0000
  H   H1        1.0  0.38685  0.14345  0.35748  1.0000
  C   C2        1.0  0.43697  0.11540  0.37481  1.0000
  H   H2        1.0  0.43630  0.06930  0.43412  1.0000
  S   S1        1.0  0.40029  0.02785  0.43413  1.0000
  Fe  Fe1       1.0  0.45496  0.99997  0.36614  1.0000
  C   C3        1.0  0.46489  0.00470  0.46563  1.0000
  H   H3        1.0  0.40090  0.99641  0.47802  1.0000
  H   H4        1.0  0.40608  0.17347  0.47895  1.0000
  H   H5        1.0  0.41037  0.06948  0.40714  1.0000
  C   C4        1.0  0.46581  0.06954  0.45083  1.0000
  H   H6        1.0  0.48461  0.03590  0.37807  1.0000
  H   H7        1.0  0.47240  0.13252  0.42418  1.0000
  H   H8        1.0  0.40408  0.11098  0.34166  1.0000
  H   H9        1.0  0.36233  0.13063  0.37557  1.0000
  C   C5        1.0  0.38240  0.12851  0.37071  1.0000
  S   S2        1.0  0.47295  0.02479  0.33704  1.0000
  H   H10       1.0  0.44579  0.09602  0.42996  1.0000
  C   C6        1.0  0.49053  0.06457  0.32301  1.0000
  H   H11       1.0  0.43656  0.20682  0.44956  1.0000
  C   C7        1.0  0.41968  0.06525  0.33727  1.0000
  H   H12       1.0  0.48475  0.17445  0.44852  1.0000
  H   H13       1.0  0.47527  0.19730  0.42711  1.0000
  H   H14       1.0  0.36608  0.08024  0.42586  1.0000
  H   H15       1.0  0.48590  0.03899  0.41818  1.0000
  H   H16       1.0  0.39430  0.05890  0.36939  1.0000
  S   S3        1.0  0.41458  0.00342  0.37796  1.0000
  H   H17       1.0  0.48756  0.06353  0.30619  1.0000
  H   H18       1.0  0.44835  0.25486  0.47769  1.0000
  H   H19       1.0  0.45257  0.07422  0.46724  1.0000
  C   C8        1.0  0.48490  0.04748  0.34181  1.0000
  N   N1        1.0  0.40929  0.08777  0.37273  1.0000
  C   C9        1.0  0.44793  0.19370  0.45969  1.0000
  H   H20       1.0  0.40618  0.07640  0.32817  1.0000
  H   H21       1.0  0.44291  0.17738  0.45820  1.0000
  C   C10       1.0  0.39363  0.10611  0.35979  1.0000
  S   S4        1.0  0.46096  0.99586  0.40201  1.0000
  C   C11       1.0  0.49519  0.03720  0.43255  1.0000
  H   H22       1.0  0.42112  0.04759  0.33354  1.0000
  H   H23       1.0  0.37823  0.09917  0.35766  1.0000
  S   S5        1.0  0.43974  0.12588  0.46851  1.0000
  C   C12       1.0  0.45724  0.03082  0.46019  1.0000
  H   H24       1.0  0.42950  0.13041  0.36347  1.0000
  H   H25       1.0  0.39932  0.09870  0.40737  1.0000
  C   C13       1.0  0.43453  0.09278  0.36813  1.0000
  H   H26       1.0  0.44377  0.09331  0.34932  1.0000
  H   H27       1.0  0.38843  0.13002  0.38622  1.0000
  C   C14       1.0  0.41174  0.06523  0.36405  1.0000
  C   C15       1.0  0.48393  0.12082  0.47833  1.0000
  H   H28       1.0  0.45654  0.11590  0.37171  1.0000
  C   C16       1.0  0.39887  0.08419  0.39880  1.0000
  C   C17       1.0  0.47458  0.19222  0.44605  1.0000
  H   H29       1.0  0.43773  0.06992  0.32944  1.0000
  H   H30       1.0  0.44579  0.07875  0.37751  1.0000
  H   H31       1.0  0.42472  0.05166  0.37204  1.0000
  H   H32       1.0  0.46453  0.07423  0.41364  1.0000
  C   C18       1.0  0.47076  0.12535  0.46107  1.0000
  H   H33       1.0  0.42907  0.11712  0.39350  1.0000
  N   N2        1.0  0.47729  0.04456  0.45431  1.0000
  C   C19       1.0  0.48246  0.12939  0.43760  1.0000
  C   C20       1.0  0.39452  0.05443  0.46805  1.0000
  H   H34       1.0  0.39353  0.06862  0.45418  1.0000
  H   H35       1.0  0.47930  0.08089  0.44719  1.0000
  C   C21       1.0  0.37259  0.07970  0.40673  1.0000
  C   C22       1.0  0.39786  0.03194  0.46321  1.0000
  H   H36       1.0  0.48073  0.30191  0.43443  1.0000
  H   H37       1.0  0.35989  0.09266  0.39815  1.0000
  H   H38       1.0  0.44820  0.03331  0.44553  1.0000
  H   H39       1.0  0.37141  0.06234  0.40412  1.0000
  Fe  Fe2       1.0  0.42070  0.99801  0.41434  1.0000
  H   H40       1.0  0.44448  0.24053  0.45578  1.0000
  C   C23       1.0  0.48893  0.04900  0.36348  1.0000
  H   H41       1.0  0.47453  0.99701  0.44950  1.0000
  C   C24       1.0  0.49026  0.31014  0.44278  1.0000
  C   C25       1.0  0.48004  0.31501  0.46576  1.0000
  C   C26       1.0  0.48918  0.03962  0.47474  1.0000
  H   H42       1.0  0.48403  0.20414  0.45043  1.0000
  H   H43       1.0  0.46273  0.31056  0.47499  1.0000
  H   H44       1.0  0.44300  0.03656  0.47557  1.0000
  C   C27       1.0  0.43999  0.24107  0.47487  1.0000
  H   H45       1.0  0.47608  0.99978  0.47865  1.0000
  H   H46       1.0  0.44851  0.99677  0.47304  1.0000
  Fe  Fe3       1.0  0.44501  0.09017  0.55072  1.0000
  S   S6        1.0  0.40651  0.09057  0.57107  1.0000
  S   S7        1.0  0.47583  0.07787  0.56859  1.0000
  C   C28       1.0  0.39264  0.04079  0.50919  1.0000
  S   S8        1.0  0.39002  0.11450  0.52275  1.0000
  Fe  Fe4       1.0  0.39913  0.12654  0.55223  1.0000
  S   S9        1.0  0.37843  0.16011  0.56503  1.0000
  Fe  Fe5       1.0  0.40182  0.07867  0.53926  1.0000
  S   S10       1.0  0.43794  0.12671  0.53448  1.0000
  S   S11       1.0  0.44075  0.07634  0.52036  1.0000
  Fe  Fe6       1.0  0.42743  0.27601  0.55069  1.0000
  H   H47       1.0  0.41599  0.04947  0.60341  1.0000
  S   S12       1.0  0.44058  0.23758  0.55401  1.0000
  S   S13       1.0  0.42731  0.29728  0.51581  1.0000
  C   C29       1.0  0.39863  0.01379  0.48149  1.0000
  N   N3        1.0  0.45295  0.00270  0.57697  1.0000
  H   H48       1.0  0.44228  0.17550  0.51800  1.0000
  H   H49       1.0  0.43424  0.21753  0.60165  1.0000
  S   S14       1.0  0.44945  0.29712  0.56090  1.0000
  C   C30       1.0  0.45284  0.17640  0.49951  1.0000
  C   C31       1.0  0.47466  0.00151  0.58674  1.0000
  C   C32       1.0  0.39541  0.18181  0.56239  1.0000
  C   C33       1.0  0.41948  0.17625  0.56421  1.0000
  C   C34       1.0  0.43295  0.19359  0.56160  1.0000
  C   C35       1.0  0.42247  0.21672  0.55735  1.0000
  C   C36       1.0  0.39825  0.22245  0.55589  1.0000
  C   C37       1.0  0.38471  0.20501  0.55859  1.0000
  H   H50       1.0  0.42771  0.15852  0.56791  1.0000
  H   H51       1.0  0.45161  0.18899  0.56294  1.0000
  H   H52       1.0  0.38996  0.24025  0.55267  1.0000
  H   H53       1.0  0.36600  0.20948  0.55739  1.0000
  N   N4        1.0  0.40869  0.23024  0.63232  1.0000
  H   H54       1.0  0.42018  0.19643  0.62137  1.0000
  C   C38       1.0  0.40292  0.17968  0.49597  1.0000
  C   C39       1.0  0.44422  0.00786  0.53564  1.0000
  H   H55       1.0  0.44290  0.25146  0.59988  1.0000
  H   H56       1.0  0.47795  0.00722  0.54308  1.0000
  S   S15       1.0  0.39192  0.29518  0.56890  1.0000
  C   C40       1.0  0.39589  0.21925  0.65573  1.0000
  C   C41       1.0  0.39142  0.24038  0.61677  1.0000
  H   H57       1.0  0.46928  0.00111  0.60606  1.0000
  C   C42       1.0  0.39567  0.01825  0.50449  1.0000
  S   S16       1.0  0.38890  0.04639  0.53803  1.0000
  H   H58       1.0  0.44870  0.03953  0.56852  1.0000
  H   H59       1.0  0.40932  0.20628  0.51153  1.0000
  H   H60       1.0  0.46222  0.18941  0.62177  1.0000
  H   H61       1.0  0.41705  0.02018  0.61551  1.0000
  H   H62       1.0  0.38998  0.07622  0.49418  1.0000
  H   H63       1.0  0.44282  0.03416  0.61169  1.0000
  H   H64       1.0  0.36529  0.22423  0.68555  1.0000
  C   C43       1.0  0.41479  0.20071  0.49389  1.0000
  H   H65       1.0  0.40861  0.21283  0.66738  1.0000
  H   H66       1.0  0.44487  0.22034  0.50727  1.0000
  H   H67       1.0  0.44122  0.02679  0.53192  1.0000
  H   H68       1.0  0.45160  0.16053  0.49341  1.0000
  H   H69       1.0  0.42664  0.00217  0.54263  1.0000
  H   H70       1.0  0.44591  0.19755  0.64966  1.0000
  C   C44       1.0  0.43400  0.26211  0.61400  1.0000
  C   C45       1.0  0.37570  0.22412  0.61384  1.0000
  Fe  Fe7       1.0  0.42928  0.11281  0.50632  1.0000
  C   C46       1.0  0.41962  0.24918  0.63618  1.0000
  C   C47       1.0  0.37407  0.23475  0.66957  1.0000
  H   H71       1.0  0.36005  0.24233  0.65962  1.0000
  H   H72       1.0  0.36488  0.23301  0.60099  1.0000
  H   H73       1.0  0.42190  0.27718  0.60703  1.0000
  C   C48       1.0  0.39247  0.05880  0.49078  1.0000
  C   C49       1.0  0.45047  0.20387  0.63071  1.0000
  H   H74       1.0  0.36263  0.21935  0.63034  1.0000
  H   H75       1.0  0.43110  0.24316  0.64907  1.0000
  C   C50       1.0  0.42808  0.03251  0.60395  1.0000
  C   C51       1.0  0.42781  0.21197  0.62064  1.0000
  H   H76       1.0  0.48284  0.01716  0.57994  1.0000
  H   H77       1.0  0.40151  0.24643  0.59885  1.0000
  H   H78       1.0  0.37976  0.24851  0.67559  1.0000
  H   H79       1.0  0.38948  0.20377  0.65387  1.0000
  H   H80       1.0  0.46142  0.21755  0.62730  1.0000
  H   H81       1.0  0.39567  0.00420  0.51864  1.0000
  C   C52       1.0  0.43793  0.02633  0.57889  1.0000
  C   C53       1.0  0.47931  0.17442  0.50087  1.0000
  H   H82       1.0  0.38685  0.20840  0.60694  1.0000
  H   H83       1.0  0.44879  0.26816  0.61830  1.0000
  H   H84       1.0  0.40524  0.26264  0.64442  1.0000
  H   H85       1.0  0.48661  0.07223  0.48717  1.0000
  H   H86       1.0  0.37909  0.25605  0.62294  1.0000
  C   C54       1.0  0.46198  0.99889  0.55165  1.0000
  Fe  Fe8       1.0  0.39353  0.31849  0.53478  1.0000
  H   H87       1.0  0.48586  0.04722  0.53338  1.0000
  H   H88       1.0  0.40567  0.21460  0.48249  1.0000
  Fe  Fe9       1.0  0.44650  0.31983  0.52721  1.0000
  H   H89       1.0  0.38301  0.18459  0.50244  1.0000
  Fe  Fe10      1.0  0.41385  0.31819  0.57642  1.0000
  H   H90       1.0  0.42211  0.02922  0.57109  1.0000
  H   H91       1.0  0.47515  0.11685  0.49645  1.0000
  H   H92       1.0  0.40887  0.16541  0.50892  1.0000
  H   H93       1.0  0.40426  0.00051  0.58178  1.0000
  H   H94       1.0  0.47588  0.03571  0.49156  1.0000
  N   N5        1.0  0.44201  0.19728  0.48499  1.0000
  H   H95       1.0  0.46999  0.21669  0.48349  1.0000
  C   C55       1.0  0.45005  0.21827  0.48836  1.0000
  H   H96       1.0  0.48086  0.18703  0.51145  1.0000
  H   H97       1.0  0.48525  0.15718  0.51006  1.0000
  H   H98       1.0  0.42016  0.24618  0.48148  1.0000
  H   H99       1.0  0.45219  0.00135  0.51861  1.0000
  H   H100      1.0  0.49205  0.17611  0.48357  1.0000
  H   H101      1.0  0.33816  0.32248  0.61468  1.0000
  S   S17       1.0  0.05871  0.63494  0.34400  1.0000
  Fe  Fe11      1.0  0.39830  0.63469  0.04780  1.0000
  H   H102      1.0  0.44442  0.61750  0.11588  1.0000
  H   H103      1.0  0.21434  0.47552  0.45890  1.0000
  Fe  Fe12      1.0  0.41412  0.60019  0.01227  1.0000
  H   H104      1.0  0.15857  0.56736  0.45447  1.0000
  H   H105      1.0  0.04188  0.52041  0.38098  1.0000
  Fe  Fe13      1.0  0.45110  0.61635  0.03064  1.0000
  H   H106      1.0  0.21388  0.62592  0.44071  1.0000
  H   H107      1.0  0.45019  0.58081  0.29293  1.0000
  H   H108      1.0  0.29194  0.52337  0.42976  1.0000
  S   S18       1.0  0.41948  0.59901  0.04823  1.0000
  H   H109      1.0  0.27555  0.42472  0.45834  1.0000
  H   H110      1.0  0.41313  0.38897  0.43655  1.0000
  H   H111      1.0  0.02057  0.51400  0.46721  1.0000
  H   H112      1.0  0.45956  0.56514  0.00648  1.0000
  H   H113      1.0  0.34848  0.58110  0.47155  1.0000
  H   H114      1.0  0.45818  0.35297  0.43814  1.0000
  H   H115      1.0  0.44804  0.50389  0.24027  1.0000
  C   C56       1.0  0.35378  0.62798  0.45826  1.0000
  H   H116      1.0  0.03148  0.55519  0.30829  1.0000
  C   C57       1.0  0.26637  0.57520  0.44769  1.0000
  Fe  Fe14      1.0  0.05379  0.61047  0.40845  1.0000
  S   S19       1.0  0.07932  0.59243  0.37954  1.0000
  S   S20       1.0  0.04984  0.59777  0.44644  1.0000
  Fe  Fe15      1.0  0.08771  0.62730  0.36420  1.0000
  C   C58       1.0  0.32910  0.64053  0.26791  1.0000
  Fe  Fe16      1.0  0.04828  0.60121  0.36228  1.0000
  S   S21       1.0  0.04260  0.57685  0.34053  1.0000
  H   H117      1.0  0.28142  0.65087  0.23880  1.0000
  S   S22       1.0  0.02194  0.61589  0.39280  1.0000
  S   S23       1.0  0.13935  0.52340  0.45369  1.0000
  H   H118      1.0  0.37517  0.59523  0.19178  1.0000
  Fe  Fe17      1.0  0.41237  0.62022  0.22857  1.0000
  H   H119      1.0  0.35765  0.58102  0.29539  1.0000
  N   N6        1.0  0.32876  0.64328  0.18860  1.0000
  C   C59       1.0  0.31191  0.63770  0.21200  1.0000
  C   C60       1.0  0.15329  0.65095  0.39530  1.0000
  S   S24       1.0  0.25040  0.61722  0.36385  1.0000
  Fe  Fe18      1.0  0.27640  0.60464  0.38703  1.0000
  H   H120      1.0  0.17764  0.63123  0.33413  1.0000
  C   C61       1.0  0.12696  0.53281  0.37918  1.0000
  H   H121      1.0  0.33624  0.58805  0.38930  1.0000
  H   H122      1.0  0.47029  0.63803  0.07441  1.0000
  C   C62       1.0  0.01958  0.56068  0.34435  1.0000
  H   H123      1.0  0.11854  0.64524  0.39320  1.0000
  S   S25       1.0  0.40911  0.56735  0.00238  1.0000
  H   H124      1.0  0.40934  0.47859  0.08952  1.0000
  C   C63       1.0  0.36232  0.60822  0.26653  1.0000
  C   C64       1.0  0.32395  0.59982  0.42330  1.0000
  C   C65       1.0  0.26738  0.40941  0.45996  1.0000
  C   C66       1.0  0.45686  0.56217  0.26355  1.0000
  H   H125      1.0  0.47184  0.57165  0.25420  1.0000
  H   H126      1.0  0.48673  0.54840  0.01468  1.0000
  H   H127      1.0  0.08234  0.62294  0.48023  1.0000
  S   S26       1.0  0.28408  0.56721  0.40188  1.0000
  C   C67       1.0  0.28349  0.53598  0.44152  1.0000
  H   H128      1.0  0.31716  0.60054  0.31553  1.0000
  C   C68       1.0  0.47441  0.53354  0.99042  1.0000
  Fe  Fe19      1.0  0.42439  0.64844  0.99742  1.0000
  H   H129      1.0  0.05706  0.52297  0.35077  1.0000
  Fe  Fe20      1.0  0.46245  0.62296  0.19679  1.0000
  H   H130      1.0  0.04172  0.55034  0.40308  1.0000
  H   H131      1.0  0.02766  0.62314  0.31927  1.0000
  Fe  Fe21      1.0  0.11562  0.49924  0.47619  1.0000
  H   H132      1.0  0.09503  0.52469  0.35793  1.0000
  C   C69       1.0  0.46967  0.54771  0.01039  1.0000
  C   C70       1.0  0.34976  0.59768  0.28776  1.0000
  H   H133      1.0  0.38144  0.64096  0.32728  1.0000
  C   C71       1.0  0.07752  0.58202  0.45072  1.0000
  C   C72       1.0  0.09822  0.58158  0.43231  1.0000
  C   C73       1.0  0.11864  0.56464  0.43378  1.0000
  C   C74       1.0  0.11845  0.54888  0.45405  1.0000
  C   C75       1.0  0.41910  0.36244  0.47970  1.0000
  H   H134      1.0  0.39239  0.51564  0.03589  1.0000
  H   H135      1.0  0.09813  0.59358  0.41655  1.0000
  H   H136      1.0  0.13375  0.56292  0.41874  1.0000
  N   N7        1.0  0.33165  0.60214  0.44470  1.0000
  H   H137      1.0  0.21316  0.52416  0.46617  1.0000
  C   C76       1.0  0.27730  0.55903  0.43239  1.0000
  H   H138      1.0  0.34261  0.63411  0.42588  1.0000
  C   C77       1.0  0.17078  0.63653  0.35132  1.0000
  H   H139      1.0  0.15688  0.61917  0.43836  1.0000
  C   C78       1.0  0.48646  0.64132  0.07899  1.0000
  H   H140      1.0  0.44474  0.57510  0.22080  1.0000
  H   H141      1.0  0.36135  0.63769  0.24033  1.0000
  H   H142      1.0  0.33534  0.60854  0.18045  1.0000
  H   H143      1.0  0.14630  0.59992  0.42519  1.0000
  H   H144      1.0  0.33746  0.63906  0.46737  1.0000
  H   H145      1.0  0.39365  0.61938  0.12059  1.0000
  H   H146      1.0  0.40478  0.63400  0.15164  1.0000
  H   H147      1.0  0.35759  0.60154  0.39583  1.0000
  H   H148      1.0  0.07150  0.65292  0.47605  1.0000
  H   H149      1.0  0.19869  0.44456  0.46046  1.0000
  H   H150      1.0  0.13666  0.51572  0.37469  1.0000
  S   S27       1.0  0.28777  0.64409  0.30221  1.0000
  C   C79       1.0  0.05964  0.51611  0.36864  1.0000
  Fe  Fe22      1.0  0.27814  0.63761  0.34145  1.0000
  H   H151      1.0  0.12277  0.54391  0.36325  1.0000
  C   C80       1.0  0.19970  0.53609  0.45748  1.0000
  H   H152      1.0  0.22720  0.55616  0.43925  1.0000
  H   H153      1.0  0.46985  0.55393  0.29624  1.0000
  C   C81       1.0  0.18659  0.64278  0.36216  1.0000
  H   H154      1.0  0.32706  0.55529  0.44428  1.0000
  C   C82       1.0  0.39280  0.63756  0.11985  1.0000
  C   C83       1.0  0.46787  0.56999  0.06875  1.0000
  C   C84       1.0  0.46733  0.54657  0.07468  1.0000
  C   C85       1.0  0.46324  0.60879  0.11578  1.0000
  H   H155      1.0  0.45240  0.58228  0.07585  1.0000
  H   H156      1.0  0.45130  0.54081  0.08602  1.0000
  S   S28       1.0  0.26262  0.63326  0.40870  1.0000
  H   H157      1.0  0.43744  0.55544  0.30063  1.0000
  H   H158      1.0  0.37686  0.63928  0.29884  1.0000
  C   C86       1.0  0.45346  0.56266  0.28992  1.0000
  H   H159      1.0  0.40895  0.45503  0.05378  1.0000
  C   C87       1.0  0.35199  0.62970  0.25679  1.0000
  H   H160      1.0  0.37179  0.62106  0.20346  1.0000
  H   H161      1.0  0.01214  0.62727  0.47127  1.0000
  C   C88       1.0  0.29444  0.63382  0.45636  1.0000
  S   S29       1.0  0.44804  0.61407  0.99479  1.0000
  S   S30       1.0  0.39076  0.59454  0.25198  1.0000
  H   H162      1.0  0.00370  0.56248  0.38103  1.0000
  N   N8        1.0  0.08674  0.51774  0.39575  1.0000
  C   C89       1.0  0.40919  0.48336  0.00356  1.0000
  H   H163      1.0  0.41646  0.41481  0.44353  1.0000
  C   C90       1.0  0.06502  0.51889  0.41625  1.0000
  C   C91       1.0  0.09878  0.49299  0.39490  1.0000
  H   H164      1.0  0.48038  0.37053  0.42721  1.0000
  H   H165      1.0  0.36136  0.62372  0.32458  1.0000
  C   C92       1.0  0.04892  0.54274  0.41870  1.0000
  C   C93       1.0  0.11388  0.48248  0.41312  1.0000
  C   C94       1.0  0.36155  0.60933  0.19971  1.0000
  S   S31       1.0  0.44824  0.61949  0.23552  1.0000
  H   H166      1.0  0.10909  0.52576  0.41589  1.0000
  S   S32       1.0  0.42723  0.62025  0.19005  1.0000
  H   H167      1.0  0.30406  0.64448  0.44119  1.0000
  H   H168      1.0  0.07077  0.51295  0.43289  1.0000
  H   H169      1.0  0.08501  0.48194  0.39757  1.0000
  H   H170      1.0  0.11085  0.49036  0.37739  1.0000
  C   C95       1.0  0.38478  0.65278  0.10158  1.0000
  H   H171      1.0  0.45848  0.53934  0.02635  1.0000
  H   H172      1.0  0.40057  0.51883  0.07528  1.0000
  H   H173      1.0  0.47699  0.51745  0.28377  1.0000
  H   H174      1.0  0.20721  0.59117  0.38370  1.0000
  H   H175      1.0  0.30316  0.63815  0.17053  1.0000
  N   N9        1.0  0.42574  0.38547  0.46846  1.0000
  Fe  Fe23      1.0  0.29019  0.65176  0.38245  1.0000
  Fe  Fe24      1.0  0.08046  0.46873  0.47683  1.0000
  H   H176      1.0  0.13120  0.48886  0.40891  1.0000
  H   H177      1.0  0.11839  0.46360  0.41346  1.0000
  H   H178      1.0  0.10365  0.48588  0.43089  1.0000
  H   H179      1.0  0.03471  0.47279  0.41571  1.0000
  C   C96       1.0  0.34886  0.61896  0.43788  1.0000
  H   H180      1.0  0.26147  0.59292  0.44088  1.0000
  C   C97       1.0  0.41060  0.39815  0.45158  1.0000
  S   S33       1.0  0.06433  0.46136  0.44894  1.0000
  H   H181      1.0  0.43120  0.55019  0.22324  1.0000
  H   H182      1.0  0.36678  0.61124  0.42754  1.0000
  H   H183      1.0  0.35369  0.57256  0.40920  1.0000
  C   C98       1.0  0.44831  0.55704  0.21770  1.0000
  C   C99       1.0  0.48720  0.53075  0.06514  1.0000
  C   C100      1.0  0.32693  0.60873  0.29920  1.0000
  S   S34       1.0  0.30556  0.62191  0.36231  1.0000
  C   C101      1.0  0.34459  0.57955  0.45478  1.0000
  C   C102      1.0  0.32912  0.65572  0.14485  1.0000
  H   H184      1.0  0.46373  0.37306  0.46814  1.0000
  H   H185      1.0  0.44012  0.57280  0.25902  1.0000
  H   H186      1.0  0.49346  0.44784  0.99714  1.0000
  Fe  Fe25      1.0  0.23803  0.64710  0.38395  1.0000
  C   C103      1.0  0.17795  0.65003  0.38420  1.0000
  C   C104      1.0  0.43918  0.52853  0.26610  1.0000
  H   H187      1.0  0.36266  0.57433  0.44314  1.0000
  H   H188      1.0  0.37896  0.48939  0.08569  1.0000
  C   C105      1.0  0.31649  0.63005  0.28905  1.0000
  H   H189      1.0  0.43734  0.46150  0.01767  1.0000
  H   H190      1.0  0.41913  0.35263  0.44507  1.0000
  C   C106      1.0  0.99905  0.46648  0.43423  1.0000
  C   C107      1.0  0.10381  0.53172  0.39892  1.0000
  H   H191      1.0  0.09480  0.54965  0.40026  1.0000
  H   H192      1.0  0.37609  0.38778  0.47175  1.0000
  C   C108      1.0  0.38309  0.40333  0.46215  1.0000
  H   H193      1.0  0.43569  0.52534  0.28549  1.0000
  H   H194      1.0  0.42265  0.54082  0.26294  1.0000
  H   H195      1.0  0.47174  0.45717  0.06276  1.0000
  C   C109      1.0  0.03328  0.46108  0.45227  1.0000
  H   H196      1.0  0.48359  0.52686  0.11960  1.0000
  H   H197      1.0  0.44396  0.48913  0.00527  1.0000
  C   C110      1.0  0.01883  0.55158  0.32483  1.0000
  H   H198      1.0  0.30968  0.58918  0.42788  1.0000
  C   C111      1.0  0.45225  0.38301  0.45619  1.0000
  H   H199      1.0  0.32216  0.63071  0.22571  1.0000
  C   C112      1.0  0.39507  0.47565  0.08204  1.0000
  S   S35       1.0  0.43039  0.65199  0.03203  1.0000
  H   H200      1.0  0.35088  0.60130  0.21630  1.0000
  H   H201      1.0  0.44189  0.65454  0.10411  1.0000
  N   N10       1.0  0.19284  0.57731  0.43555  1.0000
  C   C113      1.0  0.20804  0.55949  0.44950  1.0000
  C   C114      1.0  0.20474  0.59816  0.42839  1.0000
  C   C115      1.0  0.19249  0.56741  0.41420  1.0000
  C   C116      1.0  0.16766  0.58243  0.45085  1.0000
  H   H202      1.0  0.23433  0.39908  0.46143  1.0000
  H   H203      1.0  0.40073  0.54386  0.05419  1.0000
  C   C117      1.0  0.19027  0.58422  0.39168  1.0000
  H   H204      1.0  0.01970  0.62642  0.29155  1.0000
  H   H205      1.0  0.02127  0.64730  0.43481  1.0000
  H   H206      1.0  0.19848  0.52814  0.44270  1.0000
  C   C118      1.0  0.01990  0.63550  0.30595  1.0000
  H   H207      1.0  0.22362  0.59366  0.41781  1.0000
  H   H208      1.0  0.20956  0.55508  0.40866  1.0000
  H   H209      1.0  0.17774  0.55723  0.41828  1.0000
  H   H210      1.0  0.46223  0.59408  0.13003  1.0000
  S   S36       1.0  0.48557  0.50175  0.06992  1.0000
  H   H211      1.0  0.36794  0.63881  0.45112  1.0000
  H   H212      1.0  0.24408  0.46114  0.44453  1.0000
  Fe  Fe26      1.0  0.03409  0.64909  0.37582  1.0000
  C   C119      1.0  0.14617  0.63734  0.36238  1.0000
  C   C120      1.0  0.06701  0.63610  0.47583  1.0000
  N   N11       1.0  0.42178  0.48734  0.04081  1.0000
  C   C121      1.0  0.45706  0.45803  0.05383  1.0000
  H   H213      1.0  0.18748  0.57492  0.37858  1.0000
  N   N12       1.0  0.46173  0.53881  0.25590  1.0000
  H   H214      1.0  0.45791  0.49306  0.03786  1.0000
  C   C122      1.0  0.20579  0.61038  0.44845  1.0000
  H   H215      1.0  0.39852  0.50093  0.00265  1.0000
  C   C123      1.0  0.42942  0.48002  0.01675  1.0000
  H   H216      1.0  0.47152  0.60161  0.09913  1.0000
  H   H217      1.0  0.44080  0.48968  0.06685  1.0000
  C   C124      1.0  0.40313  0.47355  0.05570  1.0000
  C   C125      1.0  0.41294  0.34792  0.46409  1.0000
  H   H218      1.0  0.18757  0.61639  0.45920  1.0000
  H   H219      1.0  0.45772  0.40016  0.45103  1.0000
  C   C126      1.0  0.34565  0.62128  0.18245  1.0000
  H   H220      1.0  0.45476  0.55726  0.19846  1.0000
  H   H221      1.0  0.49633  0.53489  0.14004  1.0000
  H   H222      1.0  0.35859  0.62430  0.16527  1.0000
  C   C127      1.0  0.47868  0.62457  0.12017  1.0000
  H   H223      1.0  0.44692  0.49092  0.27023  1.0000
  H   H224      1.0  0.47113  0.62783  0.13864  1.0000
  S   S37       1.0  0.12125  0.46264  0.47100  1.0000
  H   H225      1.0  0.07288  0.54594  0.37176  1.0000
  C   C128      1.0  0.15021  0.60281  0.44135  1.0000
  H   H226      1.0  0.36055  0.61395  0.47099  1.0000
  H   H227      1.0  0.46594  0.45114  0.03712  1.0000
  C   C129      1.0  0.46809  0.54220  0.22952  1.0000
  C   C130      1.0  0.49612  0.53757  0.12133  1.0000
  C   C131      1.0  0.33107  0.55916  0.46005  1.0000
  C   C132      1.0  0.46057  0.37103  0.43413  1.0000
  C   C133      1.0  0.07925  0.52709  0.37312  1.0000
  C   C134      1.0  0.13748  0.64443  0.38454  1.0000
  H   H228      1.0  0.00088  0.61049  0.35177  1.0000
  S   S38       1.0  0.38970  0.63461  0.01316  1.0000
  S   S39       1.0  0.48646  0.60611  0.04116  1.0000
  H   H229      1.0  0.17495  0.59865  0.39435  1.0000
  H   H230      1.0  0.13954  0.54072  0.38491  1.0000
  H   H231      1.0  0.44467  0.44682  0.06529  1.0000
  C   C135      1.0  0.07837  0.56788  0.47183  1.0000
  C   C136      1.0  0.44433  0.48320  0.04994  1.0000
  H   H232      1.0  0.31528  0.61672  0.41550  1.0000
  C   C137      1.0  0.00316  0.55568  0.36576  1.0000
  C   C138      1.0  0.31424  0.65112  0.17023  1.0000
  H   H233      1.0  0.39681  0.47091  0.01136  1.0000
  H   H234      1.0  0.19463  0.40390  0.46459  1.0000
  S   S40       1.0  0.12709  0.62959  0.34767  1.0000
  H   H235      1.0  0.05843  0.55483  0.42290  1.0000
  C   C139      1.0  0.02343  0.46735  0.43249  1.0000
  C   C140      1.0  0.41039  0.52605  0.05798  1.0000
  H   H236      1.0  0.42173  0.52162  0.02203  1.0000
  C   C141      1.0  0.34434  0.58990  0.40351  1.0000
  H   H237      1.0  0.19531  0.61142  0.41684  1.0000
  C   C142      1.0  0.36798  0.64013  0.31758  1.0000
  C   C143      1.0  0.27931  0.52924  0.46583  1.0000
  C   C144      1.0  0.48810  0.57746  0.05310  1.0000
  H   H238      1.0  0.03303  0.54106  0.43359  1.0000
  C   C145      1.0  0.43891  0.50551  0.25872  1.0000
  H   H239      1.0  0.31375  0.60975  0.47993  1.0000
  H   H240      1.0  0.38622  0.47841  0.04925  1.0000
  H   H241      1.0  0.39010  0.45921  0.09189  1.0000
  H   H242      1.0  0.42877  0.52755  0.05881  1.0000
  C   C146      1.0  0.41122  0.51262  0.03817  1.0000
  H   H243      1.0  0.28931  0.64376  0.47132  1.0000
  H   H244      1.0  0.20535  0.64247  0.35315  1.0000
  H   H245      1.0  0.41986  0.50406  0.26020  1.0000
  H   H246      1.0  0.45186  0.38027  0.41989  1.0000
  H   H247      1.0  0.30210  0.62401  0.21134  1.0000
  S   S41       1.0  0.37253  0.64294  0.08212  1.0000
  S   S42       1.0  0.06399  0.64480  0.39427  1.0000
  H   H248      1.0  0.06492  0.49729  0.36933  1.0000
  H   H249      1.0  0.05315  0.50689  0.41595  1.0000
  H   H250      1.0  0.27130  0.39692  0.47509  1.0000
  C   C147      1.0  0.30934  0.61004  0.46289  1.0000
  H   H251      1.0  0.21736  0.59971  0.45980  1.0000
  H   H252      1.0  0.16845  0.58563  0.46830  1.0000
  C   C148      1.0  0.24008  0.41550  0.46118  1.0000
  H   H253      1.0  0.23779  0.42589  0.44425  1.0000
  H   H254      1.0  0.45634  0.53119  0.98938  1.0000
  C   C149      1.0  0.39894  0.64586  0.13755  1.0000
  H   H255      1.0  0.48671  0.49230  0.25040  1.0000
  H   H256      1.0  0.48843  0.55583  0.11655  1.0000
  H   H257      1.0  0.27750  0.63187  0.45237  1.0000
  H   H258      1.0  0.03233  0.64798  0.29837  1.0000
  H   H259      1.0  0.47324  0.52580  0.22225  1.0000
  H   H260      1.0  0.39313  0.34804  0.46851  1.0000
  H   H261      1.0  0.49642  0.53529  0.26445  1.0000
  H   H262      1.0  0.37817  0.41671  0.47385  1.0000
  H   H263      1.0  0.33786  0.63952  0.13752  1.0000
  H   H264      1.0  0.20862  0.56547  0.46575  1.0000
  C   C150      1.0  0.26216  0.56849  0.47194  1.0000
  H   H265      1.0  0.29658  0.59781  0.46704  1.0000
  C   C151      1.0  0.48295  0.52450  0.26503  1.0000
  C   C152      1.0  0.01863  0.45362  0.47378  1.0000
  H   H266      1.0  0.48451  0.55017  0.22286  1.0000
  H   H267      1.0  0.06674  0.63395  0.45800  1.0000
  H   H268      1.0  0.27669  0.40107  0.44412  1.0000
  H   H269      1.0  0.48406  0.51623  0.99633  1.0000
  H   H270      1.0  0.31522  0.38597  0.47121  1.0000
  H   H271      1.0  0.24115  0.48178  0.46324  1.0000
  H   H272      1.0  0.37347  0.41004  0.44789  1.0000
  H   H273      1.0  0.45704  0.44851  0.98246  1.0000
  H   H274      1.0  0.42134  0.32973  0.46815  1.0000
  C   C153      1.0  0.01066  0.64563  0.47256  1.0000
  N   N13       1.0  0.47998  0.64681  0.10373  1.0000
  H   H275      1.0  0.41757  0.48004  0.98522  1.0000
  C   C154      1.0  0.00219  0.53751  0.32642  1.0000
  H   H276      1.0  0.00211  0.53054  0.31109  1.0000
  H   H277      1.0  0.31417  0.56176  0.47392  1.0000
  H   H278      1.0  0.28458  0.51152  0.47276  1.0000
  C   C155      1.0  0.23293  0.46770  0.46083  1.0000
  C   C156      1.0  0.09906  0.55147  0.47357  1.0000
  C   C157      1.0  0.49194  0.32629  0.47637  1.0000
  H   H279      1.0  0.18208  0.53744  0.47056  1.0000
  H   H280      1.0  0.13259  0.60483  0.45444  1.0000
  H   H281      1.0  0.49551  0.64799  0.14608  1.0000
  H   H282      1.0  0.34271  0.54355  0.46676  1.0000
  S   S43       1.0  0.49506  0.60052  0.17722  1.0000
  C   C158      1.0  0.19904  0.43418  0.47783  1.0000
  H   H283      1.0  0.16713  0.42138  0.47739  1.0000
  H   H284      1.0  0.49662  0.57871  0.98880  1.0000
  C   C159      1.0  0.18595  0.41418  0.47911  1.0000
  H   H285      1.0  0.42283  0.41833  0.47981  1.0000
  S   S44       1.0  0.07535  0.50604  0.47961  1.0000
  Fe  Fe27      1.0  0.46260  0.50113  0.85471  1.0000
  S   S45       1.0  0.42665  0.52058  0.84985  1.0000
  C   C160      1.0  0.45510  0.49668  0.78789  1.0000
  Fe  Fe28      1.0  0.41473  0.48663  0.86243  1.0000
  S   S46       1.0  0.39051  0.48016  0.84081  1.0000
  S   S47       1.0  0.45151  0.46678  0.86577  1.0000
  Fe  Fe29      1.0  0.07278  0.49493  0.51778  1.0000
  S   S48       1.0  0.07488  0.45780  0.51566  1.0000
  S   S49       1.0  0.04775  0.50978  0.54916  1.0000
  H   H286      1.0  0.36967  0.41601  0.58063  1.0000
  C   C161      1.0  0.49494  0.52451  0.95156  1.0000
  H   H287      1.0  0.42106  0.65208  0.91325  1.0000
  H   H288      1.0  0.47338  0.42418  0.75089  1.0000
  Fe  Fe30      1.0  0.11512  0.45580  0.51005  1.0000
  S   S50       1.0  0.13834  0.42843  0.52978  1.0000
  C   C162      1.0  0.49652  0.45892  0.93046  1.0000
  S   S51       1.0  0.11254  0.49205  0.51456  1.0000
  Fe  Fe31      1.0  0.38137  0.45907  0.68024  1.0000
  S   S52       1.0  0.41268  0.46366  0.64980  1.0000
  S   S53       1.0  0.34291  0.46794  0.67547  1.0000
  Fe  Fe32      1.0  0.41428  0.44171  0.71442  1.0000
  S   S54       1.0  0.44820  0.44409  0.68581  1.0000
  S   S55       1.0  0.41734  0.42792  0.75182  1.0000
  Fe  Fe33      1.0  0.42752  0.47815  0.67367  1.0000
  S   S56       1.0  0.43952  0.51247  0.66149  1.0000
  Fe  Fe34      1.0  0.43003  0.42912  0.66457  1.0000
  S   S57       1.0  0.44900  0.40461  0.63804  1.0000
  S   S58       1.0  0.39450  0.47655  0.70329  1.0000
  S   S59       1.0  0.39793  0.42375  0.69417  1.0000
  H   H289      1.0  0.45668  0.39680  0.49596  1.0000
  H   H290      1.0  0.44102  0.64060  0.83584  1.0000
  Fe  Fe35      1.0  0.25027  0.46201  0.55567  1.0000
  S   S60       1.0  0.25669  0.47442  0.51734  1.0000
  S   S61       1.0  0.21608  0.44901  0.57629  1.0000
  Fe  Fe36      1.0  0.30109  0.46656  0.55801  1.0000
  S   S62       1.0  0.31104  0.47960  0.51957  1.0000
  S   S63       1.0  0.33329  0.45873  0.57452  1.0000
  Fe  Fe37      1.0  0.27373  0.50080  0.52552  1.0000
  S   S64       1.0  0.26506  0.53825  0.51146  1.0000
  Fe  Fe38      1.0  0.29328  0.45194  0.51525  1.0000
  C   C163      1.0  0.48974  0.54579  0.66873  1.0000
  S   S65       1.0  0.26489  0.49003  0.56452  1.0000
  S   S66       1.0  0.28566  0.43742  0.55295  1.0000
  H   H291      1.0  0.32245  0.40502  0.57514  1.0000
  H   H292      1.0  0.14301  0.45406  0.61927  1.0000
  H   H293      1.0  0.45754  0.64882  0.87658  1.0000
  H   H294      1.0  0.28810  0.39921  0.60992  1.0000
  C   C164      1.0  0.29532  0.38675  0.59722  1.0000
  H   H295      1.0  0.06652  0.42127  0.58498  1.0000
  C   C165      1.0  0.33999  0.33820  0.60182  1.0000
  H   H296      1.0  0.41753  0.52923  0.97763  1.0000
  H   H297      1.0  0.40290  0.36462  0.49459  1.0000
  H   H298      1.0  0.28422  0.39155  0.58400  1.0000
  H   H299      1.0  0.04813  0.44200  0.62105  1.0000
  C   C166      1.0  0.34858  0.35666  0.50966  1.0000
  H   H300      1.0  0.46250  0.57488  0.73243  1.0000
  H   H301      1.0  0.48251  0.64139  0.81338  1.0000
  C   C167      1.0  0.32396  0.40100  0.49701  1.0000
  C   C168      1.0  0.33640  0.39697  0.51491  1.0000
  C   C169      1.0  0.34916  0.37482  0.52091  1.0000
  C   C170      1.0  0.26887  0.54557  0.48106  1.0000
  S   S67       1.0  0.36252  0.32825  0.51718  1.0000
  H   H302      1.0  0.33654  0.41098  0.52373  1.0000
  H   H303      1.0  0.35908  0.37171  0.53437  1.0000
  C   C171      1.0  0.43482  0.38466  0.63075  1.0000
  C   C172      1.0  0.41467  0.37667  0.64608  1.0000
  H   H304      1.0  0.36561  0.57529  0.65187  1.0000
  C   C173      1.0  0.43477  0.35908  0.60350  1.0000
  C   C174      1.0  0.44476  0.37577  0.60945  1.0000
  H   H305      1.0  0.40699  0.38318  0.66261  1.0000
  H   H306      1.0  0.44270  0.35239  0.58707  1.0000
  H   H307      1.0  0.46041  0.38174  0.59753  1.0000
  C   C175      1.0  0.33965  0.46503  0.64769  1.0000
  C   C176      1.0  0.35969  0.45636  0.63091  1.0000
  C   C177      1.0  0.35734  0.45512  0.60853  1.0000
  C   C178      1.0  0.33478  0.46184  0.60278  1.0000
  C   C179      1.0  0.31448  0.47013  0.61964  1.0000
  C   C180      1.0  0.31698  0.47187  0.64202  1.0000
  H   H308      1.0  0.37706  0.45036  0.63512  1.0000
  H   H309      1.0  0.37316  0.44871  0.59565  1.0000
  H   H310      1.0  0.29698  0.47529  0.61541  1.0000
  H   H311      1.0  0.30132  0.47853  0.65493  1.0000
  C   C181      1.0  0.46538  0.51804  0.66787  1.0000
  C   C182      1.0  0.46976  0.54056  0.66319  1.0000
  H   H312      1.0  0.45751  0.55409  0.65546  1.0000
  C   C183      1.0  0.15990  0.43534  0.54197  1.0000
  C   C184      1.0  0.16844  0.45616  0.53515  1.0000
  C   C185      1.0  0.18650  0.46028  0.54479  1.0000
  C   C186      1.0  0.19548  0.44387  0.56177  1.0000
  C   C187      1.0  0.18660  0.42333  0.56872  1.0000
  C   C188      1.0  0.16923  0.41895  0.55864  1.0000
  H   H313      1.0  0.16140  0.46896  0.52227  1.0000
  H   H314      1.0  0.19298  0.47638  0.53961  1.0000
  H   H315      1.0  0.19326  0.41067  0.58195  1.0000
  H   H316      1.0  0.16282  0.40282  0.56399  1.0000
  S   S68       1.0  0.41256  0.34287  0.54354  1.0000
  C   C189      1.0  0.35887  0.55861  0.62502  1.0000
  C   C190      1.0  0.41508  0.35065  0.61912  1.0000
  C   C191      1.0  0.44156  0.64051  0.87996  1.0000
  H   H317      1.0  0.43575  0.49795  0.79734  1.0000
  C   C192      1.0  0.02135  0.53010  0.54707  1.0000
  C   C193      1.0  0.04361  0.63142  0.49392  1.0000
  H   H318      1.0  0.03177  0.54138  0.51006  1.0000
  C   C194      1.0  0.40120  0.46662  0.81523  1.0000
  C   C195      1.0  0.39619  0.47833  0.79394  1.0000
  C   C196      1.0  0.40193  0.46703  0.77404  1.0000
  C   C197      1.0  0.41179  0.44363  0.77554  1.0000
  C   C198      1.0  0.41671  0.43195  0.79680  1.0000
  C   C199      1.0  0.41171  0.44341  0.81645  1.0000
  H   H319      1.0  0.38757  0.49615  0.79298  1.0000
  H   H320      1.0  0.39801  0.47626  0.75781  1.0000
  H   H321      1.0  0.42416  0.41383  0.79823  1.0000
  H   H322      1.0  0.41505  0.43404  0.83287  1.0000
  H   H323      1.0  0.20608  0.41572  0.51687  1.0000
  H   H324      1.0  0.09923  0.53975  0.48957  1.0000
  H   H325      1.0  0.05483  0.47797  0.59358  1.0000
  H   H326      1.0  0.08343  0.51097  0.58274  1.0000
  H   H327      1.0  0.06421  0.45054  0.57192  1.0000
  H   H328      1.0  0.14207  0.46498  0.58978  1.0000
  C   C200      1.0  0.06561  0.47226  0.60709  1.0000
  H   H329      1.0  0.46587  0.61958  0.78208  1.0000
  S   S69       1.0  0.40245  0.32908  0.61267  1.0000
  H   H330      1.0  0.22115  0.45736  0.49782  1.0000
  H   H331      1.0  0.22562  0.39363  0.50186  1.0000
  C   C201      1.0  0.43275  0.63626  0.90689  1.0000
  C   C202      1.0  0.41049  0.54234  0.94372  1.0000
  C   C203      1.0  0.00656  0.51416  0.48392  1.0000
  H   H332      1.0  0.49274  0.56329  0.66536  1.0000
  C   C204      1.0  0.48322  0.57322  0.93121  1.0000
  H   H333      1.0  0.38556  0.58030  0.62322  1.0000
  H   H334      1.0  0.47803  0.59217  0.92869  1.0000
  C   C205      1.0  0.45655  0.55690  0.79231  1.0000
  H   H335      1.0  0.33567  0.34694  0.48310  1.0000
  C   C206      1.0  0.48200  0.42537  0.76495  1.0000
  H   H336      1.0  0.42816  0.65417  0.87279  1.0000
  H   H337      1.0  0.29247  0.36943  0.60609  1.0000
  C   C207      1.0  0.05146  0.45693  0.62722  1.0000
  H   H338      1.0  0.39096  0.59836  0.92554  1.0000
  N   N14       1.0  0.09146  0.46183  0.59667  1.0000
  H   H339      1.0  0.47667  0.56568  0.91907  1.0000
  H   H340      1.0  0.08987  0.42583  0.60827  1.0000
  C   C208      1.0  0.42685  0.60757  0.87252  1.0000
  H   H341      1.0  0.25401  0.58115  0.48370  1.0000
  C   C209      1.0  0.47251  0.56371  0.95671  1.0000
  H   H342      1.0  0.43992  0.37446  0.51131  1.0000
  H   H343      1.0  0.32043  0.35938  0.62866  1.0000
  H   H344      1.0  0.47851  0.48314  0.68072  1.0000
  H   H345      1.0  0.02611  0.44845  0.48904  1.0000
  H   H346      1.0  0.46171  0.53010  0.93837  1.0000
  C   C210      1.0  0.33412  0.39936  0.61607  1.0000
  C   C211      1.0  0.35247  0.39787  0.63094  1.0000
  H   H347      1.0  0.33212  0.41674  0.60597  1.0000
  H   H348      1.0  0.31632  0.39880  0.62870  1.0000
  H   H349      1.0  0.39047  0.39930  0.55989  1.0000
  H   H350      1.0  0.34594  0.41173  0.64216  1.0000
  H   H351      1.0  0.37060  0.40046  0.62009  1.0000
  H   H352      1.0  0.35411  0.38153  0.64285  1.0000
  H   H353      1.0  0.35800  0.33470  0.58972  1.0000
  H   H354      1.0  0.48931  0.50379  0.74731  1.0000
  H   H355      1.0  0.43102  0.40255  0.51960  1.0000
  C   C212      1.0  0.47377  0.51617  0.94673  1.0000
  C   C213      1.0  0.40632  0.56584  0.97408  1.0000
  C   C214      1.0  0.40323  0.56181  0.92879  1.0000
  H   H356      1.0  0.49139  0.55274  0.79927  1.0000
  C   C215      1.0  0.48148  0.50061  0.67758  1.0000
  H   H357      1.0  0.48364  0.61228  0.87519  1.0000
  H   H358      1.0  0.10335  0.47792  0.62010  1.0000
  H   H359      1.0  0.00346  0.53082  0.49024  1.0000
  H   H360      1.0  0.11867  0.46813  0.56459  1.0000
  H   H361      1.0  0.03341  0.46701  0.63435  1.0000
  C   C216      1.0  0.22389  0.41177  0.50437  1.0000
  C   C217      1.0  0.36692  0.57806  0.63277  1.0000
  H   H362      1.0  0.06252  0.56848  0.48626  1.0000
  H   H363      1.0  0.36626  0.53366  0.68672  1.0000
  C   C218      1.0  0.99871  0.61793  0.52219  1.0000
  H   H364      1.0  0.44827  0.63140  0.91531  1.0000
  H   H365      1.0  0.45100  0.54265  0.80590  1.0000
  H   H366      1.0  0.13883  0.43559  0.60139  1.0000
  C   C219      1.0  0.39929  0.58538  0.95910  1.0000
  H   H367      1.0  0.46828  0.42630  0.78175  1.0000
  H   H368      1.0  0.43047  0.59433  0.86075  1.0000
  C   C220      1.0  0.13405  0.45348  0.60524  1.0000
  H   H369      1.0  0.45707  0.61267  0.83185  1.0000
  N   N15       1.0  0.33640  0.43791  0.75967  1.0000
  C   C221      1.0  0.35333  0.41606  0.75315  1.0000
  C   C222      1.0  0.34805  0.44857  0.77362  1.0000
  C   C223      1.0  0.33378  0.45357  0.73727  1.0000
  C   C224      1.0  0.31238  0.43178  0.77344  1.0000
  C   C225      1.0  0.34643  0.40361  0.73625  1.0000
  C   C226      1.0  0.35234  0.43428  0.79681  1.0000
  C   C227      1.0  0.32644  0.47952  0.73856  1.0000
  C   C228      1.0  0.29298  0.45105  0.78441  1.0000
  H   H370      1.0  0.37203  0.41941  0.74497  1.0000
  H   H371      1.0  0.35489  0.40329  0.76891  1.0000
  H   H372      1.0  0.33760  0.46545  0.77810  1.0000
  H   H373      1.0  0.36583  0.45235  0.76275  1.0000
  H   H374      1.0  0.35123  0.45167  0.72381  1.0000
  H   H375      1.0  0.32050  0.44877  0.72950  1.0000
  H   H376      1.0  0.30376  0.42526  0.76212  1.0000
  H   H377      1.0  0.31465  0.41704  0.78744  1.0000
  H   H378      1.0  0.34539  0.41442  0.71928  1.0000
  H   H379      1.0  0.36080  0.38845  0.73221  1.0000
  H   H380      1.0  0.32926  0.39713  0.74417  1.0000
  H   H381      1.0  0.36670  0.41895  0.79381  1.0000
  H   H382      1.0  0.35894  0.44480  0.80631  1.0000
  H   H383      1.0  0.33553  0.42929  0.80854  1.0000
  H   H384      1.0  0.32265  0.48842  0.72158  1.0000
  H   H385      1.0  0.34151  0.48654  0.74109  1.0000
  H   H386      1.0  0.30995  0.48397  0.75228  1.0000
  H   H387      1.0  0.28217  0.46067  0.77181  1.0000
  H   H388      1.0  0.30028  0.46310  0.79123  1.0000
  H   H389      1.0  0.28055  0.44336  0.79999  1.0000
  H   H390      1.0  0.10858  0.51000  0.55818  1.0000
  C   C229      1.0  0.45537  0.62706  0.84164  1.0000
  C   C230      1.0  0.01780  0.54337  0.52597  1.0000
  H   H391      1.0  0.44996  0.57267  0.80074  1.0000
  H   H392      1.0  0.46205  0.59763  0.89529  1.0000
  C   C231      1.0  0.10164  0.50110  0.57590  1.0000
  C   C232      1.0  0.47854  0.58156  0.86461  1.0000
  H   H393      1.0  0.48961  0.60189  0.74444  1.0000
  H   H394      1.0  0.49512  0.62395  0.83614  1.0000
  S   S70       1.0  0.47871  0.33452  0.50434  1.0000
  C   C233      1.0  0.40509  0.35952  0.64041  1.0000
  C   C234      1.0  0.37129  0.40253  0.56986  1.0000
  C   C235      1.0  0.09346  0.43785  0.59172  1.0000
  C   C236      1.0  0.45025  0.49512  0.73542  1.0000
  C   C237      1.0  0.47366  0.45185  0.97032  1.0000
  H   H395      1.0  0.40257  0.40094  0.49862  1.0000
  N   N16       1.0  0.33975  0.38131  0.60017  1.0000
  H   H396      1.0  0.37876  0.37354  0.59550  1.0000
  H   H397      1.0  0.36010  0.40899  0.55687  1.0000
  Fe  Fe39      1.0  0.44182  0.47674  0.90225  1.0000
  C   C238      1.0  0.47455  0.45593  0.94626  1.0000
  C   C239      1.0  0.36506  0.38004  0.58492  1.0000
  C   C240      1.0  0.41172  0.54434  0.96635  1.0000
  S   S71       1.0  0.45610  0.50957  0.89113  1.0000
  C   C241      1.0  0.33608  0.36086  0.49194  1.0000
  C   C242      1.0  0.07716  0.43496  0.57622  1.0000
  H   H398      1.0  0.35217  0.35333  0.62497  1.0000
  H   H399      1.0  0.11237  0.43106  0.58270  1.0000
  C   C243      1.0  0.23281  0.44920  0.48242  1.0000
  C   C244      1.0  0.33776  0.35844  0.61506  1.0000
  C   C245      1.0  0.32207  0.38739  0.58469  1.0000
  H   H400      1.0  0.39404  0.54087  0.65177  1.0000
  H   H401      1.0  0.06066  0.45103  0.64179  1.0000
  H   H402      1.0  0.43559  0.49931  0.75093  1.0000
  C   C246      1.0  0.10048  0.47628  0.57397  1.0000
  C   C247      1.0  0.46613  0.47163  0.74034  1.0000
  H   H403      1.0  0.34446  0.51786  0.63846  1.0000
  H   H404      1.0  0.43089  0.51619  0.58939  1.0000
  H   H405      1.0  0.37157  0.51694  0.58660  1.0000
  H   H406      1.0  0.47876  0.55249  0.71624  1.0000
  S   S72       1.0  0.40346  0.49311  0.90023  1.0000
  Fe  Fe40      1.0  0.41866  0.52541  0.88757  1.0000
  C   C248      1.0  0.46836  0.60348  0.87638  1.0000
  H   H407      1.0  0.36855  0.36754  0.57250  1.0000
  H   H408      1.0  0.32729  0.37600  0.57090  1.0000
  S   S73       1.0  0.44813  0.45621  0.93674  1.0000
  S   S74       1.0  0.40193  0.55974  0.90012  1.0000
  H   H409      1.0  0.34424  0.54111  0.66991  1.0000
  H   H410      1.0  0.39342  0.51227  0.65132  1.0000
  H   H411      1.0  0.40736  0.49987  0.60145  1.0000
  H   H412      1.0  0.34481  0.50609  0.60195  1.0000
  H   H413      1.0  0.49486  0.40900  0.76705  1.0000
  C   C249      1.0  0.00352  0.53317  0.56765  1.0000
  H   H414      1.0  0.44696  0.55799  0.77848  1.0000
  H   H415      1.0  0.44973  0.46316  0.78541  1.0000
  S   S75       1.0  0.49559  0.50716  0.82640  1.0000
  C   C250      1.0  0.36178  0.51753  0.62482  1.0000
  C   C251      1.0  0.41565  0.51341  0.60476  1.0000
  C   C252      1.0  0.35527  0.51962  0.60111  1.0000
  H   H416      1.0  0.37218  0.50001  0.62846  1.0000
  H   H417      1.0  0.42385  0.50720  0.61997  1.0000
  H   H418      1.0  0.45464  0.55981  0.95741  1.0000
  H   H419      1.0  0.34356  0.53620  0.59699  1.0000
  N   N17       1.0  0.37510  0.53548  0.62692  1.0000
  C   C253      1.0  0.39784  0.53628  0.60765  1.0000
  H   H420      1.0  0.39343  0.54314  0.59041  1.0000
  C   C254      1.0  0.36090  0.52888  0.67206  1.0000
  H   H421      1.0  0.44107  0.49429  0.72161  1.0000
  H   H422      1.0  0.33993  0.55778  0.63503  1.0000
  H   H423      1.0  0.35639  0.51144  0.67720  1.0000
  C   C255      1.0  0.38204  0.52957  0.65006  1.0000
  H   H424      1.0  0.38998  0.35299  0.65268  1.0000
  N   N18       1.0  0.44805  0.61967  0.86761  1.0000
  H   H425      1.0  0.08868  0.47745  0.56184  1.0000
  H   H426      1.0  0.06493  0.48827  0.61406  1.0000
  H   H427      1.0  0.35733  0.56452  0.60663  1.0000
  H   H428      1.0  0.40842  0.54834  0.61045  1.0000
  C   C256      1.0  0.39727  0.58329  0.93670  1.0000
  C   C257      1.0  0.10644  0.46101  0.61392  1.0000
  H   H429      1.0  0.42405  0.59775  0.89032  1.0000
  C   C258      1.0  0.46533  0.47200  0.78207  1.0000
  N   N19       1.0  0.02046  0.64831  0.49263  1.0000
  H   H430      1.0  0.08855  0.42957  0.55939  1.0000
  H   H431      1.0  0.35466  0.59445  0.62895  1.0000
  H   H432      1.0  0.45333  0.45939  0.74597  1.0000
  H   H433      1.0  0.00618  0.52316  0.58402  1.0000
  H   H434      1.0  0.46424  0.54493  0.74569  1.0000
  C   C259      1.0  0.47421  0.55782  0.73383  1.0000
  H   H435      1.0  0.10077  0.44898  0.62997  1.0000
  H   H436      1.0  0.46276  0.59230  0.76085  1.0000
  H   H437      1.0  0.41505  0.52568  0.93787  1.0000
  H   H438      1.0  0.11421  0.50189  0.58660  1.0000
  H   H439      1.0  0.46467  0.57064  0.86765  1.0000
  C   C260      1.0  0.40245  0.62287  0.87017  1.0000
  H   H440      1.0  0.18738  0.44524  0.49093  1.0000
  C   C261      1.0  0.47917  0.63668  0.83265  1.0000
  N   N20       1.0  0.48821  0.54325  0.96687  1.0000
  H   H441      1.0  0.47303  0.64146  0.95958  1.0000
  H   H442      1.0  0.00657  0.64828  0.53013  1.0000
  N   N21       1.0  0.22451  0.42754  0.48141  1.0000
  H   H443      1.0  0.04161  0.61390  0.49234  1.0000
  H   H444      1.0  0.47879  0.59385  0.79843  1.0000
  H   H445      1.0  0.04754  0.63013  0.51138  1.0000
  H   H446      1.0  0.23812  0.42866  0.52602  1.0000
  H   H447      1.0  0.47543  0.46326  0.79565  1.0000
  H   H448      1.0  0.48645  0.58533  0.84562  1.0000
  H   H449      1.0  0.47798  0.46717  0.72324  1.0000
  H   H450      1.0  0.26143  0.41048  0.50789  1.0000
  S   S76       1.0  0.30866  0.42838  0.48786  1.0000
  C   C262      1.0  0.49427  0.45138  0.97861  1.0000
  H   H451      1.0  0.46746  0.57783  0.96746  1.0000
  C   C263      1.0  0.42133  0.40026  0.48748  1.0000
  H   H452      1.0  0.25148  0.44552  0.48510  1.0000
  H   H453      1.0  0.46320  0.50709  0.96265  1.0000
  H   H454      1.0  0.24157  0.39840  0.53318  1.0000
  H   H455      1.0  0.39492  0.60202  0.96495  1.0000
  H   H456      1.0  0.18437  0.40287  0.49611  1.0000
  C   C264      1.0  0.43832  0.39287  0.50442  1.0000
  H   H457      1.0  0.42143  0.62289  0.91320  1.0000
  C   C265      1.0  0.24252  0.41249  0.51829  1.0000
  C   C266      1.0  0.47157  0.65140  0.94299  1.0000
  H   H458      1.0  0.32567  0.34069  0.59213  1.0000
  H   H459      1.0  0.39547  0.63437  0.88384  1.0000
  H   H460      1.0  0.45593  0.51034  0.77286  1.0000
  H   H461      1.0  0.43379  0.35166  0.48763  1.0000
  N   N22       1.0  0.48116  0.46925  0.75793  1.0000
  H   H462      1.0  0.46083  0.50908  0.72853  1.0000
  C   C267      1.0  0.48103  0.60472  0.78121  1.0000
  H   H463      1.0  0.49335  0.57112  0.87254  1.0000
  H   H464      1.0  0.46422  0.50051  0.80037  1.0000
  N   N23       1.0  0.49571  0.56742  0.76269  1.0000
  C   C268      1.0  0.48933  0.64607  0.92269  1.0000
  C   C269      1.0  0.00196  0.64317  0.51514  1.0000
  H   H465      1.0  0.48134  0.50382  0.93397  1.0000
  H   H466      1.0  0.47822  0.65247  0.83999  1.0000
  H   H467      1.0  0.01439  0.50096  0.49679  1.0000
  C   C270      1.0  0.49615  0.44539  0.75862  1.0000
  H   H468      1.0  0.01414  0.60715  0.52891  1.0000
  H   H469      1.0  0.40354  0.63300  0.85261  1.0000
  C   C271      1.0  0.48183  0.59163  0.76120  1.0000
  C   C272      1.0  0.48443  0.55206  0.78384  1.0000
  C   C273      1.0  0.32430  0.38295  0.48532  1.0000
  H   H470      1.0  0.38882  0.61171  0.87283  1.0000
  H   H471      1.0  0.48987  0.53382  0.78082  1.0000
  C   C274      1.0  0.33131  0.83417  0.38128  1.0000
  C   C275      1.0  0.02171  0.65764  0.44813  1.0000
  H   H472      1.0  0.47325  0.73590  0.33777  1.0000
  S   S77       1.0  0.39837  0.94515  0.36742  1.0000
  C   C276      1.0  0.38310  0.67630  0.10109  1.0000
  Fe  Fe41      1.0  0.38138  0.76833  0.37725  1.0000
  S   S78       1.0  0.41159  0.74246  0.36029  1.0000
  S   S79       1.0  0.34255  0.76243  0.38902  1.0000
  Fe  Fe42      1.0  0.41340  0.80500  0.36892  1.0000
  S   S80       1.0  0.44547  0.78194  0.34991  1.0000
  S   S81       1.0  0.42135  0.83567  0.38115  1.0000
  Fe  Fe43      1.0  0.42017  0.77190  0.33263  1.0000
  S   S82       1.0  0.42923  0.76760  0.29414  1.0000
  Fe  Fe44      1.0  0.43450  0.75429  0.37886  1.0000
  S   S83       1.0  0.46607  0.73139  0.39137  1.0000
  S   S84       1.0  0.38880  0.79777  0.34874  1.0000
  S   S85       1.0  0.40337  0.77737  0.39887  1.0000
  S   S86       1.0  0.32150  0.66301  0.39067  1.0000
  C   C277      1.0  0.35938  0.83827  0.40428  1.0000
  H   H473      1.0  0.34008  0.69373  0.16739  1.0000
  H   H474      1.0  0.47476  0.86381  0.41076  1.0000
  H   H475      1.0  0.45588  0.70679  0.35801  1.0000
  C   C278      1.0  0.33251  0.68613  0.18556  1.0000
  H   H476      1.0  0.38800  0.67833  0.31909  1.0000
  S   S87       1.0  0.26422  0.66870  0.35990  1.0000
  C   C279      1.0  0.30574  0.80569  0.42201  1.0000
  C   C280      1.0  0.45542  0.66190  0.10904  1.0000
  C   C281      1.0  0.32821  0.70032  0.31965  1.0000
  H   H477      1.0  0.48636  0.69531  0.28083  1.0000
  H   H478      1.0  0.33079  0.71836  0.31628  1.0000
  S   S88       1.0  0.40313  0.68090  0.15958  1.0000
  H   H479      1.0  0.49474  0.78553  0.44570  1.0000
  H   H480      1.0  0.43882  0.69784  0.10875  1.0000
  H   H481      1.0  0.35303  0.67937  0.27776  1.0000
  C   C282      1.0  0.49481  0.73582  0.44467  1.0000
  C   C283      1.0  0.45286  0.68690  0.09692  1.0000
  H   H482      1.0  0.32018  0.69725  0.33883  1.0000
  H   H483      1.0  0.29678  0.85292  0.41521  1.0000
  H   H484      1.0  0.33835  0.69541  0.19683  1.0000
  H   H485      1.0  0.45449  0.85286  0.45183  1.0000
  H   H486      1.0  0.01031  0.67443  0.44412  1.0000
  C   C284      1.0  0.43043  0.74073  0.28565  1.0000
  C   C285      1.0  0.42896  0.72110  0.30214  1.0000
  C   C286      1.0  0.43204  0.69962  0.29503  1.0000
  C   C287      1.0  0.43618  0.69745  0.27135  1.0000
  C   C288      1.0  0.43690  0.71708  0.25473  1.0000
  C   C289      1.0  0.43421  0.73866  0.26189  1.0000
  H   H487      1.0  0.42624  0.72227  0.32036  1.0000
  H   H488      1.0  0.43162  0.68450  0.30796  1.0000
  H   H489      1.0  0.44025  0.71558  0.23638  1.0000
  H   H490      1.0  0.43543  0.75374  0.24895  1.0000
  C   C290      1.0  0.33692  0.73489  0.38859  1.0000
  C   C291      1.0  0.31409  0.73237  0.38673  1.0000
  C   C292      1.0  0.30909  0.71053  0.38687  1.0000
  C   C293      1.0  0.32678  0.69102  0.38939  1.0000
  C   C294      1.0  0.34952  0.69356  0.39135  1.0000
  C   C295      1.0  0.35466  0.71537  0.39074  1.0000
  H   H491      1.0  0.30022  0.74737  0.38517  1.0000
  H   H492      1.0  0.29146  0.70878  0.38547  1.0000
  H   H493      1.0  0.37218  0.71702  0.39248  1.0000
  C   C296      1.0  0.46905  0.73572  0.41863  1.0000
  H   H494      1.0  0.38323  0.84377  0.42427  1.0000
  H   H495      1.0  0.30385  0.80338  0.40470  1.0000
  C   C297      1.0  0.40527  0.91473  0.37064  1.0000
  C   C298      1.0  0.39523  0.90266  0.35879  1.0000
  C   C299      1.0  0.40028  0.87847  0.36129  1.0000
  C   C300      1.0  0.41504  0.86612  0.37610  1.0000
  C   C301      1.0  0.42491  0.87825  0.38800  1.0000
  C   C302      1.0  0.42026  0.90235  0.38516  1.0000
  H   H496      1.0  0.38374  0.91210  0.34740  1.0000
  H   H497      1.0  0.39288  0.86948  0.35170  1.0000
  H   H498      1.0  0.43629  0.86899  0.39948  1.0000
  H   H499      1.0  0.42809  0.91138  0.39440  1.0000
  H   H500      1.0  0.37642  0.68820  0.08736  1.0000
  H   H501      1.0  0.48571  0.67632  0.05911  1.0000
  C   C303      1.0  0.47436  0.74296  0.46192  1.0000
  C   C304      1.0  0.36707  0.71038  0.27499  1.0000
  H   H502      1.0  0.30809  0.88550  0.39133  1.0000
  C   C305      1.0  0.47328  0.84344  0.44572  1.0000
  C   C306      1.0  0.38907  0.68458  0.11881  1.0000
  H   H503      1.0  0.45331  0.79220  0.46092  1.0000
  H   H504      1.0  0.38730  0.70284  0.11840  1.0000
  C   C307      1.0  0.48521  0.85923  0.42447  1.0000
  C   C308      1.0  0.44864  0.74281  0.43591  1.0000
  N   N24       1.0  0.33393  0.83566  0.40537  1.0000
  C   C309      1.0  0.31511  0.85454  0.41624  1.0000
  H   H505      1.0  0.43078  0.74539  0.43270  1.0000
  Fe  Fe45      1.0  0.46195  0.95859  0.40178  1.0000
  N   N25       1.0  0.47270  0.81953  0.44203  1.0000
  S   S89       1.0  0.45582  0.66140  0.19270  1.0000
  H   H506      1.0  0.31351  0.85286  0.43541  1.0000
  Fe  Fe46      1.0  0.42003  0.96492  0.38066  1.0000
  H   H507      1.0  0.36367  0.84511  0.35682  1.0000
  H   H508      1.0  0.31534  0.70146  0.28776  1.0000
  H   H509      1.0  0.47804  0.67560  0.13738  1.0000
  H   H510      1.0  0.37255  0.82366  0.39676  1.0000
  H   H511      1.0  0.35286  0.72444  0.28186  1.0000
  C   C310      1.0  0.45129  0.74624  0.45755  1.0000
  H   H512      1.0  0.31186  0.83721  0.38087  1.0000
  Fe  Fe47      1.0  0.41945  0.65838  0.18815  1.0000
  H   H513      1.0  0.36329  0.67857  0.39339  1.0000
  H   H514      1.0  0.30546  0.78869  0.43296  1.0000
  H   H515      1.0  0.29330  0.71386  0.31121  1.0000
  H   H516      1.0  0.35217  0.85415  0.43646  1.0000
  S   S90       1.0  0.42234  0.95979  0.41823  1.0000
  H   H517      1.0  0.36465  0.85352  0.39221  1.0000
  H   H518      1.0  0.44833  0.66222  0.12818  1.0000
  H   H519      1.0  0.33818  0.84893  0.34463  1.0000
  C   C311      1.0  0.46921  0.93391  0.45938  1.0000
  C   C312      1.0  0.36467  0.83999  0.42773  1.0000
  H   H520      1.0  0.28981  0.81761  0.43044  1.0000
  H   H521      1.0  0.34876  0.65713  0.20680  1.0000
  C   C313      1.0  0.32985  0.81323  0.42054  1.0000
  S   S91       1.0  0.40130  0.65836  0.22643  1.0000
  H   H522      1.0  0.46741  0.73276  0.31133  1.0000
  H   H523      1.0  0.43520  0.81994  0.46097  1.0000
  H   H524      1.0  0.33024  0.81369  0.43889  1.0000
  H   H525      1.0  0.36468  0.67757  0.34517  1.0000
  C   C314      1.0  0.39683  0.66946  0.13722  1.0000
  H   H526      1.0  0.33664  0.88224  0.39919  1.0000
  H   H527      1.0  0.33871  0.86848  0.36330  1.0000
  H   H528      1.0  0.34472  0.79902  0.41437  1.0000
  H   H529      1.0  0.38501  0.71349  0.27545  1.0000
  S   S92       1.0  0.00662  0.68168  0.37428  1.0000
  H   H530      1.0  0.30966  0.89072  0.41945  1.0000
  C   C315      1.0  0.34369  0.85031  0.36063  1.0000
  H   H531      1.0  0.45552  0.92566  0.45694  1.0000
  H   H532      1.0  0.48758  0.72556  0.27472  1.0000
  H   H533      1.0  0.36656  0.71168  0.25638  1.0000
  H   H534      1.0  0.43542  0.75162  0.47090  1.0000
  N   N26       1.0  0.35179  0.68387  0.31336  1.0000
  H   H535      1.0  0.34311  0.66605  0.14328  1.0000
  H   H536      1.0  0.45762  0.67679  0.35963  1.0000
  C   C316      1.0  0.48873  0.93840  0.44071  1.0000
  H   H537      1.0  0.03756  0.67760  0.47509  1.0000
  C   C317      1.0  0.46327  0.79695  0.41398  1.0000
  H   H538      1.0  0.48514  0.87569  0.43024  1.0000
  H   H539      1.0  0.46926  0.69449  0.09329  1.0000
  H   H540      1.0  0.30132  0.67059  0.22600  1.0000
  H   H541      1.0  0.36447  0.82360  0.43967  1.0000
  H   H542      1.0  0.38507  0.71046  0.33850  1.0000
  H   H543      1.0  0.37455  0.72226  0.31270  1.0000
  H   H544      1.0  0.48273  0.84282  0.45979  1.0000
  C   C318      1.0  0.48236  0.73222  0.31968  1.0000
  S   S93       1.0  0.44211  0.66958  0.26380  1.0000
  S   S94       1.0  0.45987  0.96228  0.36470  1.0000
  C   C319      1.0  0.36922  0.68657  0.32695  1.0000
  C   C320      1.0  0.36314  0.68629  0.28745  1.0000
  H   H545      1.0  0.38143  0.67531  0.28387  1.0000
  C   C321      1.0  0.48293  0.69085  0.32935  1.0000
  H   H546      1.0  0.35350  0.71930  0.34097  1.0000
  H   H547      1.0  0.46053  0.79919  0.39598  1.0000
  C   C322      1.0  0.46484  0.82027  0.41981  1.0000
  C   C323      1.0  0.45364  0.81028  0.46197  1.0000
  C   C324      1.0  0.37042  0.71117  0.32960  1.0000
  S   S95       1.0  0.19763  0.65769  0.39835  1.0000
  H   H548      1.0  0.44689  0.68845  0.08048  1.0000
  H   H549      1.0  0.14637  0.65677  0.41223  1.0000
  H   H550      1.0  0.49393  0.67347  0.32736  1.0000
  H   H551      1.0  0.31690  0.66535  0.13352  1.0000
  H   H552      1.0  0.48004  0.78415  0.41438  1.0000
  H   H553      1.0  0.31255  0.69022  0.18962  1.0000
  S   S96       1.0  0.49069  0.93168  0.41333  1.0000
  H   H554      1.0  0.30095  0.68362  0.31325  1.0000
  C   C325      1.0  0.49522  0.66335  0.13266  1.0000
  H   H555      1.0  0.46923  0.69283  0.31899  1.0000
  H   H556      1.0  0.33889  0.81654  0.37664  1.0000
  C   C326      1.0  0.46864  0.69054  0.35505  1.0000
  C   C327      1.0  0.31774  0.87944  0.40563  1.0000
  C   C328      1.0  0.30862  0.69951  0.30702  1.0000
  C   C329      1.0  0.49493  0.75276  0.30749  1.0000
  Fe  Fe48      1.0  0.43819  0.65786  0.23142  1.0000
  H   H557      1.0  0.44668  0.83133  0.42060  1.0000
  H   H558      1.0  0.44741  0.79021  0.42576  1.0000
  C   C330      1.0  0.49212  0.73196  0.42315  1.0000
  H   H559      1.0  0.48091  0.76851  0.30713  1.0000
  H   H560      1.0  0.04051  0.66006  0.44513  1.0000
  H   H561      1.0  0.47672  0.82837  0.40421  1.0000
  H   H562      1.0  0.48062  0.68690  0.36738  1.0000
  H   H563      1.0  0.28035  0.66570  0.21037  1.0000
  H   H564      1.0  0.30079  0.66688  0.17369  1.0000
  C   C331      1.0  0.34612  0.66000  0.32092  1.0000
  C   C332      1.0  0.34366  0.66042  0.18972  1.0000
  H   H565      1.0  0.36106  0.65817  0.17637  1.0000
  C   C333      1.0  0.29280  0.65764  0.22189  1.0000
  H   H566      1.0  0.33367  0.65683  0.31121  1.0000
  H   H567      1.0  0.32116  0.65711  0.26019  1.0000
  H   H568      1.0  0.33643  0.65786  0.33972  1.0000
  H   H569      1.0  0.99733  0.66153  0.32573  1.0000
  C   C334      1.0  0.49664  0.80387  0.44270  1.0000
  C   C335      1.0  0.46759  0.93991  0.48132  1.0000
  H   H570      1.0  0.40325  0.97567  0.60226  1.0000
  H   H571      1.0  0.03284  0.67337  0.50582  1.0000
  C   C336      1.0  0.45167  0.68356  0.92025  1.0000
  H   H572      1.0  0.45066  0.96694  0.58820  1.0000
  H   H573      1.0  0.46855  0.68895  0.88351  1.0000
  C   C337      1.0  0.41492  0.98346  0.58615  1.0000
  H   H574      1.0  0.41750  0.97296  0.57202  1.0000
  H   H575      1.0  0.46846  0.98033  0.55036  1.0000
  C   C338      1.0  0.48808  0.65941  0.90114  1.0000
  H   H576      1.0  0.43707  0.69800  0.91917  1.0000
  C   C339      1.0  0.46950  0.67843  0.90007  1.0000
  S   S97       1.0  0.42840  0.67590  0.96620  1.0000
  C   C340      1.0  0.45231  0.66981  0.94172  1.0000
  S   S98       1.0  0.47692  0.74869  0.48880  1.0000
  H   H577      1.0  0.00706  0.70821  0.48904  1.0000
  C   C341      1.0  0.02450  0.67235  0.49142  1.0000
  H   H578      1.0  0.45290  0.93601  0.49600  1.0000
  C   C342      1.0  0.00163  0.69114  0.49277  1.0000
  H   H579      1.0  0.45434  0.82809  0.49087  1.0000
  H   H580      1.0  0.47378  0.80013  0.48996  1.0000
  S   S99       1.0  0.48559  0.95631  0.51154  1.0000
  H   H581      1.0  0.48927  0.96425  0.58818  1.0000
  C   C343      1.0  0.48541  0.95052  0.48421  1.0000
  C   C344      1.0  0.45640  0.81048  0.48687  1.0000
  H   H582      1.0  0.44187  0.80248  0.49972  1.0000
  C   C345      1.0  0.43945  0.98407  0.59106  1.0000
  H   H583      1.0  0.43659  0.98401  0.61019  1.0000
  C   C346      1.0  0.49541  0.98089  0.58181  1.0000
  Fe  Fe49      1.0  0.59194  0.08790  0.37107  1.0000
  S   S100      1.0  0.58093  0.10898  0.33913  1.0000
  S   S101      1.0  0.61705  0.05380  0.37024  1.0000
  Fe  Fe50      1.0  0.56174  0.12157  0.40266  1.0000
  S   S102      1.0  0.54718  0.14524  0.37411  1.0000
  S   S103      1.0  0.55125  0.12631  0.44032  1.0000
  Fe  Fe51      1.0  0.54349  0.11305  0.36260  1.0000
  H   H584      1.0  0.54348  0.18549  0.44934  1.0000
  Fe  Fe52      1.0  0.58557  0.13932  0.35352  1.0000
  S   S104      1.0  0.59876  0.17142  0.33277  1.0000
  S   S105      1.0  0.55431  0.09012  0.39332  1.0000
  S   S106      1.0  0.60041  0.11761  0.38302  1.0000
  C   C347      1.0  0.62399  0.00830  0.38564  1.0000
  C   C348      1.0  0.52834  0.23109  0.45799  1.0000
  S   S107      1.0  0.59141  0.29883  0.40876  1.0000
  H   H585      1.0  0.58980  0.07837  0.43168  1.0000
  S   S108      1.0  0.63397  0.30529  0.36094  1.0000
  Fe  Fe53      1.0  0.61120  0.27848  0.37930  1.0000
  S   S109      1.0  0.62207  0.24017  0.38879  1.0000
  N   N27       1.0  0.60410  0.04589  0.47145  1.0000
  Fe  Fe54      1.0  0.60390  0.31980  0.34255  1.0000
  S   S110      1.0  0.58323  0.29122  0.35846  1.0000
  H   H586      1.0  0.52913  0.04534  0.43549  1.0000
  C   C349      1.0  0.60531  0.19036  0.34848  1.0000
  C   C350      1.0  0.60631  0.21315  0.33838  1.0000
  C   C351      1.0  0.61130  0.22863  0.35058  1.0000
  C   C352      1.0  0.61608  0.22121  0.37271  1.0000
  C   C353      1.0  0.61584  0.19823  0.38247  1.0000
  C   C354      1.0  0.60994  0.18300  0.37067  1.0000
  H   H587      1.0  0.60321  0.21875  0.32104  1.0000
  H   H588      1.0  0.61206  0.24613  0.34269  1.0000
  H   H589      1.0  0.62001  0.19219  0.39936  1.0000
  H   H590      1.0  0.60959  0.16542  0.37850  1.0000
  H   H591      1.0  0.53917  0.25679  0.33070  1.0000
  H   H592      1.0  0.53854  0.24303  0.37772  1.0000
  C   C355      1.0  0.55036  0.00986  0.37258  1.0000
  H   H593      1.0  0.56205  0.24492  0.30745  1.0000
  H   H594      1.0  0.60863  0.09080  0.44397  1.0000
  Fe  Fe55      1.0  0.56433  0.31268  0.38701  1.0000
  H   H595      1.0  0.56335  0.03086  0.31405  1.0000
  H   H596      1.0  0.54690  0.27045  0.43270  1.0000
  C   C356      1.0  0.55716  0.99021  0.33771  1.0000
  C   C357      1.0  0.61704  0.05273  0.44649  1.0000
  C   C358      1.0  0.52037  0.12574  0.44859  1.0000
  H   H597      1.0  0.56560  0.01043  0.43555  1.0000
  H   H598      1.0  0.52107  0.22700  0.41798  1.0000
  H   H599      1.0  0.52024  0.26567  0.46852  1.0000
  H   H600      1.0  0.51615  0.13195  0.41325  1.0000
  H   H601      1.0  0.58247  0.05154  0.33571  1.0000
  H   H602      1.0  0.53123  0.01872  0.37442  1.0000
  C   C359      1.0  0.60911  0.02943  0.38956  1.0000
  C   C360      1.0  0.58812  0.03027  0.40780  1.0000
  C   C361      1.0  0.58197  0.00990  0.42175  1.0000
  H   H603      1.0  0.51695  0.21869  0.45761  1.0000
  H   H604      1.0  0.58045  0.21473  0.41748  1.0000
  C   C362      1.0  0.59359  0.28034  0.24211  1.0000
  H   H605      1.0  0.57667  0.04649  0.41113  1.0000
  H   H606      1.0  0.63677  0.05124  0.44513  1.0000
  H   H607      1.0  0.56629  0.99025  0.31886  1.0000
  H   H608      1.0  0.57312  0.25528  0.41664  1.0000
  H   H609      1.0  0.60054  0.28703  0.30994  1.0000
  H   H610      1.0  0.55562  0.06812  0.32821  1.0000
  C   C363      1.0  0.61506  0.00305  0.46510  1.0000
  S   S111      1.0  0.52494  0.30992  0.40169  1.0000
  N   N28       1.0  0.54677  0.23400  0.43505  1.0000
  N   N29       1.0  0.56334  0.00893  0.34725  1.0000
  C   C364      1.0  0.51688  0.04969  0.42339  1.0000
  H   H611      1.0  0.52770  0.04403  0.40654  1.0000
  H   H612      1.0  0.55145  0.07291  0.45900  1.0000
  H   H613      1.0  0.62724  0.29765  0.26936  1.0000
  H   H614      1.0  0.58129  0.28742  0.23016  1.0000
  C   C365      1.0  0.55748  0.25806  0.31935  1.0000
  C   C366      1.0  0.57884  0.27303  0.26709  1.0000
  H   H615      1.0  0.55424  0.05520  0.35772  1.0000
  S   S112      1.0  0.50983  0.11111  0.35143  1.0000
  H   H616      1.0  0.60302  0.25940  0.30233  1.0000
  H   H617      1.0  0.56273  0.25051  0.38586  1.0000
  C   C367      1.0  0.56548  0.21242  0.43317  1.0000
  H   H618      1.0  0.57236  0.26951  0.45650  1.0000
  H   H619      1.0  0.56062  0.22083  0.38775  1.0000
  C   C368      1.0  0.60809  0.07682  0.43466  1.0000
  C   C369      1.0  0.57767  0.04614  0.47350  1.0000
  H   H620      1.0  0.57441  0.20859  0.44807  1.0000
  N   N30       1.0  0.57881  0.28630  0.28608  1.0000
  C   C370      1.0  0.55730  0.28263  0.30624  1.0000
  C   C371      1.0  0.62583  0.27988  0.27768  1.0000
  C   C372      1.0  0.60140  0.27787  0.29521  1.0000
  H   H621      1.0  0.51161  0.06715  0.46276  1.0000
  H   H622      1.0  0.59623  0.00171  0.46571  1.0000
  H   H623      1.0  0.62575  0.00521  0.44677  1.0000
  H   H624      1.0  0.59504  0.01659  0.35439  1.0000
  H   H625      1.0  0.63539  0.02105  0.47850  1.0000
  H   H626      1.0  0.51117  0.06849  0.42003  1.0000
  H   H627      1.0  0.57170  0.17619  0.43002  1.0000
  H   H628      1.0  0.64022  0.00752  0.37162  1.0000
  H   H629      1.0  0.54273  0.98963  0.40698  1.0000
  C   C373      1.0  0.56261  0.05253  0.33928  1.0000
  H   H630      1.0  0.62031  0.07959  0.41702  1.0000
  H   H631      1.0  0.59265  0.24426  0.44638  1.0000
  C   C374      1.0  0.50731  0.12917  0.43140  1.0000
  H   H632      1.0  0.62992  0.26824  0.26433  1.0000
  H   H633      1.0  0.55997  0.27401  0.26560  1.0000
  H   H634      1.0  0.57001  0.25399  0.33121  1.0000
  H   H635      1.0  0.55526  0.29394  0.31965  1.0000
  C   C375      1.0  0.53002  0.99170  0.33902  1.0000
  C   C376      1.0  0.51074  0.25307  0.46512  1.0000
  H   H636      1.0  0.53713  0.22326  0.47265  1.0000
  C   C377      1.0  0.55586  0.03149  0.33311  1.0000
  H   H637      1.0  0.53593  0.03522  0.33514  1.0000
  C   C378      1.0  0.55608  0.19059  0.43260  1.0000
  H   H638      1.0  0.54017  0.28748  0.30020  1.0000
  H   H639      1.0  0.61563  0.04107  0.43486  1.0000
  C   C379      1.0  0.50872  0.12144  0.47213  1.0000
  C   C380      1.0  0.53385  0.23899  0.41544  1.0000
  H   H640      1.0  0.60529  0.29286  0.24073  1.0000
  H   H641      1.0  0.60379  0.02195  0.31023  1.0000
  C   C381      1.0  0.55941  0.25365  0.43348  1.0000
  C   C382      1.0  0.55015  0.23819  0.39047  1.0000
  H   H642      1.0  0.50033  0.26115  0.45180  1.0000
  H   H643      1.0  0.58564  0.25447  0.27187  1.0000
  H   H644      1.0  0.64041  0.27435  0.28736  1.0000
  H   H645      1.0  0.55858  0.02042  0.38057  1.0000
  C   C383      1.0  0.59020  0.00421  0.34568  1.0000
  C   C384      1.0  0.60686  0.00494  0.32085  1.0000
  H   H646      1.0  0.60527  0.99140  0.31148  1.0000
  H   H647      1.0  0.62596  0.00177  0.32233  1.0000
  H   H648      1.0  0.60561  0.26501  0.23496  1.0000
  H   H649      1.0  0.52241  0.25639  0.41532  1.0000
  H   H650      1.0  0.56928  0.08464  0.47180  1.0000
  C   C385      1.0  0.57331  0.25204  0.45256  1.0000
  C   C386      1.0  0.61596  0.02176  0.47905  1.0000
  H   H651      1.0  0.54733  0.19223  0.41793  1.0000
  H   H652      1.0  0.52521  0.00144  0.32273  1.0000
  C   C387      1.0  0.50071  0.05877  0.47880  1.0000
  H   H653      1.0  0.57557  0.03820  0.45902  1.0000
  C   C388      1.0  0.57619  0.31180  0.27847  1.0000
  C   C389      1.0  0.49828  0.06776  0.36621  1.0000
  H   H654      1.0  0.57487  0.32064  0.29357  1.0000
  H   H655      1.0  0.51775  0.99980  0.35397  1.0000
  C   C390      1.0  0.49916  0.08347  0.32594  1.0000
  C   C391      1.0  0.50315  0.08519  0.34748  1.0000
  H   H656      1.0  0.56578  0.24216  0.46938  1.0000
  C   C392      1.0  0.51269  0.31601  0.43051  1.0000
  C   C393      1.0  0.56057  0.06974  0.47366  1.0000
  H   H657      1.0  0.50073  0.06944  0.38295  1.0000
  H   H658      1.0  0.50345  0.02396  0.47327  1.0000
  H   H659      1.0  0.50244  0.09702  0.31147  1.0000
  H   H660      1.0  0.59228  0.31679  0.26547  1.0000
  H   H661      1.0  0.50318  0.01871  0.43548  1.0000
  H   H662      1.0  0.55274  0.31485  0.25397  1.0000
  H   H663      1.0  0.52125  0.01673  0.52144  1.0000
  C   C394      1.0  0.52164  0.05432  0.56690  1.0000
  H   H664      1.0  0.52166  0.06447  0.57997  1.0000
  C   C395      1.0  0.59513  0.05672  0.51309  1.0000
  C   C396      1.0  0.52154  0.02731  0.53391  1.0000
  C   C397      1.0  0.50138  0.05788  0.55748  1.0000
  C   C398      1.0  0.54181  0.02382  0.54341  1.0000
  H   H665      1.0  0.60742  0.01580  0.49749  1.0000
  C   C399      1.0  0.54186  0.03761  0.55968  1.0000
  H   H666      1.0  0.55741  0.03508  0.56710  1.0000
  H   H667      1.0  0.57539  0.05771  0.51573  1.0000
  H   H668      1.0  0.57012  0.03509  0.48975  1.0000
  H   H669      1.0  0.60292  0.04007  0.52198  1.0000
  H   H670      1.0  0.59747  0.07016  0.52222  1.0000
  C   C400      1.0  0.50149  0.04461  0.54064  1.0000
  S   S113      1.0  0.56756  0.00277  0.53522  1.0000
  H   H671      1.0  0.54618  0.06997  0.49013  1.0000
  H   H672      1.0  0.51887  0.11828  0.48547  1.0000
  H   H673      1.0  0.51277  0.05148  0.49084  1.0000
  C   C401      1.0  0.60817  0.06093  0.48699  1.0000
  H   H674      1.0  0.62788  0.05888  0.48607  1.0000
  H   H675      1.0  0.60290  0.07936  0.48107  1.0000
  H   H676      1.0  0.49747  0.24870  0.48170  1.0000
  Fe  Fe56      1.0  0.56940  0.49375  0.01940  1.0000
  S   S114      1.0  0.58213  0.45689  0.01415  1.0000
  N   N31       1.0  0.71046  0.39077  0.44742  1.0000
  Fe  Fe57      1.0  0.52000  0.48482  0.04810  1.0000
  S   S115      1.0  0.52826  0.44762  0.04440  1.0000
  Fe  Fe58      1.0  0.56375  0.44892  0.05224  1.0000
  S   S116      1.0  0.57684  0.42581  0.08251  1.0000
  Fe  Fe59      1.0  0.54541  0.45955  0.00681  1.0000
  H   H677      1.0  0.94850  0.51067  0.45983  1.0000
  S   S117      1.0  0.55410  0.48550  0.05780  1.0000
  S   S118      1.0  0.53399  0.49687  0.01018  1.0000
  Fe  Fe60      1.0  0.89513  0.51160  0.41707  1.0000
  S   S119      1.0  0.89514  0.47557  0.43430  1.0000
  S   S120      1.0  0.86589  0.54029  0.42917  1.0000
  Fe  Fe61      1.0  0.90357  0.46774  0.39754  1.0000
  S   S121      1.0  0.88273  0.44314  0.39057  1.0000
  S   S122      1.0  0.90119  0.50422  0.38074  1.0000
  Fe  Fe62      1.0  0.70988  0.47047  0.34135  1.0000
  S   S123      1.0  0.69570  0.44891  0.37490  1.0000
  S   S124      1.0  0.68115  0.49213  0.32337  1.0000
  Fe  Fe63      1.0  0.76237  0.45731  0.34787  1.0000
  S   S125      1.0  0.75172  0.43368  0.38099  1.0000
  S   S126      1.0  0.79886  0.46899  0.33559  1.0000
  Fe  Fe64      1.0  0.72798  0.42259  0.36244  1.0000
  S   S127      1.0  0.72446  0.38577  0.36315  1.0000
  Fe  Fe65      1.0  0.72047  0.46220  0.39000  1.0000
  S   S128      1.0  0.70888  0.47284  0.42614  1.0000
  S   S129      1.0  0.74154  0.44370  0.32802  1.0000
  S   S130      1.0  0.73176  0.48622  0.35763  1.0000
  H   H678      1.0  0.96433  0.58757  0.34804  1.0000
  S   S131      1.0  0.72769  0.57111  0.43015  1.0000
  H   H679      1.0  0.97146  0.47701  0.28559  1.0000
  H   H680      1.0  0.69655  0.38133  0.42125  1.0000
  S   S132      1.0  0.58206  0.34285  0.36882  1.0000
  Fe  Fe66      1.0  0.57311  0.44715  0.23989  1.0000
  S   S133      1.0  0.60929  0.44024  0.21473  1.0000
  S   S134      1.0  0.55179  0.42064  0.26214  1.0000
  Fe  Fe67      1.0  0.57226  0.49814  0.23327  1.0000
  S   S135      1.0  0.60869  0.49538  0.20818  1.0000
  S   S136      1.0  0.55074  0.53096  0.24618  1.0000
  Fe  Fe68      1.0  0.59486  0.47153  0.19217  1.0000
  S   S137      1.0  0.60268  0.47865  0.15248  1.0000
  Fe  Fe69      1.0  0.61986  0.46449  0.23292  1.0000
  S   S138      1.0  0.65643  0.45376  0.24224  1.0000
  S   S139      1.0  0.55754  0.47650  0.21587  1.0000
  S   S140      1.0  0.58456  0.46934  0.25940  1.0000
  H   H681      1.0  0.83186  0.54832  0.38673  1.0000
  C   C402      1.0  0.53692  0.55078  0.22612  1.0000
  Fe  Fe70      1.0  0.94066  0.49978  0.38038  1.0000
  H   H682      1.0  0.58114  0.55544  0.11255  1.0000
  H   H683      1.0  0.66894  0.44105  0.43677  1.0000
  C   C403      1.0  0.52616  0.56144  0.18863  1.0000
  C   C404      1.0  0.53856  0.54579  0.20382  1.0000
  C   C405      1.0  0.94507  0.42768  0.34140  1.0000
  C   C406      1.0  0.50862  0.56165  0.04495  1.0000
  H   H684      1.0  0.52696  0.55733  0.17169  1.0000
  H   H685      1.0  0.54915  0.52978  0.19841  1.0000
  C   C407      1.0  0.59765  0.35663  0.29284  1.0000
  C   C408      1.0  0.60687  0.36810  0.27075  1.0000
  C   C409      1.0  0.59306  0.38800  0.26144  1.0000
  C   C410      1.0  0.56963  0.39611  0.27386  1.0000
  C   C411      1.0  0.56020  0.38433  0.29576  1.0000
  C   C412      1.0  0.57430  0.36479  0.30540  1.0000
  H   H686      1.0  0.62486  0.36175  0.26090  1.0000
  H   H687      1.0  0.60033  0.39679  0.24442  1.0000
  H   H688      1.0  0.54206  0.39051  0.30539  1.0000
  H   H689      1.0  0.56695  0.35589  0.32235  1.0000
  C   C413      1.0  0.67428  0.48125  0.30093  1.0000
  C   C414      1.0  0.69074  0.46432  0.28898  1.0000
  C   C415      1.0  0.68519  0.45640  0.27076  1.0000
  C   C416      1.0  0.66292  0.46494  0.26466  1.0000
  C   C417      1.0  0.64634  0.48174  0.27670  1.0000
  C   C418      1.0  0.65212  0.49001  0.29463  1.0000
  H   H690      1.0  0.70795  0.45758  0.29352  1.0000
  H   H691      1.0  0.69812  0.44342  0.26152  1.0000
  H   H692      1.0  0.62913  0.48848  0.27213  1.0000
  H   H693      1.0  0.63932  0.50318  0.30371  1.0000
  C   C419      1.0  0.69598  0.37695  0.37329  1.0000
  C   C420      1.0  0.67557  0.39122  0.38459  1.0000
  C   C421      1.0  0.65367  0.38316  0.39428  1.0000
  C   C422      1.0  0.65156  0.36115  0.39174  1.0000
  C   C423      1.0  0.67174  0.34703  0.37983  1.0000
  C   C424      1.0  0.69394  0.35484  0.37087  1.0000
  H   H694      1.0  0.67678  0.40828  0.38640  1.0000
  H   H695      1.0  0.63814  0.39415  0.40352  1.0000
  C   C425      1.0  0.98538  0.62489  0.35469  1.0000
  H   H696      1.0  0.70964  0.34364  0.36218  1.0000
  C   C426      1.0  0.71522  0.49957  0.42791  1.0000
  C   C427      1.0  0.70385  0.51044  0.44776  1.0000
  C   C428      1.0  0.70782  0.53231  0.44883  1.0000
  C   C429      1.0  0.72299  0.54344  0.42992  1.0000
  C   C430      1.0  0.73459  0.53243  0.41026  1.0000
  C   C431      1.0  0.73102  0.51042  0.40944  1.0000
  H   H697      1.0  0.75937  0.39079  0.41959  1.0000
  H   H698      1.0  0.95473  0.65021  0.44584  1.0000
  H   H699      1.0  0.74649  0.54091  0.39568  1.0000
  H   H700      1.0  0.74060  0.50189  0.39448  1.0000
  C   C432      1.0  0.85772  0.45207  0.37742  1.0000
  C   C433      1.0  0.85521  0.47255  0.36213  1.0000
  C   C434      1.0  0.83689  0.47767  0.34965  1.0000
  C   C435      1.0  0.82036  0.46285  0.35300  1.0000
  C   C436      1.0  0.82228  0.44287  0.36903  1.0000
  C   C437      1.0  0.84110  0.43736  0.38089  1.0000
  H   H701      1.0  0.86792  0.48399  0.35921  1.0000
  H   H702      1.0  0.83559  0.49311  0.33721  1.0000
  H   H703      1.0  0.80988  0.43118  0.37155  1.0000
  H   H704      1.0  0.84302  0.42141  0.39252  1.0000
  H   H705      1.0  0.81195  0.49239  0.39354  1.0000
  C   C438      1.0  0.91719  0.58591  0.42997  1.0000
  C   C439      1.0  0.92023  0.57562  0.41013  1.0000
  C   C440      1.0  0.90311  0.56309  0.40911  1.0000
  C   C441      1.0  0.88334  0.56051  0.42811  1.0000
  H   H706      1.0  0.92478  0.41775  0.29850  1.0000
  H   H707      1.0  0.93628  0.57643  0.39606  1.0000
  H   H708      1.0  0.90591  0.55438  0.39412  1.0000
  C   C442      1.0  0.52485  0.32682  0.44128  1.0000
  C   C443      1.0  0.51435  0.33217  0.46405  1.0000
  H   H709      1.0  0.80248  0.45840  0.42068  1.0000
  C   C444      1.0  0.58435  0.44005  0.10216  1.0000
  C   C445      1.0  0.57920  0.43219  0.12629  1.0000
  C   C446      1.0  0.58482  0.44365  0.14208  1.0000
  C   C447      1.0  0.59614  0.46274  0.13371  1.0000
  C   C448      1.0  0.60201  0.47006  0.10956  1.0000
  C   C449      1.0  0.59586  0.45901  0.09390  1.0000
  H   H710      1.0  0.57049  0.41742  0.13279  1.0000
  H   H711      1.0  0.58032  0.43775  0.16065  1.0000
  H   H712      1.0  0.61127  0.48446  0.10286  1.0000
  H   H713      1.0  0.60045  0.46490  0.07533  1.0000
  H   H714      1.0  0.52374  0.52623  0.04390  1.0000
  H   H715      1.0  0.80878  0.46318  0.45417  1.0000
  H   H716      1.0  0.66257  0.48377  0.40976  1.0000
  Fe  Fe71      1.0  0.92972  0.60877  0.46865  1.0000
  C   C450      1.0  0.52320  0.57155  0.23300  1.0000
  H   H717      1.0  0.83228  0.59788  0.45861  1.0000
  H   H718      1.0  0.78223  0.50790  0.40223  1.0000
  H   H719      1.0  0.73115  0.39632  0.47033  1.0000
  H   H720      1.0  0.77193  0.47341  0.43269  1.0000
  H   H721      1.0  0.54040  0.56694  0.10312  1.0000
  H   H722      1.0  0.89828  0.44489  0.33987  1.0000
  H   H723      1.0  0.55546  0.34131  0.26139  1.0000
  C   C451      1.0  0.78409  0.50842  0.44795  1.0000
  H   H724      1.0  0.63687  0.50515  0.40658  1.0000
  H   H725      1.0  0.73120  0.34678  0.44013  1.0000
  S   S141      1.0  0.95377  0.45746  0.45863  1.0000
  C   C452      1.0  0.59708  0.53927  0.98306  1.0000
  C   C453      1.0  0.67379  0.42213  0.44073  1.0000
  C   C454      1.0  0.82542  0.47029  0.45099  1.0000
  C   C455      1.0  0.72918  0.35702  0.42322  1.0000
  H   H726      1.0  0.99251  0.63837  0.35983  1.0000
  H   H727      1.0  0.78585  0.53985  0.46048  1.0000
  H   H728      1.0  0.99161  0.47155  0.41893  1.0000
  H   H729      1.0  0.93797  0.63970  0.34790  1.0000
  C   C456      1.0  0.97669  0.61450  0.31992  1.0000
  H   H730      1.0  0.96015  0.42978  0.29629  1.0000
  S   S142      1.0  0.93994  0.59882  0.43285  1.0000
  H   H731      1.0  0.98030  0.64912  0.40620  1.0000
  H   H732      1.0  0.84148  0.63436  0.41217  1.0000
  C   C457      1.0  0.92088  0.49103  0.31994  1.0000
  H   H733      1.0  0.55634  0.53789  0.06289  1.0000
  H   H734      1.0  0.90117  0.49198  0.32214  1.0000
  H   H735      1.0  0.69879  0.54071  0.46410  1.0000
  C   C458      1.0  0.78820  0.64964  0.40847  1.0000
  H   H736      1.0  0.70058  0.42456  0.45864  1.0000
  C   C459      1.0  0.84749  0.63968  0.44465  1.0000
  Fe  Fe72      1.0  0.71741  0.58255  0.46580  1.0000
  H   H737      1.0  0.79205  0.54082  0.41290  1.0000
  H   H738      1.0  0.54214  0.33148  0.43191  1.0000
  H   H739      1.0  0.57174  0.55497  0.07401  1.0000
  C   C460      1.0  0.53556  0.49073  0.13711  1.0000
  H   H740      1.0  0.76718  0.51799  0.44286  1.0000
  N   N32       1.0  0.93598  0.44726  0.32441  1.0000
  H   H741      1.0  0.52143  0.54373  0.08891  1.0000
  C   C461      1.0  0.91157  0.44391  0.32272  1.0000
  H   H742      1.0  0.67039  0.32992  0.37800  1.0000
  N   N33       1.0  0.54281  0.53036  0.11431  1.0000
  S   S143      1.0  0.73806  0.60738  0.47147  1.0000
  C   C462      1.0  0.97484  0.45983  0.29592  1.0000
  H   H743      1.0  0.51724  0.64500  0.10440  1.0000
  N   N34       1.0  0.80457  0.50554  0.42648  1.0000
  S   S144      1.0  0.96631  0.51338  0.34786  1.0000
  H   H744      1.0  0.56050  0.51019  0.14101  1.0000
  H   H745      1.0  0.91933  0.46795  0.35213  1.0000
  C   C463      1.0  0.56553  0.52224  0.09663  1.0000
  C   C464      1.0  0.98453  0.45861  0.45564  1.0000
  C   C465      1.0  0.96812  0.54715  0.46380  1.0000
  N   N35       1.0  0.66519  0.53917  0.37940  1.0000
  C   C466      1.0  0.63924  0.54550  0.37734  1.0000
  C   C467      1.0  0.66786  0.55083  0.39849  1.0000
  C   C468      1.0  0.67227  0.51367  0.38561  1.0000
  C   C469      1.0  0.68125  0.54654  0.35607  1.0000
  C   C470      1.0  0.63247  0.53276  0.36061  1.0000
  C   C471      1.0  0.66438  0.57718  0.39375  1.0000
  H   H746      1.0  0.62650  0.54298  0.39476  1.0000
  H   H747      1.0  0.63472  0.56406  0.37095  1.0000
  H   H748      1.0  0.68580  0.54441  0.40276  1.0000
  H   H749      1.0  0.65454  0.54665  0.41513  1.0000
  H   H750      1.0  0.67330  0.50446  0.37084  1.0000
  H   H751      1.0  0.69079  0.50929  0.38865  1.0000
  H   H752      1.0  0.68124  0.53580  0.34285  1.0000
  H   H753      1.0  0.67399  0.56439  0.34914  1.0000
  H   H754      1.0  0.63473  0.51401  0.36614  1.0000
  H   H755      1.0  0.61307  0.53891  0.36051  1.0000
  H   H756      1.0  0.64298  0.53622  0.34232  1.0000
  H   H757      1.0  0.67765  0.58341  0.37811  1.0000
  H   H758      1.0  0.64572  0.58508  0.39218  1.0000
  H   H759      1.0  0.66740  0.58349  0.40885  1.0000
  H   H760      1.0  0.71193  0.56307  0.35430  1.0000
  N   N36       1.0  0.64113  0.39769  0.31933  1.0000
  C   C472      1.0  0.66190  0.40948  0.30572  1.0000
  C   C473      1.0  0.62308  0.40092  0.30457  1.0000
  C   C474      1.0  0.64957  0.37236  0.32538  1.0000
  C   C475      1.0  0.62990  0.40803  0.34162  1.0000
  C   C476      1.0  0.68334  0.40608  0.31737  1.0000
  C   C477      1.0  0.61000  0.42565  0.29899  1.0000
  C   C478      1.0  0.66520  0.35961  0.30488  1.0000
  C   C479      1.0  0.60668  0.39972  0.35681  1.0000
  H   H761      1.0  0.66909  0.40433  0.28790  1.0000
  H   H762      1.0  0.65558  0.42828  0.30272  1.0000
  H   H763      1.0  0.60893  0.39024  0.31286  1.0000
  H   H764      1.0  0.63201  0.39495  0.28735  1.0000
  H   H765      1.0  0.65991  0.36899  0.33913  1.0000
  H   H766      1.0  0.63387  0.36342  0.33309  1.0000
  H   H767      1.0  0.64292  0.40426  0.35296  1.0000
  H   H768      1.0  0.62580  0.42705  0.33798  1.0000
  H   H769      1.0  0.69105  0.38784  0.32192  1.0000
  H   H770      1.0  0.69818  0.41397  0.30495  1.0000
  H   H771      1.0  0.67826  0.41483  0.33314  1.0000
  H   H772      1.0  0.62271  0.43689  0.28825  1.0000
  H   H773      1.0  0.59700  0.42534  0.28851  1.0000
  H   H774      1.0  0.59926  0.43326  0.31485  1.0000
  C   C480      1.0  0.75435  0.39829  0.43612  1.0000
  H   H775      1.0  0.66943  0.34110  0.31153  1.0000
  H   H776      1.0  0.96150  0.53912  0.43187  1.0000
  H   H777      1.0  0.59157  0.40444  0.34787  1.0000
  H   H778      1.0  0.60067  0.40789  0.37304  1.0000
  H   H779      1.0  0.60989  0.38101  0.36236  1.0000
  H   H780      1.0  0.94652  0.65501  0.32000  1.0000
  H   H781      1.0  0.98475  0.42328  0.32945  1.0000
  C   C481      1.0  0.82774  0.49137  0.43193  1.0000
  Fe  Fe73      1.0  0.93530  0.47344  0.42911  1.0000
  H   H782      1.0  0.98044  0.46158  0.31161  1.0000
  H   H783      1.0  0.81888  0.56522  0.45491  1.0000
  H   H784      1.0  0.97193  0.44292  0.35100  1.0000
  H   H785      1.0  0.90393  0.45783  0.31029  1.0000
  H   H786      1.0  0.82736  0.47423  0.46771  1.0000
  H   H787      1.0  0.79140  0.58515  0.46124  1.0000
  H   H788      1.0  0.80540  0.61485  0.40866  1.0000
  H   H789      1.0  0.93987  0.60676  0.33673  1.0000
  H   H790      1.0  0.86084  0.65084  0.43517  1.0000
  H   H791      1.0  0.84037  0.48527  0.41584  1.0000
  H   H792      1.0  0.89382  0.59302  0.46325  1.0000
  H   H793      1.0  0.82063  0.52729  0.37740  1.0000
  C   C482      1.0  0.87992  0.57142  0.44757  1.0000
  C   C483      1.0  0.83014  0.63974  0.42912  1.0000
  H   H794      1.0  0.63084  0.54610  0.98588  1.0000
  H   H795      1.0  0.89288  0.42258  0.31092  1.0000
  H   H796      1.0  0.74734  0.35769  0.41129  1.0000
  H   H797      1.0  0.81617  0.53715  0.42697  1.0000
  C   C484      1.0  0.71426  0.38151  0.42479  1.0000
  S   S145      1.0  0.59557  0.51843  0.00808  1.0000
  C   C485      1.0  0.98608  0.53196  0.34766  1.0000
  H   H798      1.0  0.83936  0.59640  0.42809  1.0000
  C   C486      1.0  0.97643  0.54273  0.43805  1.0000
  H   H799      1.0  0.92298  0.50637  0.32641  1.0000
  C   C487      1.0  0.79678  0.49551  0.40904  1.0000
  H   H800      1.0  0.56724  0.54542  0.14258  1.0000
  H   H801      1.0  0.91241  0.40661  0.32876  1.0000
  C   C488      1.0  0.70807  0.54560  0.35580  1.0000
  H   H802      1.0  0.69172  0.50210  0.46224  1.0000
  H   H803      1.0  0.95003  0.61298  0.37336  1.0000
  H   H804      1.0  0.56115  0.57501  0.13113  1.0000
  H   H805      1.0  0.86521  0.56866  0.46264  1.0000
  C   C489      1.0  0.54244  0.51406  0.13679  1.0000
  C   C490      1.0  0.98644  0.54120  0.36745  1.0000
  N   N37       1.0  0.81107  0.62494  0.43933  1.0000
  S   S146      1.0  0.94401  0.46205  0.39373  1.0000
  H   H806      1.0  0.97281  0.62141  0.30245  1.0000
  C   C491      1.0  0.79567  0.62609  0.42232  1.0000
  C   C492      1.0  0.79583  0.63111  0.46266  1.0000
  C   C493      1.0  0.54231  0.55417  0.11883  1.0000
  C   C494      1.0  0.91084  0.42131  0.31470  1.0000
  C   C495      1.0  0.89660  0.58455  0.44825  1.0000
  C   C496      1.0  0.93179  0.46931  0.33444  1.0000
  H   H807      1.0  0.70147  0.35931  0.46889  1.0000
  H   H808      1.0  0.77875  0.61933  0.43141  1.0000
  H   H809      1.0  0.52594  0.55965  0.13254  1.0000
  H   H810      1.0  0.80689  0.62778  0.47576  1.0000
  S   S147      1.0  0.93432  0.51064  0.41544  1.0000
  H   H811      1.0  0.66046  0.41679  0.45680  1.0000
  H   H812      1.0  0.54667  0.48196  0.12209  1.0000
  C   C497      1.0  0.95294  0.44758  0.30043  1.0000
  C   C498      1.0  0.69346  0.37779  0.46615  1.0000
  H   H813      1.0  0.56541  0.50495  0.09300  1.0000
  H   H814      1.0  0.58183  0.52004  0.10370  1.0000
  H   H815      1.0  0.67182  0.41485  0.42588  1.0000
  H   H816      1.0  0.98797  0.50099  0.46416  1.0000
  C   C499      1.0  0.78764  0.47264  0.41741  1.0000
  C   C500      1.0  0.57021  0.53737  0.07264  1.0000
  H   H817      1.0  0.84085  0.45628  0.44575  1.0000
  C   C501      1.0  0.80857  0.58167  0.44804  1.0000
  H   H818      1.0  0.53687  0.32361  0.28225  1.0000
  N   N38       1.0  0.68369  0.47298  0.15939  1.0000
  C   C502      1.0  0.66313  0.48775  0.14973  1.0000
  C   C503      1.0  0.67821  0.47438  0.18517  1.0000
  C   C504      1.0  0.68657  0.44831  0.15611  1.0000
  C   C505      1.0  0.70676  0.48160  0.14654  1.0000
  C   C506      1.0  0.66309  0.48513  0.12460  1.0000
  C   C507      1.0  0.67686  0.49817  0.19184  1.0000
  C   C508      1.0  0.66403  0.43704  0.16694  1.0000
  C   C509      1.0  0.72925  0.47083  0.15642  1.0000
  H   H819      1.0  0.64537  0.48471  0.16124  1.0000
  H   H820      1.0  0.66297  0.50621  0.14963  1.0000
  H   H821      1.0  0.69145  0.46182  0.19370  1.0000
  H   H822      1.0  0.66036  0.46943  0.19404  1.0000
  H   H823      1.0  0.69252  0.44622  0.13724  1.0000
  H   H824      1.0  0.70109  0.43742  0.16415  1.0000
  H   H825      1.0  0.71175  0.47856  0.12797  1.0000
  H   H826      1.0  0.70425  0.50049  0.14589  1.0000
  H   H827      1.0  0.64786  0.49774  0.11921  1.0000
  H   H828      1.0  0.67994  0.48867  0.11179  1.0000
  H   H829      1.0  0.65983  0.46802  0.12348  1.0000
  H   H830      1.0  0.69408  0.50470  0.18478  1.0000
  H   H831      1.0  0.66178  0.51087  0.18643  1.0000
  H   H832      1.0  0.67307  0.49674  0.21121  1.0000
  H   H833      1.0  0.66762  0.41977  0.16152  1.0000
  H   H834      1.0  0.64769  0.44672  0.16112  1.0000
  H   H835      1.0  0.66017  0.43449  0.18631  1.0000
  H   H836      1.0  0.72701  0.47468  0.17433  1.0000
  H   H837      1.0  0.74503  0.47823  0.14520  1.0000
  H   H838      1.0  0.73404  0.45206  0.15636  1.0000
  H   H839      1.0  0.94847  0.47281  0.33750  1.0000
  C   C510      1.0  0.65595  0.50256  0.40771  1.0000
  C   C511      1.0  0.78111  0.65556  0.46346  1.0000
  C   C512      1.0  0.95226  0.64901  0.33676  1.0000
  H   H840      1.0  0.99092  0.65271  0.47588  1.0000
  H   H841      1.0  0.51128  0.49429  0.26195  1.0000
  H   H842      1.0  0.50015  0.62523  0.07728  1.0000
  H   H843      1.0  0.94279  0.45626  0.28689  1.0000
  H   H844      1.0  0.53006  0.52184  0.15206  1.0000
  H   H845      1.0  0.77087  0.39456  0.44307  1.0000
  H   H846      1.0  0.71404  0.53483  0.37092  1.0000
  C   C513      1.0  0.51205  0.58203  0.19570  1.0000
  C   C514      1.0  0.78839  0.52109  0.46616  1.0000
  H   H847      1.0  0.53874  0.47931  0.15325  1.0000
  C   C515      1.0  0.56437  0.55737  0.12669  1.0000
  H   H848      1.0  0.52432  0.56742  0.03287  1.0000
  S   S148      1.0  0.62374  0.35174  0.40452  1.0000
  H   H849      1.0  0.68272  0.36551  0.29727  1.0000
  C   C516      1.0  0.97030  0.42708  0.34527  1.0000
  N   N39       1.0  0.97688  0.63387  0.33249  1.0000
  C   C517      1.0  0.69995  0.41597  0.44397  1.0000
  H   H850      1.0  0.65700  0.50856  0.42374  1.0000
  H   H851      1.0  0.71986  0.53844  0.33994  1.0000
  H   H852      1.0  0.99481  0.60322  0.31657  1.0000
  H   H853      1.0  0.93200  0.42738  0.35886  1.0000
  C   C518      1.0  0.82784  0.53067  0.39156  1.0000
  H   H854      1.0  0.72026  0.34737  0.41493  1.0000
  C   C519      1.0  0.52122  0.53092  0.10483  1.0000
  H   H855      1.0  0.80456  0.57903  0.43175  1.0000
  H   H856      1.0  0.74122  0.36965  0.45973  1.0000
  C   C520      1.0  0.73400  0.38797  0.45453  1.0000
  H   H857      1.0  0.78254  0.61956  0.47036  1.0000
  H   H858      1.0  0.97400  0.53711  0.38396  1.0000
  H   H859      1.0  0.80403  0.65563  0.39570  1.0000
  H   H860      1.0  0.52206  0.57554  0.25017  1.0000
  H   H861      1.0  0.58774  0.52971  0.06166  1.0000
  C   C521      1.0  0.80924  0.52923  0.41536  1.0000
  H   H862      1.0  0.78119  0.46841  0.40311  1.0000
  H   H863      1.0  0.92726  0.53375  0.47226  1.0000
  H   H864      1.0  0.49888  0.65356  0.04219  1.0000
  C   C522      1.0  0.82407  0.60051  0.44336  1.0000
  H   H865      1.0  0.74949  0.41720  0.43249  1.0000
  H   H866      1.0  0.77936  0.49188  0.45740  1.0000
  H   H867      1.0  0.71112  0.42476  0.42816  1.0000
  C   C523      1.0  0.49781  0.50425  0.25206  1.0000
  C   C524      1.0  0.51080  0.58716  0.21782  1.0000
  H   H868      1.0  0.94643  0.41094  0.33561  1.0000
  H   H869      1.0  0.52199  0.51444  0.09862  1.0000
  H   H870      1.0  0.99085  0.45004  0.28483  1.0000
  H   H871      1.0  0.52364  0.34095  0.47214  1.0000
  H   H872      1.0  0.92999  0.49226  0.30112  1.0000
  H   H873      1.0  0.51614  0.49246  0.13742  1.0000
  H   H874      1.0  0.83753  0.50219  0.43792  1.0000
  C   C525      1.0  0.96644  0.61676  0.37653  1.0000
  H   H875      1.0  0.96006  0.58559  0.32044  1.0000
  H   H876      1.0  0.65549  0.36094  0.29098  1.0000
  H   H877      1.0  0.72328  0.39303  0.40982  1.0000
  H   H878      1.0  0.96080  0.62939  0.38909  1.0000
  H   H879      1.0  0.84525  0.51897  0.39226  1.0000
  C   C526      1.0  0.95899  0.59803  0.33235  1.0000
  H   H880      1.0  0.50845  0.51040  0.23452  1.0000
  S   S149      1.0  0.61549  0.33184  0.30403  1.0000
  H   H881      1.0  0.67654  0.37812  0.46067  1.0000
  C   C527      1.0  0.50812  0.53826  0.05095  1.0000
  Fe  Fe74      1.0  0.61119  0.32702  0.38819  1.0000
  H   H882      1.0  0.85807  0.62243  0.44860  1.0000
  H   H883      1.0  0.98241  0.55463  0.46730  1.0000
  S   S150      1.0  0.90512  0.64243  0.47158  1.0000
  H   H884      1.0  0.98176  0.55854  0.42692  1.0000
  C   C528      1.0  0.55395  0.32316  0.26847  1.0000
  C   C529      1.0  0.99443  0.64839  0.31645  1.0000
  H   H885      1.0  0.77561  0.64784  0.39815  1.0000
  H   H886      1.0  0.80656  0.51495  0.46984  1.0000
  H   H887      1.0  0.97503  0.60078  0.38592  1.0000
  H   H888      1.0  0.97374  0.41295  0.35945  1.0000
  H   H889      1.0  0.50040  0.60320  0.22323  1.0000
  H   H890      1.0  0.95216  0.56131  0.46503  1.0000
  C   C530      1.0  0.94163  0.51896  0.47602  1.0000
  H   H891      1.0  0.99243  0.52891  0.43487  1.0000
  C   C531      1.0  0.99447  0.45200  0.47534  1.0000
  H   H892      1.0  0.66474  0.64745  0.46583  1.0000
  H   H893      1.0  0.83783  0.64657  0.46123  1.0000
  H   H894      1.0  0.51926  0.53663  0.98211  1.0000
  H   H895      1.0  0.49714  0.61417  0.11963  1.0000
  Fe  Fe75      1.0  0.58283  0.59625  0.89264  1.0000
  S   S151      1.0  0.54364  0.59487  0.90762  1.0000
  S   S152      1.0  0.60708  0.59239  0.91711  1.0000
  Fe  Fe76      1.0  0.57901  0.59712  0.84224  1.0000
  S   S153      1.0  0.53972  0.59487  0.85400  1.0000
  S   S154      1.0  0.59766  0.59590  0.80413  1.0000
  Fe  Fe77      1.0  0.53748  0.62099  0.87691  1.0000
  S   S155      1.0  0.91146  0.63642  0.52495  1.0000
  Fe  Fe78      1.0  0.55078  0.56922  0.88305  1.0000
  S   S156      1.0  0.54218  0.53452  0.89609  1.0000
  H   H896      1.0  0.55125  0.53947  0.63717  1.0000
  S   S157      1.0  0.59017  0.56918  0.86963  1.0000
  Fe  Fe79      1.0  0.88715  0.62612  0.50672  1.0000
  H   H897      1.0  0.98367  0.65329  0.51431  1.0000
  S   S158      1.0  0.84642  0.63669  0.51756  1.0000
  Fe  Fe80      1.0  0.93556  0.60257  0.51797  1.0000
  H   H898      1.0  0.83090  0.56507  0.50171  1.0000
  S   S159      1.0  0.95011  0.58082  0.54768  1.0000
  H   H899      1.0  0.94168  0.48597  0.49930  1.0000
  S   S160      1.0  0.51038  0.64015  0.62329  1.0000
  C   C532      1.0  0.51373  0.49795  0.86483  1.0000
  H   H900      1.0  0.59192  0.54065  0.60639  1.0000
  H   H901      1.0  0.50387  0.63166  0.92379  1.0000
  S   S161      1.0  0.90967  0.59122  0.50249  1.0000
  Fe  Fe81      1.0  0.54021  0.61266  0.69866  1.0000
  H   H902      1.0  0.54451  0.53952  0.74644  1.0000
  S   S162      1.0  0.53004  0.62785  0.73255  1.0000
  Fe  Fe82      1.0  0.57906  0.59611  0.65713  1.0000
  S   S163      1.0  0.55263  0.58595  0.64167  1.0000
  S   S164      1.0  0.61918  0.59145  0.64110  1.0000
  Fe  Fe83      1.0  0.52948  0.61944  0.65067  1.0000
  Fe  Fe84      1.0  0.53634  0.57136  0.67826  1.0000
  H   H903      1.0  0.56756  0.65567  0.57164  1.0000
  S   S165      1.0  0.55713  0.63071  0.66374  1.0000
  S   S166      1.0  0.56469  0.57894  0.69332  1.0000
  H   H904      1.0  0.63210  0.52384  0.65961  1.0000
  H   H905      1.0  0.49787  0.61162  0.77776  1.0000
  Fe  Fe85      1.0  0.74211  0.58347  0.50415  1.0000
  H   H906      1.0  0.91809  0.50929  0.51042  1.0000
  H   H907      1.0  0.54988  0.50251  0.96149  1.0000
  Fe  Fe86      1.0  0.68925  0.57787  0.51642  1.0000
  S   S167      1.0  0.65767  0.56271  0.53973  1.0000
  S   S168      1.0  0.70837  0.60144  0.52666  1.0000
  C   C533      1.0  0.62953  0.58539  0.61210  1.0000
  C   C534      1.0  0.65444  0.58194  0.60185  1.0000
  C   C535      1.0  0.66323  0.57566  0.57927  1.0000
  C   C536      1.0  0.64711  0.57258  0.56700  1.0000
  C   C537      1.0  0.62220  0.57641  0.57705  1.0000
  C   C538      1.0  0.61344  0.58303  0.59943  1.0000
  H   H908      1.0  0.66700  0.58379  0.61151  1.0000
  H   H909      1.0  0.68251  0.57258  0.57164  1.0000
  H   H910      1.0  0.60970  0.57418  0.56751  1.0000
  H   H911      1.0  0.59427  0.58602  0.60687  1.0000
  H   H912      1.0  0.59658  0.52719  0.90947  1.0000
  C   C539      1.0  0.61759  0.48394  0.88082  1.0000
  H   H913      1.0  0.56817  0.50298  0.66133  1.0000
  H   H914      1.0  0.61987  0.50149  0.87218  1.0000
  S   S169      1.0  0.54344  0.45061  0.97222  1.0000
  S   S170      1.0  0.77955  0.56967  0.51041  1.0000
  C   C540      1.0  0.60220  0.57226  0.94269  1.0000
  C   C541      1.0  0.82797  0.61760  0.51632  1.0000
  C   C542      1.0  0.83808  0.59631  0.50871  1.0000
  C   C543      1.0  0.82297  0.58162  0.50741  1.0000
  C   C544      1.0  0.79771  0.58833  0.51313  1.0000
  C   C545      1.0  0.78754  0.60966  0.52067  1.0000
  C   C546      1.0  0.80267  0.62417  0.52245  1.0000
  H   H915      1.0  0.85751  0.59105  0.50397  1.0000
  H   H916      1.0  0.76806  0.61486  0.52530  1.0000
  H   H917      1.0  0.51393  0.49232  0.69055  1.0000
  H   H918      1.0  0.65669  0.46941  0.94949  1.0000
  C   C547      1.0  0.57927  0.54498  0.97016  1.0000
  H   H919      1.0  0.99342  0.56966  0.50936  1.0000
  H   H920      1.0  0.59173  0.51293  0.60162  1.0000
  H   H921      1.0  0.60931  0.52355  0.93401  1.0000
  H   H922      1.0  0.50625  0.52992  0.93426  1.0000
  C   C548      1.0  0.62467  0.50427  0.62502  1.0000
  H   H923      1.0  0.63270  0.53738  0.89006  1.0000
  C   C549      1.0  0.57858  0.60391  0.78450  1.0000
  C   C550      1.0  0.58708  0.59848  0.76161  1.0000
  C   C551      1.0  0.57232  0.60558  0.74551  1.0000
  C   C552      1.0  0.54926  0.61873  0.75206  1.0000
  C   C553      1.0  0.54102  0.62454  0.77480  1.0000
  C   C554      1.0  0.55535  0.61666  0.79112  1.0000
  H   H924      1.0  0.49756  0.46167  0.91188  1.0000
  H   H925      1.0  0.57900  0.60123  0.72794  1.0000
  H   H926      1.0  0.50893  0.58637  0.95815  1.0000
  H   H927      1.0  0.54879  0.62120  0.80858  1.0000
  C   C555      1.0  0.68622  0.38591  0.49041  1.0000
  N   N40       1.0  0.96181  0.52699  0.48190  1.0000
  C   C556      1.0  0.53475  0.52369  0.87453  1.0000
  H   H928      1.0  0.56877  0.46859  0.64973  1.0000
  C   C557      1.0  0.97811  0.56196  0.54633  1.0000
  C   C558      1.0  0.58679  0.49601  0.65171  1.0000
  H   H929      1.0  0.70181  0.38228  0.49867  1.0000
  H   H930      1.0  0.50685  0.48506  0.78373  1.0000
  C   C559      1.0  0.59729  0.53362  0.64877  1.0000
  H   H931      1.0  0.56831  0.56554  0.93986  1.0000
  S   S171      1.0  0.52932  0.53489  0.68816  1.0000
  H   H932      1.0  0.96831  0.55083  0.58334  1.0000
  H   H933      1.0  0.50324  0.56942  0.92645  1.0000
  H   H934      1.0  0.63527  0.47284  0.88168  1.0000
  H   H935      1.0  0.53156  0.53169  0.77742  1.0000
  H   H936      1.0  0.58879  0.63103  0.56302  1.0000
  C   C560      1.0  0.95301  0.53583  0.50533  1.0000
  H   H937      1.0  0.55121  0.53887  0.60751  1.0000
  C   C561      1.0  0.95695  0.51870  0.52718  1.0000
  H   H938      1.0  0.67808  0.40432  0.48982  1.0000
  H   H939      1.0  0.52083  0.57492  0.78022  1.0000
  H   H940      1.0  0.64605  0.50791  0.89091  1.0000
  C   C562      1.0  0.51634  0.45395  0.96278  1.0000
  H   H941      1.0  0.59851  0.64678  0.51068  1.0000
  H   H942      1.0  0.64167  0.62151  0.56556  1.0000
  S   S172      1.0  0.72345  0.55755  0.49714  1.0000
  H   H943      1.0  0.58540  0.47931  0.62202  1.0000
  H   H944      1.0  0.98219  0.61683  0.53656  1.0000
  H   H945      1.0  0.50648  0.50921  0.95912  1.0000
  H   H946      1.0  0.94712  0.52685  0.54306  1.0000
  H   H947      1.0  0.97633  0.51448  0.52772  1.0000
  H   H948      1.0  0.95014  0.50268  0.52863  1.0000
  H   H949      1.0  0.52130  0.49563  0.89849  1.0000
  H   H950      1.0  0.52942  0.58029  0.74918  1.0000
  H   H951      1.0  0.53058  0.46907  0.76347  1.0000
  C   C563      1.0  0.63579  0.52114  0.90201  1.0000
  H   H952      1.0  0.62638  0.47388  0.96669  1.0000
  H   H953      1.0  0.55567  0.54767  0.76802  1.0000
  H   H954      1.0  0.57949  0.62891  0.60463  1.0000
  H   H955      1.0  0.58298  0.49617  0.90104  1.0000
  C   C564      1.0  0.59094  0.64162  0.59457  1.0000
  S   S173      1.0  0.57648  0.62485  0.86357  1.0000
  C   C565      1.0  0.56211  0.50302  0.94386  1.0000
  H   H956      1.0  0.50726  0.44236  0.77176  1.0000
  C   C566      1.0  0.98205  0.54889  0.56726  1.0000
  H   H957      1.0  0.57827  0.53945  0.65807  1.0000
  C   C567      1.0  0.58575  0.47518  0.64071  1.0000
  H   H958      1.0  0.56370  0.53663  0.97572  1.0000
  H   H959      1.0  0.50906  0.56781  0.72536  1.0000
  H   H960      1.0  0.62359  0.63398  0.53439  1.0000
  C   C568      1.0  0.51624  0.48456  0.76509  1.0000
  H   H961      1.0  0.60275  0.54898  0.63687  1.0000
  H   H962      1.0  0.53440  0.45936  0.92629  1.0000
  C   C569      1.0  0.58702  0.64758  0.56951  1.0000
  S   S174      1.0  0.51045  0.60397  0.68617  1.0000
  H   H963      1.0  0.63406  0.49540  0.63902  1.0000
  H   H964      1.0  0.50399  0.48379  0.87013  1.0000
  S   S175      1.0  0.68146  0.60089  0.48427  1.0000
  H   H965      1.0  0.59455  0.46715  0.91058  1.0000
  C   C570      1.0  0.61242  0.52822  0.66733  1.0000
  H   H966      1.0  0.60989  0.47674  0.86927  1.0000
  H   H967      1.0  0.64515  0.64949  0.56908  1.0000
  H   H968      1.0  0.63939  0.49785  0.94912  1.0000
  C   C571      1.0  0.52358  0.50455  0.88085  1.0000
  C   C572      1.0  0.50544  0.52849  0.67905  1.0000
  C   C573      1.0  0.58185  0.56146  0.94993  1.0000
  H   H969      1.0  0.60511  0.58871  0.75634  1.0000
  H   H970      1.0  0.63530  0.57495  0.95059  1.0000
  C   C574      1.0  0.62965  0.47553  0.92887  1.0000
  C   C575      1.0  0.59954  0.48448  0.90480  1.0000
  H   H971      1.0  0.60989  0.54387  0.67557  1.0000
  H   H972      1.0  0.52564  0.49947  0.75921  1.0000
  H   H973      1.0  0.59153  0.49622  0.96038  1.0000
  H   H974      1.0  0.64734  0.52432  0.91270  1.0000
  H   H975      1.0  0.98335  0.44583  0.49195  1.0000
  C   C576      1.0  0.61963  0.56667  0.95593  1.0000
  H   H976      1.0  0.67236  0.37625  0.50212  1.0000
  H   H977      1.0  0.60645  0.51463  0.68155  1.0000
  H   H978      1.0  0.64150  0.53515  0.61778  1.0000
  H   H979      1.0  0.62851  0.63066  0.80644  1.0000
  H   H980      1.0  0.99646  0.61051  0.50756  1.0000
  C   C577      1.0  0.51735  0.45767  0.93869  1.0000
  H   H981      1.0  0.79472  0.64058  0.52844  1.0000
  Fe  Fe87      1.0  0.93145  0.64949  0.48916  1.0000
  H   H982      1.0  0.63327  0.52863  0.59294  1.0000
  H   H983      1.0  0.62173  0.63891  0.77849  1.0000
  H   H984      1.0  0.62546  0.49066  0.61449  1.0000
  C   C578      1.0  0.53892  0.54527  0.76395  1.0000
  H   H985      1.0  0.59644  0.48891  0.66589  1.0000
  C   C579      1.0  0.61107  0.51644  0.91775  1.0000
  C   C580      1.0  0.53798  0.53509  0.85163  1.0000
  H   H986      1.0  0.52847  0.57412  0.97727  1.0000
  H   H987      1.0  0.54756  0.54928  0.84646  1.0000
  H   H988      1.0  0.58581  0.47158  0.95214  1.0000
  H   H989      1.0  0.62633  0.45757  0.93250  1.0000
  H   H990      1.0  0.56231  0.52124  0.93670  1.0000
  H   H991      1.0  0.96170  0.55039  0.50565  1.0000
  C   C581      1.0  0.58746  0.48985  0.94583  1.0000
  H   H992      1.0  0.56974  0.64734  0.53225  1.0000
  C   C582      1.0  0.58622  0.52421  0.61555  1.0000
  H   H993      1.0  0.55074  0.51304  0.62767  1.0000
  N   N41       1.0  0.60744  0.49187  0.92385  1.0000
  C   C583      1.0  0.63831  0.47966  0.94972  1.0000
  H   H994      1.0  0.55397  0.49486  0.93348  1.0000
  H   H995      1.0  0.60149  0.46130  0.64244  1.0000
  C   C584      1.0  0.52785  0.52866  0.83564  1.0000
  H   H996      1.0  0.52350  0.63522  0.77983  1.0000
  C   C585      1.0  0.55829  0.52908  0.62265  1.0000
  H   H997      1.0  0.52884  0.53849  0.81849  1.0000
  H   H998      1.0  0.50780  0.54006  0.74105  1.0000
  N   N42       1.0  0.59877  0.51448  0.63523  1.0000
  H   H999      1.0  0.64531  0.47560  0.91362  1.0000
  C   C586      1.0  0.64018  0.52122  0.60878  1.0000
  H   H1000     1.0  0.65893  0.51199  0.60265  1.0000
  H   H1001     1.0  0.52592  0.54699  0.95213  1.0000
  C   C587      1.0  0.51167  0.54898  0.96861  1.0000
  H   H1002     1.0  0.60987  0.63401  0.59509  1.0000
  H   H1003     1.0  0.93339  0.54340  0.50846  1.0000
  C   C588      1.0  0.92883  0.50154  0.49462  1.0000
  C   C589      1.0  0.99614  0.55942  0.52559  1.0000
  H   H1004     1.0  0.77471  0.51840  0.48289  1.0000
  C   C590      1.0  0.51486  0.51067  0.84267  1.0000
  C   C591      1.0  0.50149  0.50584  0.68314  1.0000
  H   H1005     1.0  0.66353  0.63668  0.54492  1.0000
  C   C592      1.0  0.52104  0.56827  0.76404  1.0000
  C   C593      1.0  0.61709  0.55031  0.97593  1.0000
  C   C594      1.0  0.62177  0.64562  0.79449  1.0000
  C   C595      1.0  0.64491  0.63861  0.55632  1.0000
  Fe  Fe88      1.0  0.70269  0.62339  0.49315  1.0000
  S   S176      1.0  0.95767  0.61664  0.48380  1.0000
  H   H1006     1.0  0.97899  0.49301  0.49435  1.0000
  C   C596      1.0  0.51098  0.57339  0.97357  1.0000
  H   H1007     1.0  0.58483  0.64297  0.81080  1.0000
  C   C597      1.0  0.49794  0.55805  0.74044  1.0000
  C   C598      1.0  0.49863  0.48581  0.74952  1.0000
  H   H1008     1.0  0.50987  0.48306  0.73170  1.0000
  C   C599      1.0  0.62671  0.64885  0.54096  1.0000
  H   H1009     1.0  0.50924  0.44316  0.74147  1.0000
  S   S177      1.0  0.50832  0.65212  0.87489  1.0000
  H   H1010     1.0  0.57449  0.65514  0.77457  1.0000
  H   H1011     1.0  0.91584  0.49582  0.48728  1.0000
  C   C600      1.0  0.98333  0.50786  0.48102  1.0000
  H   H1012     1.0  0.52033  0.95423  0.42875  1.0000
  S   S178      1.0  0.58859  0.96266  0.43207  1.0000
  H   H1013     1.0  0.61494  0.90147  0.45340  1.0000
  H   H1014     1.0  0.50286  0.67277  0.09559  1.0000
  H   H1015     1.0  0.98701  0.65815  0.30141  1.0000
  H   H1016     1.0  0.56442  0.97290  0.34595  1.0000
  S   S179      1.0  0.94290  0.68373  0.47750  1.0000
  C   C601      1.0  0.95819  0.68450  0.44784  1.0000
  H   H1017     1.0  0.51009  0.67184  0.13326  1.0000
  H   H1018     1.0  0.88737  0.74830  0.46268  1.0000
  C   C602      1.0  0.63491  0.67519  0.46269  1.0000
  H   H1019     1.0  0.52928  0.78997  0.41825  1.0000
  H   H1020     1.0  0.51321  0.81474  0.40492  1.0000
  C   C603      1.0  0.96227  0.66508  0.43684  1.0000
  H   H1021     1.0  0.56868  0.97636  0.38734  1.0000
  H   H1022     1.0  0.89342  0.69648  0.46151  1.0000
  H   H1023     1.0  0.62894  0.97179  0.39541  1.0000
  H   H1024     1.0  0.58786  0.89159  0.46931  1.0000
  C   C604      1.0  0.60239  0.89012  0.45318  1.0000
  H   H1025     1.0  0.51266  0.73309  0.44797  1.0000
  N   N43       1.0  0.57364  0.88558  0.42847  1.0000
  C   C605      1.0  0.59270  0.89785  0.43078  1.0000
  C   C606      1.0  0.57062  0.89209  0.40372  1.0000
  C   C607      1.0  0.58257  0.86010  0.43332  1.0000
  C   C608      1.0  0.55065  0.89305  0.44610  1.0000
  H   H1026     1.0  0.50797  0.72632  0.40990  1.0000
  C   C609      1.0  0.56203  0.91779  0.39627  1.0000
  C   C610      1.0  0.57212  0.84414  0.42288  1.0000
  C   C611      1.0  0.52803  0.88386  0.44615  1.0000
  H   H1027     1.0  0.60876  0.89608  0.41570  1.0000
  H   H1028     1.0  0.58570  0.91653  0.43044  1.0000
  H   H1029     1.0  0.55752  0.88308  0.40031  1.0000
  H   H1030     1.0  0.58805  0.88659  0.39118  1.0000
  H   H1031     1.0  0.60255  0.85590  0.42633  1.0000
  H   H1032     1.0  0.84476  0.69692  0.45404  1.0000
  H   H1033     1.0  0.52344  0.68708  0.29601  1.0000
  H   H1034     1.0  0.54578  0.91202  0.44502  1.0000
  H   H1035     1.0  0.55337  0.88771  0.46405  1.0000
  C   C612      1.0  0.65583  0.66418  0.47040  1.0000
  H   H1036     1.0  0.53848  0.97642  0.38451  1.0000
  H   H1037     1.0  0.54407  0.92415  0.40723  1.0000
  H   H1038     1.0  0.57523  0.92841  0.39648  1.0000
  H   H1039     1.0  0.55988  0.92032  0.37804  1.0000
  H   H1040     1.0  0.57772  0.82615  0.43054  1.0000
  H   H1041     1.0  0.57946  0.84517  0.40368  1.0000
  H   H1042     1.0  0.55217  0.84751  0.42676  1.0000
  H   H1043     1.0  0.52819  0.86630  0.45577  1.0000
  H   H1044     1.0  0.52540  0.88457  0.42844  1.0000
  H   H1045     1.0  0.51173  0.89507  0.45511  1.0000
  C   C613      1.0  0.62322  0.69698  0.46835  1.0000
  H   H1046     1.0  0.51114  0.70543  0.25992  1.0000
  C   C614      1.0  0.98153  0.70351  0.41234  1.0000
  Fe  Fe89      1.0  0.57161  0.95962  0.47065  1.0000
  S   S180      1.0  0.59733  0.71046  0.45799  1.0000
  C   C615      1.0  0.50414  0.95595  0.46514  1.0000
  H   H1047     1.0  0.96428  0.71909  0.44374  1.0000
  H   H1048     1.0  0.51580  0.66027  0.05992  1.0000
  H   H1049     1.0  0.50547  0.71361  0.35256  1.0000
  H   H1050     1.0  0.57941  0.85436  0.45250  1.0000
  H   H1051     1.0  0.50434  0.75132  0.28901  1.0000
  H   H1052     1.0  0.51721  0.96519  0.46696  1.0000
  C   C616      1.0  0.51819  0.80704  0.42154  1.0000
  H   H1053     1.0  0.52992  0.81736  0.42532  1.0000
  C   C617      1.0  0.51554  0.70811  0.33532  1.0000
  C   C618      1.0  0.95039  0.67042  0.34820  1.0000
  C   C619      1.0  0.53182  0.68472  0.34001  1.0000
  H   H1054     1.0  0.79059  0.66877  0.45160  1.0000
  H   H1055     1.0  0.54321  0.68634  0.35163  1.0000
  C   C620      1.0  0.88154  0.71292  0.46627  1.0000
  H   H1056     1.0  0.93109  0.67871  0.35320  1.0000
  S   S181      1.0  0.54286  0.76214  0.46523  1.0000
  H   H1057     1.0  0.87084  0.71898  0.45280  1.0000
  H   H1058     1.0  0.90991  0.72699  0.47466  1.0000
  H   H1059     1.0  0.61279  0.87238  0.45390  1.0000
  C   C621      1.0  0.96743  0.70395  0.43540  1.0000
  C   C622      1.0  0.89803  0.73070  0.46228  1.0000
  H   H1060     1.0  0.54434  0.67921  0.32374  1.0000
  C   C623      1.0  0.98677  0.68346  0.40196  1.0000
  H   H1061     1.0  0.62773  0.66678  0.45232  1.0000
  H   H1062     1.0  0.91031  0.73029  0.44456  1.0000
  H   H1063     1.0  0.95730  0.66622  0.36432  1.0000
  C   C624      1.0  0.51308  0.70490  0.29581  1.0000
  H   H1064     1.0  0.96014  0.68334  0.33588  1.0000
  H   H1065     1.0  0.52121  0.67117  0.34925  1.0000
  H   H1066     1.0  0.59581  0.98712  0.35532  1.0000
  H   H1067     1.0  0.50759  0.75553  0.31719  1.0000
  H   H1068     1.0  0.52710  0.71598  0.28931  1.0000
  H   H1069     1.0  0.52800  0.72053  0.32743  1.0000
  C   C625      1.0  0.50588  0.94983  0.44343  1.0000
  H   H1070     1.0  0.52586  0.97420  0.34141  1.0000
  C   C626      1.0  0.97678  0.66445  0.41417  1.0000
  H   H1071     1.0  0.82125  0.68615  0.47623  1.0000
  C   C627      1.0  0.83394  0.69846  0.47215  1.0000
  H   H1072     1.0  0.82275  0.71578  0.47314  1.0000
  H   H1073     1.0  0.50426  0.85205  0.41691  1.0000
  H   H1074     1.0  0.77843  0.66289  0.41971  1.0000
  H   H1075     1.0  0.76311  0.65661  0.45988  1.0000
  H   H1076     1.0  0.99153  0.69057  0.47969  1.0000
  H   H1077     1.0  0.98920  0.71831  0.40291  1.0000
  H   H1078     1.0  0.50285  0.80561  0.45821  1.0000
  H   H1079     1.0  0.62345  0.98625  0.47327  1.0000
  N   N44       1.0  0.49849  0.70901  0.32004  1.0000
  C   C628      1.0  0.49959  0.65704  0.10790  1.0000
  C   C629      1.0  0.55023  0.98660  0.38848  1.0000
  C   C630      1.0  0.49723  0.65919  0.05928  1.0000
  H   H1080     1.0  0.82205  0.65791  0.42478  1.0000
  C   C631      1.0  0.61758  0.98807  0.39908  1.0000
  C   C632      1.0  0.49840  0.70811  0.27706  1.0000
  C   C633      1.0  0.59667  0.98876  0.41718  1.0000
  H   H1081     1.0  0.61373  0.70917  0.53421  1.0000
  Fe  Fe90      1.0  0.57083  0.92369  0.51426  1.0000
  S   S182      1.0  0.54242  0.94670  0.53729  1.0000
  S   S183      1.0  0.58610  0.88631  0.52406  1.0000
  Fe  Fe91      1.0  0.52482  0.95573  0.50721  1.0000
  S   S184      1.0  0.54797  0.73034  0.56722  1.0000
  H   H1082     1.0  0.54621  0.69273  0.76778  1.0000
  H   H1083     1.0  0.57322  0.68614  0.54018  1.0000
  H   H1084     1.0  0.58494  0.65678  0.60401  1.0000
  H   H1085     1.0  0.56821  0.82740  0.55342  1.0000
  S   S185      1.0  0.53982  0.71773  0.50685  1.0000
  N   N45       1.0  0.58442  0.67767  0.79336  1.0000
  H   H1086     1.0  0.62403  0.72484  0.48566  1.0000
  S   S186      1.0  0.69154  0.66161  0.49358  1.0000
  Fe  Fe92      1.0  0.54408  0.74085  0.53006  1.0000
  H   H1087     1.0  0.60134  0.68469  0.51916  1.0000
  C   C634      1.0  0.86671  0.69155  0.53290  1.0000
  S   S187      1.0  0.57494  0.75533  0.50450  1.0000
  H   H1088     1.0  0.53837  0.88925  0.51659  1.0000
  C   C635      1.0  0.85863  0.74710  0.50774  1.0000
  C   C636      1.0  0.88063  0.69815  0.50753  1.0000
  Fe  Fe93      1.0  0.54600  0.78216  0.49195  1.0000
  H   H1089     1.0  0.57218  0.70590  0.75216  1.0000
  H   H1090     1.0  0.54348  0.86117  0.56909  1.0000
  C   C637      1.0  0.66549  0.67512  0.48342  1.0000
  N   N46       1.0  0.60296  0.66277  0.55213  1.0000
  H   H1091     1.0  0.61975  0.68769  0.81492  1.0000
  C   C638      1.0  0.51510  0.67466  0.58637  1.0000
  H   H1092     1.0  0.62470  0.71032  0.55884  1.0000
  H   H1093     1.0  0.89344  0.70892  0.50824  1.0000
  H   H1094     1.0  0.57314  0.66838  0.50693  1.0000
  H   H1095     1.0  0.54003  0.66321  0.80096  1.0000
  C   C639      1.0  0.53683  0.70562  0.58280  1.0000
  C   C640      1.0  0.54207  0.69657  0.60457  1.0000
  C   C641      1.0  0.53409  0.67648  0.61708  1.0000
  H   H1096     1.0  0.60521  0.84107  0.51099  1.0000
  H   H1097     1.0  0.55243  0.70504  0.61175  1.0000
  Fe  Fe94      1.0  0.51423  0.74777  0.49361  1.0000
  C   C642      1.0  0.57309  0.86712  0.51452  1.0000
  H   H1098     1.0  0.61885  0.71608  0.79983  1.0000
  H   H1099     1.0  0.60052  0.79996  0.54943  1.0000
  H   H1100     1.0  0.56514  0.68310  0.74150  1.0000
  C   C643      1.0  0.57682  0.83077  0.50051  1.0000
  C   C644      1.0  0.58675  0.84577  0.50907  1.0000
  H   H1101     1.0  0.52676  0.84787  0.55647  1.0000
  H   H1102     1.0  0.56584  0.82536  0.58386  1.0000
  H   H1103     1.0  0.51635  0.76974  0.59263  1.0000
  C   C645      1.0  0.55321  0.83714  0.49728  1.0000
  H   H1104     1.0  0.59006  0.71217  0.77876  1.0000
  H   H1105     1.0  0.51894  0.70158  0.55707  1.0000
  H   H1106     1.0  0.66154  0.70571  0.49864  1.0000
  C   C646      1.0  0.52331  0.69463  0.57371  1.0000
  C   C647      1.0  0.85007  0.69189  0.48989  1.0000
  H   H1107     1.0  0.83191  0.72686  0.51025  1.0000
  H   H1108     1.0  0.53932  0.75994  0.60918  1.0000
  C   C648      1.0  0.53534  0.84565  0.57136  1.0000
  H   H1109     1.0  0.64061  0.68941  0.54005  1.0000
  Fe  Fe95      1.0  0.56888  0.73393  0.48046  1.0000
  H   H1110     1.0  0.86180  0.67515  0.48625  1.0000
  Fe  Fe96      1.0  0.56269  0.97486  0.51780  1.0000
  H   H1111     1.0  0.52160  0.84558  0.58819  1.0000
  C   C649      1.0  0.60626  0.68162  0.56367  1.0000
  C   C650      1.0  0.54925  0.87307  0.51198  1.0000
  C   C651      1.0  0.55568  0.82450  0.57079  1.0000
  C   C652      1.0  0.56528  0.68956  0.75765  1.0000
  C   C653      1.0  0.53940  0.85818  0.50334  1.0000
  H   H1112     1.0  0.58835  0.69189  0.57091  1.0000
  H   H1113     1.0  0.61410  0.67487  0.57904  1.0000
  H   H1114     1.0  0.55209  0.70398  0.80114  1.0000
  C   C654      1.0  0.57124  0.78354  0.57385  1.0000
  H   H1115     1.0  0.54674  0.80643  0.53838  1.0000
  C   C655      1.0  0.53237  0.79746  0.59887  1.0000
  H   H1116     1.0  0.54172  0.79932  0.61222  1.0000
  H   H1117     1.0  0.56716  0.76603  0.57617  1.0000
  C   C656      1.0  0.59136  0.78526  0.55110  1.0000
  H   H1118     1.0  0.85139  0.74554  0.52699  1.0000
  H   H1119     1.0  0.58773  0.81470  0.49556  1.0000
  H   H1120     1.0  0.53871  0.78047  0.55432  1.0000
  H   H1121     1.0  0.57946  0.78380  0.58857  1.0000
  C   C657      1.0  0.59986  0.69598  0.78676  1.0000
  H   H1122     1.0  0.50948  0.98138  0.59101  1.0000
  H   H1123     1.0  0.50453  0.98174  0.56296  1.0000
  H   H1124     1.0  0.58458  0.78619  0.53530  1.0000
  H   H1125     1.0  0.83757  0.68836  0.50727  1.0000
  C   C658      1.0  0.56037  0.68677  0.80871  1.0000
  C   C659      1.0  0.53687  0.79892  0.55570  1.0000
  H   H1126     1.0  0.60548  0.76959  0.55155  1.0000
  S   S188      1.0  0.51565  0.76945  0.51954  1.0000
  C   C660      1.0  0.62230  0.69840  0.54797  1.0000
  H   H1127     1.0  0.61648  0.69119  0.77301  1.0000
  H   H1128     1.0  0.56282  0.68982  0.82560  1.0000
  N   N47       1.0  0.54840  0.80137  0.57465  1.0000
  H   H1129     1.0  0.52112  0.86323  0.50092  1.0000
  H   H1130     1.0  0.49870  0.79543  0.56300  1.0000
  C   C661      1.0  0.52063  0.66540  0.60800  1.0000
  H   H1131     1.0  0.53806  0.66977  0.63390  1.0000
  H   H1132     1.0  0.87949  0.68755  0.54453  1.0000
  H   H1133     1.0  0.85923  0.67576  0.53461  1.0000
  H   H1134     1.0  0.59942  0.66770  0.75869  1.0000
  H   H1135     1.0  0.87854  0.74500  0.50375  1.0000
  H   H1136     1.0  0.63626  0.65865  0.52484  1.0000
  C   C662      1.0  0.60796  0.70227  0.80693  1.0000
  H   H1137     1.0  0.85194  0.70542  0.53949  1.0000
  H   H1138     1.0  0.59241  0.70902  0.82064  1.0000
  H   H1139     1.0  0.89259  0.68221  0.50167  1.0000
  C   C663      1.0  0.84851  0.73094  0.49705  1.0000
  H   H1140     1.0  0.50452  0.66627  0.57933  1.0000
  C   C664      1.0  0.54129  0.67103  0.81572  1.0000
  H   H1141     1.0  0.52303  0.68136  0.82155  1.0000
  C   C665      1.0  0.59606  0.65653  0.80681  1.0000
  H   H1142     1.0  0.59676  0.65990  0.82422  1.0000
  C   C666      1.0  0.65400  0.69708  0.48879  1.0000
  N   N48       1.0  0.86522  0.70906  0.49037  1.0000
  C   C667      1.0  0.58998  0.67411  0.53308  1.0000
  S   S189      1.0  0.59341  0.95100  0.49780  1.0000
  S   S190      1.0  0.54289  0.98552  0.48918  1.0000
  H   H1143     1.0  0.50679  0.81826  0.54097  1.0000
  C   C668      1.0  0.58152  0.67139  0.77118  1.0000
  H   H1144     1.0  0.51569  0.81054  0.60155  1.0000
  C   C669      1.0  0.50963  0.80926  0.55826  1.0000
  C   C670      1.0  0.52424  0.77395  0.60587  1.0000
  H   H1145     1.0  0.85192  0.76513  0.50100  1.0000
  H   H1146     1.0  0.50190  0.82176  0.57074  1.0000
  H   H1147     1.0  0.51004  0.77415  0.62247  1.0000
  H   H1148     1.0  0.98935  0.69003  0.51048  1.0000
  S   S191      1.0  0.55146  0.93071  0.48565  1.0000
  S   S192      1.0  0.54143  0.82072  0.48313  1.0000
  C   C671      1.0  0.63273  0.70788  0.48154  1.0000
  H   H1149     1.0  0.63486  0.65745  0.79028  1.0000
  C   C672      1.0  0.58257  0.65788  0.52028  1.0000
  H   H1150     1.0  0.77817  0.66014  0.48126  1.0000
  H   H1151     1.0  0.84210  0.74107  0.48163  1.0000
  H   H1152     1.0  0.54496  0.65730  0.83014  1.0000
