data_image0
_chemical_formula_structural       FeS2FeS2FeSFeS3CSFeS2FeSFeHSFeHSFeH3SHCHCHSHC3HCHNHCH8C2HC4H2C6H4C2FeCHCHCH2C6H4CHFeH7CH6C2N2CH4CH6SC3NH2NC8H12SH8CH2CH3SH2CHC2HCH3C2H2CHC2HCH7CH6C4HCNHC2HCH2CH2C2H2CH3SCH4SHCH7CFeHCH3SHC2H2SC2HC2H3CHFeH2SCHCHFeSHFeS2FeSFeS3FeS2FeS2FeSFeS3FeS2FeS2FeSFeS3FeHFeS2FeS2FeSFeS3FeCSFeHSH2SHFeS2FeS2FeSFeS2FeS2FeS2Fe2S6FeS2Fe2C2SCHC2HC3H3C6H4C7H4C6H4CH6SC4SH3C3HC2H3C6H4C6H4C6H4C6H4C6H4C6H4C6H4C6H6NC3HC3H6CHC2H5CH5NC5H2CH12C2H2C2HFeNH2CH2SC2HC2H6NC6H14CH6FeCH4CHC2SH6SHCH2C2HC3H9CHCHNH4C3H2NH12CH4CH4SCH3CH6CHCHCHCNC8H20NC7H7CHCHCH6CSHNC8H20NC8H12SHSHCH5CHCHCHNCH2CH4C2HCH3NCH2SHC2H2SHNC8H20NC8H20CH4CHC2HCH2CHCHC2H4CHNHCH4CH2CH3FeCHC2HSHCH5FeHCNH2C2H3FeS2FeS2FeSFeS3FeSFeS2FeSFeS3FeS2CH2CHCSHFeSH3SHSFeSFeS2FeS2FeS2FeSFeS3FeS2FeS2FeSFeS3FeS2FeSHFeSFeS3HCH2C6H4C6H4C6H5C4HCH2SCHCH2C6H5C2HCHCHCSH4C8H4C6H5C6H4C6H4C6H4C6H5CH3CH4CHSHCH2CH5CHCSH2CNHNC8H20C2NH4CHCH4CNCHC2H3CSHSH2FeH3CHSH2SHNHC7H5CH2C3H3SH6C2FeH8CH2FeH2CH3C2H12CH3NC8H20NC8H20NC8H20NC8H20NC6HCH15CH2NHNC5H11NCH2CH6SCHFeHCH7C3FeH4CH5C2H2C2H5C2H8C2H10C2HCH2FeNH2C2H2FeCH5NHC2H2C2H4SH4CHCHCHCH2C2HSCNH3FeHFeS2H2C2S2HSH2CHCHCFeS2FeS2FeSFeS3H3FeS2FeS2FeSFeS3HFeS2FeS2FeSFeCS2CSCHCH2FeSNHCHC3H2CH2C3HCH5CHNCHNH2FeCHNH3CH2CHCH3C6H4C6H4C6H4C6H2CHC6H5C6H4C3H10C3HCH3NH5CHCHSCH12CH2CH5CH2CH3CH4CH2SCH2C2NC8H20C6NH3SC2H3CHSCH7SFeNC8H21NCH2CH6CSHC2H2C2SHC2HC3HC2H2NCHCH5C2H2C2H4FeCHCHC2HCH10CHSH2CHCH5SHC5HFeS2FeS2FeSFeS3FeS2FeS2FeSFeS3FeS2FeS2FeSFeS3FeHSFeS2H2CS2H2SHNHSFeSH2FeS2FeS2FeSFeS3FeS2FeS2Fe2S3C7H4C6H4FeHSH2CFeH3CHCHC2H4C4HNH2NC7H4C2HC6H4C6H4C6H4C6H4C6H4C6H4C6H5CH8CH2C2H3CH4CH3CH5NH3CH2FeH2CNC8H20NC8H20NC8H17CH3CNHC3HCHCNFeH8CH2C2NCH3CH4CH3CH2C3HC2H3C2HSCH2CNC8H20CH10CH8C2HNC8H10CH9NC5H12SNCS2HCH7CHSHCHCHCH4NC2H2C4H6CH7C2HC2H3CHC2H4CHCH2C3H3C2HC2H6CH2CH3CHFeHCH8CHNCHC2HC3H6FeH2CH2SCH6SCH4C2HCHCH7CHC2H2FeS2FeS2FeSFeS3CFeS2FeS2FeSFeS3FeHSFeHSFeHS2FeS2CHFeSFeS3H2SFeSH2SC6H5C5H4C7H4C2H4C2H2C6H4C6H4C6H4C4SCH2CHN2C2HS2CHCNC8H8SCH12FeHSHC2H4C2H7CH3CH6SH2CH5CHCH2CH6CHCHNHNFeSH5SCH4CH4CH3CHC3HC2H3CH3CNC8H11CH4NH3NC8H23C6HCH2CH5CH3C2H8CFeS2FeS2FeSFeS2HCFeCSCHSH5SFeSHFeSHFeSFeSHSFeS2FeS2FeSFeS3C5H3CHC6H4C2HSHC6H4C6H4C7H4C6H3C2HSC2H4C2NH2C2H5CH4CH4NHCHCHCH7CHCNHCHCHC3H6NH2CH4C2HCH3CH3CH11CH2SH2C3H3CHCHCHC6HCH5C2HCNHCH4CHCHC2H7C2H5C4HCH4NH2SH8CH3CSH10C2HCFeH6FeHSCH3SFeSFeS2FeSFeS3FeSHFeS2FeSFeS3FeS2FeS2FeSFeS3FeS2FeS2FeSFeS3FeS2FeS2FeSFeS3FeS2FeS2FeSFeS3CFeS2FeS2FeHFeS3HCFeHSHCH3CH3C3HC2H8CHC6H2C6H4C6H4C3NC2H4C6H4C6H4C6H7C6H4C6H4C6H4C6H4C6H4FeC2SHC6H5C5H2CH4FeHCH2CH3CH6CH5CH2CSNC7H17NC8H20NC5HC2H2CHCH5C2H8NC6H15NC8H20NC6HCH11SCH3CSH2NC8H22CH3CHC3H3CH5CH3SHNC5H12NC8H6CH3NH2CNH2SCH2CHCH10CH8CHNCHC3H2CH5NCH4SCSH3CH3C2SCHCHCH4CFeCH3CHSCH2CH5CH3CHCHCH3C2HSH2CH2NC3HCHC3HCH2SH4C2H5CHCH4CHCH8CHFeHC3H3CHCH2CHSH6CH4CHCH3CH2CH5SFeNH3CH2FeH2CH3SHCFeS2FeS2FeSFeS3FeS2FeS2FeSFeS3H2FeS2FeS2FeSFeS3HSH3FeSHFeS2FeS2FeSFeS3FeS2FeS2FeSFeS4CFeSFeS2FeSHS2H3NC4H3C4H2C6H4C6H4C6H4C4H5SC6H7CFeH6C6H4C6H4C2H2C2H4C6H4C6H5C5H3C6H4CNC8H20C3H8NC8H20CH4NC7H16NC8H21CHCH4CH2CH6CH9CH4C3H3C3HCNHNH4SH2C2HSHC3HCHCSH6NC2HC3HC2HSFeH4FeH4NH4CNC8H22CH2NH2C2H4CH3CH4C2SH3C2H5CH8CH2C3HC2NHC2H3CH5CHCHCH2NCH3C2HC2H2C3HCHCH3CH2CH3C3HCH10C3HCH2CH2SC2HCH5CHCH2CHSCH4C3H2NHC2HC2H5CH3C3H5C2HFeS2FeS2FeSFeS3FeS2FeS2Fe2NS2HFeS2FeSCFeSFeS3FeS2FeS2FeSFeS3H2SC2SFeS2HSFeS2H2CHCH2C7H4C6H4C2HC3HCH2C6H4NC2HC7H4CH4CHC2H3CH3C6H4CH3C2H3C6H3CHCH2C2H7NCH2CH2CH4CNC2H7CH2CHCH2FeHCH9CH2NHCHCH2C2HNC8H20CH2C2HCH5C2HC4H5CH2CH5CHSH2C2H2SH8CH2CH3NC5H12NC8H21C2HCHCNCH4FeSH2CH2NCH7C2H7CH2SCH2CH2SH2CHCS2FeSFeHSFeS2FeS2FeSFeHS2CHSHCHFeCH2C3H2CHCHC6H4FeCHC6H5C2H18CHCNHCHCH7CH2CS2HS2CH9C2H3FeNH2FeH3CH2CSH3C3H3C2H6C4HNH2C3HC2H2CHSHNC7H18C3HCHCNSHCHCH4CHC2HCHCHCH9FeSFeS2FeSFeS3FeS2FeS2FeSFeS3FeS2FeS2FeSFeS3FeS2FeS2FeSFeS3H4FeS2FeS2FeSFeS3FeS2FeS2FeSFeS4CHCSHFeH2FeHSFeHSH2FeHS2FeSHFeSCFeSFeS3H3CSFeSCH4C4SH2C2H2C3HCH7FeH4C8H6C6H4C6H10CH2C6H4C6H6CH3CH2C2H8CH5C7H4C6H4C6H4C6H4C6H4C3SH2C6H4C6H4C6H2NC7H18C3HNC8H10CH9NC3HC3H8CH3C3H2CSHFeH5C2HCH7CH2C2HNC8H20NCNCHC2H6CH6CHSH3CHNH2CH2NHNC8H18CHNC8H17CH2CSHC4HCFeC2H5CH2CH2C3NC4H2CSH3CHCHCH6SHCHCHC2H2CH2C2H2CNH7NCH2C2HC2HC3H4CSHCH2CNH4CHCHCH3CHNH3SCHC2HCH6SHCHNCH2C2HC2H16CH2CFeH3NC2H5SCHCHCH3CH11CH3CH3CH4C3H3NCH3C2HCH3C2HC2H2NC3H5CH11CH3C3H6CH3CHS2H3CH3CHCH5SH2CFeCSFeS2CFeS3FeS2FeS2FeSFeS3HCSFeS2FeSFeSHCSCH3NCH4CH4C4H4C8H4CH4C6H4C6HCHC7HCH4CH2CHS2H2CHFeCHFeH3C2SC2H5SHFeNC4HC3H5CH2CH12C2H3CH2CH4CH4CH7C3HC2H9CHCHNH2CH2NH2C2HCHC2HCFeHC2SH2SHCHNH3CH2N2H3CH7C3H3C3SH7C2HNC8H17CH3CFeH3C3H10CH3SNH4Fe2S2Fe2S3HFeS2FeS2FeSFeS3FeCHSFeS2FeS2FeSHFeSFeS3FeS2FeS2FeSFeS3FeS2FeS2FeSFeS3FeS2FeS2FeSFeS3HCHSH4SH3SHC2HCH3C6HCH2C6H4C6H4C6H4CH3C2H4C6H4CH4C6H3C6H4C6H4C6H4C6H6C2HFeH2CHC6H4C6H4C3H4CH7C2H2SNC4HC3H8FeHCH9NC8H19CNC8H20CHC3SCHFeCH3CH12SC2HCH4FeCHNC8H20NC8H20NC8H20NC9H6CH5CH2C2H4CH4C2HNC2H2FeH6CHCNH2CH2CNC3NCHC2H2CHCH7CH6SH4SHCH4CH3NSH3CHC3HFeHSHCSHCH3C3H3SCHCH2SCH3C3HFeHCHCHCH3SHCH3SH4CH3C2H2C4H7CHCH8NH4CNHSH2C2H2C2H2CH2CSHCH2FeCH7C4H2C2HCNH3CHCHSH4CH3C2HC4H4CH2C2NCHC4H4CH2CHSH3CFeS2FeS2FeSFeS3FeS2FeS2FeSFeS3CH2SHFeS2FeS2FeSFeS3FeS2FeS2FeSFeS3FeS2FeS2FeSFeS3FeS2FeS2FeHFeS3FeS2FeS2Fe2HS2H2SHCSHSH6SH4C2SHCHCH2CHNH2CH3CH2CH3C2H2CH4CHCH4NSHSC6H2C9H4C6H5C3H4C6H4C6H4C6H5C6H4C6H4C6H4C6H4C6H4C6H4FeNH2C2H3CH2C2H5FeH5C2H6CH2C2H3C3NHC2H5NHCH2NC8H22CH2CHCH2C2H2C2HSHC2HCH2CHNC8H20NC8H21CH7CFeCH2CFeHSHNH4CHCHC2H3NC4HC5H3CH2CHNH2CH6NC8H22CHCHCH14CNHCHC2H7C3HCH7C2NHCHCHC3H6CHSH6CH4NC8H12C2H4C2H5CH4CH4CH3CH5CH2CH6C2H3CHC3NCHNHC2HC2H4CSHCH3CH3CH2CHCH2NH4C2HCH2SCHCFeH2CHFeS2FeS2FeSFeS3FeS2FeS2FeSFeS4CFeSHFeSFeNFeS3CSC3H3SHCH2CNC6H4C6H5C5H3FeC6H4CHCH2C7H4C2HCH2NHC2FeCH2NH4SCHNC7H22C2H2CH3CH2CH4FeC2HSH2CHSH2NH2SH4SHC2HC2HSCHC4H2CHC3H2C4H24C3H2SH5CH2CHNHCH2SC2H3CHCHCHCH2CHCH3CH4CHCH3CH4CHC2H2NC8H20NHCHCH2CHSCH2CH6C2HC2H4CHC2H4C2HCHCHSCH3SH2FeH4CHCH3CSH3SFeSFeSHFeS2FeS2FeSFeS3C3HC6H6C2HC6H4C2H3C3H2CH5CH5CHCHNH2S2C3H4SHC2HC3H2FeC3H2CH6C2H4SHCH8CNHCH8CHCFeSH4C3HCH4CH2CHCHC2H2CSCNC8H22CNH2CH3SH4C3H2SHCHCH3CH2C2H2FeNH3CHCNFeS2FeS2FeSFeS3FeS2FeS2FeHFeS2HCFeCSFeHSFeHCHS2NCHCHFeS2FeS2FeSFeS3FeS2FeS2FeSFeS3FeS2FeS2FeSFeS3FeS2FeS2FeSFeS3CSHCFeS2FeS2FeSFeS3FeS2FeS2HFeS3HC2HCNFeHC6H4C6H4C6H4C6H4C6H4C6H4C6H4C6H4C6H11C6H6C6H9CH3NC7H3C6H5CHC2HC2HC3H2C8H4CNHCSC2H2C6H9CH2CH5C2HCHC2H2CH2CH4CHC2SCHCHC2H3CHC2HCH2C2SH5CHCNC8H20NC8H20CH3CH2S3H2CH6CH15CHC2H2CH2FeCH3CH6CHNCHCHCH9SH6FeHC2HCN2C8H22NC5HCFeH11CHCH7CHSH4CH2NC8H17CHC2NH2CHCH5C2H6CH3CH4NC6H14NC8H17CH2NC8H27C2H7NCHC2H2CH5CH2CHNH2CHC2H3CH4SHCHC3HC2H4CHCH2CNHCH4CFeSFeCSHCHSNH2CH2FeS2FeS2FeSFeS3FeS2FeS2FeSFeS4CS2FeSFeSCFeS2FeS2FeSFeS3FeS2FeS2FeSFeS3FeS2FeSHFeSFeS3C9H4C6H4C6H4CHC6H4C6H4C3H5NC7H4C6H4C6H3C6H4C6H4CHSC3H7NH2C2H2C2FeHC3HCH4CH2NHCH4C2HNC8H20NCHC2HCH3SH4CH4NC4H13CH2CHC2HCH4CHC2HCH3C2HCHCH2CFeH2CH2CSC2H6CHCH3CHC3H8CH2CH4CH3CH2C2H2NH4CH7CH3CH2CH8CH3CHC2H2NC2HC2H7CH4NC7H17NC8H20NC8H23CH3CHSHC3H6C2HCH3C2H2CHCH8NC2H7CH3SCH5CHCH2NCSHCHCHCHCSH13C2SH2C2HCH4CH4CH4SHNH2FeHCHCH2SC3SH6C2H2NHS2CFe2HSFeCS2HFeS2FeS2FeSFeS3FeCHFeS2H3S2CFeS2FeS2FeSFeS3C5FeS2FeS2FeSFeS3H2C3H4C7H7C6H6CHSH3C2H2C2H2C8H4C2HC3HCH2C6H6C4HNH2CH4C6H6CH2C2HFeC2H6SH4CHCHCNSCHNHCH2CH2FeC2H6CH6SCH2NC8H20NC4HC2SH4CH4CH2CH7CH4CH4CHCHCHCH5CH8C4H4NHSHCH4C2H3C2HC3H4C2H5C2NH5CH4CHNH3C2HSC3H4CH3CHCH6SCHC2H2NHCHCH11C2HFeC3HFeS2FeS2FeCFeS2HSHCH4SH6SHCH2CNFeS2FeS2FeSFeS3FeS2FeS2FeSFeS3FeS2FeS2FeSFeCS2FeS2FeS2FeSFeS3FeS2FeS2FeSFeS3FeS2FeS2FeSFeS3HCSC6H4C6H7C4H3CH5C6H4C6H4C6H4C6H4C6H4C6H4C6H7C2H2C2HC6H4SCFeCHCH2C6H4CH2C6H4C3HCH4CH2C3H3NC8H21CH3NC8H21CH2SHCHSHCH3SH4SHNC8H20NC3H11NC8H21SNH3CH3C2HCHC3HCNC3NHCH5CH8CSHCH5CHNC8H20FeH2CH2CHCH3NHCH3CNC8H20NC8HSC2H13CH8CH4C3H3C2H4C2H2CH2C2HFe2H3C4HCHCHCH2CH2C2H5CH2C2NH2CH4CHCH6CH2C2HCH3C3H3CNHCHNHC4H6FeH7CH5CH7SHCHC2NH2C2H3C2HCHSFeS2Fe4S2CSFeS2FeS2FeSFeS3FeS2FeS2FeSFeS4HC7H4C4NCHCHC6H4NC3H3C7H4C6H4C3H4SH4CH4CNH2CH2CH6CH2SCSHFeC4H3CH6CH8CH3CSNSHCH2C5H8C3H3CNC8H20C2HCH7C2H3CH3CH2CHCHSH2CHCH3NHCHCH4CHCH3SCH3SC2HC2FeNCHSH4CH8C2H2CHCHCH3CH2CH5CH5CH3C3HC6H7NC3HCH2NH7C4H8SCH2SH2FeSH2C2H2CHCHCH6FeS2HSFeSFeS2HSH4CH2CHSHCHFeS2FeS2FeSFeS3FeS2HSHFeSFeS3C6H4C3H2C9H4C3HCH3CH3CHCH2C7H4SC6H4C3H2CHCNSH4CH5SHC4H2CH4C2H8CHC2H3CFeH4CH7C2NCH3CHCH3CHCH4CH2CHCHC2H2CH2NHC3H3CH6SCH2CH7NH2C3H5CHSH2FeHCFeCHCHCH3CHCH9NC2HCHCH2C2H3CHNHC5HCH3FeHC2H2CFeHC2H8FeHC2H5SH2CH2NH2CHSFeS2HSFeSFeS3HFeS2FeSFeSHCFeS2FeS2FeSFeS3CFeSFeS2FeS2HSHFeS2FeS2FeSFeS3FeS2FeS2FeSFeS3FeS2FeS2FeSFeS3FeS2FeS2FeSFeS3C6H4C6H4C6H4C6H4C3H2CHC6H4C6H4C2H2C2H2CSH2FeHC6H4C6H4C6H4C6H4C6H5NCHCHC6H6C6H2CH9C5H8NHC4HCH2CH5CH3CHC2HCHCHNC8H14CH5CNC8H20NC8H20NH2CHNH3CFeHCH6C5H2CH2NC8H22CH12SH2CH3C2HCH3NC6H16CHCHCHSH4C3H5CH2C2HSH4CH3SH3C2H2C2H4NH3C2H3NC8H15CH2CFeH3C2H3NHCHC2H2CH4CHCH2CH2SHCH4SC2H2CSCHNH2CH6C2H4CH4C2NH6CH2CH6C2H3CH3C3H4C2H6CHCHCHCH4CHCH2CH2CH7NC2SNHCFeH3C3H3C2SHC2H2CHCH7CH2CHCH2C2HFeS2FeS2FeSFeS3FeHSFeHSH2CNS2FeS2FeS2FeSFeS3FeS2FeS2FeSFeS3FeS2FeS2FeSFeS3FeS2FeSHFeSFeS3H2SHSHCH3C2FeH2C6H4C6H4C6H4C6H4C6H4C6H4C6H4C6H4C6H4C2HNHCH4C6H4NCH3CH4C3HC3H12SH2CH4SH5C2NC8H20NC8H16NC4H2SH6CH2SH2SCH4FeH2NC5HC2H13CH4SCH2CH4CHCH2C2H2CHCH10CHSH4CH2CH2CHC2NH2NH3CHNH4CH2C2H2C4H2CH2NHC2H7CH2C3H3CHCH3CH6CNC8H20NC7H15C2H2C2H2FeHSHNH5C2H2C2H7CHCH2CH4C2H2C3H2CH4CH2CH2CSH2SNH4NHFeC2H10CHC2HCH2CH6CSH2CH3CH5CHCH2CHC2H2CH2CH2FeHSH2C3H10C2HC2HC2SCSFeSHC2FeS2FeS2FeSFeHS2CFeS2FeS2FeSFeS3FeS2FeS2FeSFeS3H3CHCH2SFeSFeS2FeHFeHS2FeC2H2CH2CH2CHC6HC2HC6H5CH4C7H4C6H5C2H3C6H4C3H7C6H4C6H6CHSHC2SHSH2NHC2HCH4CHSHC4H4FeHSNHNCHC2H5CH2CHCH3NCHCFeCH2SH4C3H4CH4CH3NC5HC2H13CH6CHCHSHSNH6C2SHFeCH3CH2NC3H2CH5NC8H20CHCH6NH7CH4CH2C2H3CHCHC2HC4H3CH2CHCH2C2HC2H5C2H2SH3CSCH3CHCH3CHSHCH7NCHCH6CH2CHCH3CFeH2C2FeCFeS2FeH2SCHFeSH2SFeSFeSHSFeS2FeS2FeSFeS3HC2H2C6H4CHC3H4CHC2H2C7H4CHSHNC2H2C4H4CHCHCH7SHC3H4CH7CH4CH6C2HCHC2H4NHCH2NCSCH3CNC8H20CHCH5C4H8CHC2SNC2H3C3FeCH2NCH4CH2SCH4CHCH2CHCH3SH2SH3C2H3SH5CFeH6CH2FeC2HCH2C2H2C2HNCH3CH2C2HFeH2S2FeS2FeS2FeSFeS2NHFeHSH2S2FeH2FeS2FeHFeHS2CSFeSFeSFeSH2FeS2FeS2FeSFeS3FeS2FeS2FeSFeS3FeS2FeS2FeSFeS3HFeS2FeS2FeSFeS3H2C4H4C6H4C6H4C6H7CHC6H4CH5C6H4CH2CNH3CHCHC6H4C6FeH3CHCH2C6H4C6H6SC7H3SC6H4SHC2HCH3NH4CHFeCHCH3CH4C2H2SCH3CNC8H20NC2HC3HCH7C2H6C2H3CH4C4H5C2H7NHCH2FeH6CHCH2CSH3SC5HFeHCNHCH3CH2C2HNC8H24CH3CH5CHC4H8C2H5CH4C2H2SCH5SCH5NC8H20N2CHC3HC2H3CH4SH4C2HCH8CHCHC3H2C2HC2H3NH4CHNC8H23CHCH2CHCH3SHFeCHC2SCH4CH3CHNHSHCH2CH3FeSFeCSHCS2FeS2FeS2FeSFeS3FeSHCSCFeSFeSHC2H2SFeSCSHFeH4C6H5C3H6C6H4C6H4C2HSHCHC6H5CH2C3H3SCH3CSH2FeSNHCH4CHCHCFeC2H3CSH3CH2CHC2HCH5NHC2H5FeCHSH3C2SHSHSCHFeCNCHNCHCH6CH5CHC3H3C2H3CHC4HFeH7CH2CH3C2H2C2HCHCH15NHSCH3FeNHC2HCHC2H6CH7C2HCHCHSHCS2HFeHSHS2FeSH3FeS2FeSHFeHFeS3CFeS2FeS2FeSFeS3H2CFeS2FeS2FeSFeS3FeS2FeS2FeSFeS3FeS2FeS2FeSFeS3H2SFeS2FeS2Fe2S3FeS2FeS2FeSFeS2C6H5CNHCH3C2HSHCH3C6H4C2HC6H4C6H4C6H4C6H4C6H4C6H4C6H4C6H5C2H4C7H4CHCH3C6H4C6H4C2NCHCHNC8H21SHSHC2H3CH2CHCHCH3CHNCH2CHNC8H20CHCNH2CHCHC2H5CH2NC7H16NC8H20NC8H21C3H3CHCHCH5CHCSH3CNH2NH7CHFeH6NC2HC3HCH5CH9NHCHCH6CH11CHCH2CH2CH6SCSCH3CH5SHCHC2HCH3CHC2H2CH2CH2CH9CHCH3CH3CH5C3HCH6C3H4CH4CH2NH2C2H3CH3NC2H2CH2CHCH4CHNH5CH3CH2CH2C2HCFeCHSH2CHCHCH3C3H2C3HCHCH2CFeS2Fe2HS2H3FeSFeSHFeSFeS2FeS2FeS2FeSFeS3FeS2FeS2FeSFeS3FeS2FeS2FeSFeS3FeSFeS2FeSFeS3FeS2FeS2FeSFeS3HSC3H2CH3C6H4C7H4C6H4C6H4C6H4C6H4C6H5CHCHC6H5C2HC6H4C4H6C6H4C2HSH3NC8H20NC8H8CH5CH2CH2NC8H20SH3CHC2NCH2CHCHSH2CHC2HNH3C2H8CH2CHSH5CHC2HC2NCHNC8H20NC8H20C2H2CHNCHC3H2CH4CH15NC8H18CH3CHCH2CH6NHCHCHCH6NHC2H5NHC2HCH3CSCH2CH2CH3CH2CH2CHCHC2H2CH5CHCH2CH2FeHCH6NH2C2H5CSH3C2HCHFeHCH4FeS2HCHSH2FeS2FeS2FeSFeS3FeS2FeS2FeSFeS3FeS2FeS2Fe2S3CSH2FeSFeSCHC6H2SH2CH3C6H4C6H4C6H4C3NH2C6H4C5H3C8H5NC8H9SH10C2H10NCH3CHCHNH4C4HSHCHCHCH4CH5NCH5C2H4CHNH3CHCHCHC4HCH2C2HC2H5CH9CHC2NC8H20CH7C2S2H2CHCH6CSHCH2CHCH2CH2C2HC3HFeCHCFeNCH4FeH2CH4C2HCNC2HCH3CH3CH3CH8S2
_chemical_formula_sum              "Fe768 S1536 C5376 H9216 N384"
_cell_length_a       126.862
_cell_length_b       127.62
_cell_length_c       128.191
_cell_angle_alpha    74.2523
_cell_angle_beta     74.245
_cell_angle_gamma    74.2564

_space_group_name_H-M_alt    "P 1"
_space_group_IT_number       1

loop_
  _space_group_symop_operation_xyz
  'x, y, z'

loop_
  _atom_site_type_symbol
  _atom_site_label
  _atom_site_symmetry_multiplicity
  _atom_site_fract_x
  _atom_site_fract_y
  _atom_site_fract_z
  _atom_site_occupancy
  Fe  Fe1       1.0  0.39249  0.21234  0.12291  1.0000
  S   S1        1.0  0.39561  0.19564  0.11870  1.0000
  S   S2        1.0  0.37839  0.22606  0.11764  1.0000
  Fe  Fe2       1.0  0.41248  0.20581  0.13367  1.0000
  S   S3        1.0  0.41752  0.18861  0.13025  1.0000
  S   S4        1.0  0.42179  0.21002  0.14411  1.0000
  Fe  Fe3       1.0  0.41359  0.19713  0.11351  1.0000
  S   S5        1.0  0.42566  0.19384  0.09765  1.0000
  Fe  Fe4       1.0  0.39917  0.18854  0.13582  1.0000
  S   S6        1.0  0.39157  0.17465  0.14815  1.0000
  S   S7        1.0  0.41021  0.21438  0.11646  1.0000
  S   S8        1.0  0.39437  0.20522  0.14045  1.0000
  C   C1        1.0  0.45648  0.23912  0.05772  1.0000
  S   S9        1.0  0.39630  0.12146  0.19665  1.0000
  Fe  Fe5       1.0  0.42133  0.10466  0.21011  1.0000
  S   S10       1.0  0.42163  0.10607  0.19231  1.0000
  S   S11       1.0  0.43580  0.09277  0.21649  1.0000
  Fe  Fe6       1.0  0.41389  0.12413  0.19203  1.0000
  S   S12       1.0  0.42143  0.13646  0.17754  1.0000
  Fe  Fe7       1.0  0.40422  0.10319  0.19853  1.0000
  H   H1        1.0  0.39437  0.17067  0.19819  1.0000
  S   S13       1.0  0.41510  0.12296  0.20949  1.0000
  Fe  Fe8       1.0  0.41130  0.21910  0.04133  1.0000
  H   H2        1.0  0.41395  0.17042  0.05390  1.0000
  S   S14       1.0  0.40383  0.20680  0.05571  1.0000
  Fe  Fe9       1.0  0.40976  0.03163  0.22725  1.0000
  H   H3        1.0  0.36967  0.09067  0.22190  1.0000
  H   H4        1.0  0.44065  0.04002  0.20049  1.0000
  H   H5        1.0  0.45522  0.04065  0.21603  1.0000
  S   S15       1.0  0.42861  0.21577  0.03066  1.0000
  H   H6        1.0  0.44127  0.21254  0.09650  1.0000
  C   C2        1.0  0.38876  0.18687  0.17641  1.0000
  H   H7        1.0  0.40895  0.05876  0.22016  1.0000
  C   C3        1.0  0.45224  0.19225  0.10696  1.0000
  H   H8        1.0  0.44310  0.19349  0.10745  1.0000
  S   S16       1.0  0.41500  0.03992  0.20931  1.0000
  H   H9        1.0  0.42377  0.18863  0.16644  1.0000
  C   C4        1.0  0.40460  0.21263  0.00155  1.0000
  C   C5        1.0  0.41466  0.21521  0.99483  1.0000
  C   C6        1.0  0.40334  0.19204  0.18276  1.0000
  H   H10       1.0  0.40254  0.21288  0.01023  1.0000
  C   C7        1.0  0.40788  0.06181  0.21170  1.0000
  H   H11       1.0  0.38444  0.21891  0.09471  1.0000
  N   N1        1.0  0.40300  0.23670  0.08080  1.0000
  H   H12       1.0  0.43374  0.11404  0.22211  1.0000
  C   C8        1.0  0.45293  0.23024  0.06585  1.0000
  H   H13       1.0  0.43741  0.22300  0.05199  1.0000
  H   H14       1.0  0.42922  0.05009  0.22043  1.0000
  H   H15       1.0  0.41816  0.22975  0.09443  1.0000
  H   H16       1.0  0.40534  0.19654  0.16109  1.0000
  H   H17       1.0  0.38285  0.20429  0.17842  1.0000
  H   H18       1.0  0.45883  0.21364  0.10011  1.0000
  H   H19       1.0  0.40364  0.14585  0.13611  1.0000
  H   H20       1.0  0.42364  0.18602  0.15352  1.0000
  C   C9        1.0  0.40367  0.07734  0.19641  1.0000
  C   C10       1.0  0.43534  0.07421  0.19729  1.0000
  H   H21       1.0  0.46278  0.06534  0.22003  1.0000
  C   C11       1.0  0.40973  0.05426  0.20490  1.0000
  C   C12       1.0  0.40844  0.05830  0.19393  1.0000
  C   C13       1.0  0.40515  0.06976  0.18978  1.0000
  C   C14       1.0  0.44647  0.23623  0.04535  1.0000
  H   H22       1.0  0.40994  0.05251  0.18861  1.0000
  H   H23       1.0  0.40398  0.07276  0.18135  1.0000
  C   C15       1.0  0.39996  0.16393  0.15615  1.0000
  C   C16       1.0  0.41165  0.16207  0.15320  1.0000
  C   C17       1.0  0.41814  0.15359  0.15984  1.0000
  C   C18       1.0  0.41298  0.14696  0.16950  1.0000
  C   C19       1.0  0.40128  0.14881  0.17247  1.0000
  C   C20       1.0  0.39479  0.15723  0.16575  1.0000
  H   H24       1.0  0.41570  0.16711  0.14577  1.0000
  H   H25       1.0  0.42719  0.15216  0.15751  1.0000
  H   H26       1.0  0.39725  0.14382  0.17997  1.0000
  H   H27       1.0  0.38573  0.15868  0.16809  1.0000
  C   C21       1.0  0.42900  0.22091  0.13814  1.0000
  C   C22       1.0  0.43537  0.22315  0.14431  1.0000
  Fe  Fe10      1.0  0.41980  0.22388  0.01649  1.0000
  C   C23       1.0  0.43544  0.05436  0.22123  1.0000
  H   H28       1.0  0.43400  0.06924  0.22766  1.0000
  C   C24       1.0  0.42886  0.22704  0.12730  1.0000
  H   H29       1.0  0.43544  0.21849  0.15272  1.0000
  C   C25       1.0  0.39723  0.99091  0.22568  1.0000
  H   H30       1.0  0.49535  0.23383  0.11798  1.0000
  H   H31       1.0  0.42363  0.22565  0.12267  1.0000
  C   C26       1.0  0.41958  0.19722  0.08602  1.0000
  C   C27       1.0  0.40867  0.19602  0.08714  1.0000
  C   C28       1.0  0.40397  0.19877  0.07775  1.0000
  C   C29       1.0  0.41002  0.20311  0.06727  1.0000
  C   C30       1.0  0.42088  0.20442  0.06616  1.0000
  C   C31       1.0  0.42573  0.20127  0.07549  1.0000
  H   H32       1.0  0.40391  0.19280  0.09521  1.0000
  H   H33       1.0  0.39556  0.19774  0.07865  1.0000
  H   H34       1.0  0.42563  0.20769  0.05809  1.0000
  H   H35       1.0  0.43421  0.20210  0.07458  1.0000
  C   C32       1.0  0.47571  0.19973  0.10595  1.0000
  H   H36       1.0  0.44383  0.05867  0.19307  1.0000
  Fe  Fe11      1.0  0.39807  0.11882  0.21424  1.0000
  H   H37       1.0  0.45352  0.05649  0.22815  1.0000
  H   H38       1.0  0.48389  0.19509  0.10808  1.0000
  H   H39       1.0  0.38760  0.08436  0.22570  1.0000
  H   H40       1.0  0.43009  0.07665  0.19099  1.0000
  H   H41       1.0  0.46551  0.05154  0.21792  1.0000
  H   H42       1.0  0.38881  0.11402  0.17996  1.0000
  H   H43       1.0  0.42321  0.07043  0.22031  1.0000
  C   C33       1.0  0.44634  0.19861  0.12442  1.0000
  H   H44       1.0  0.39786  0.10116  0.16705  1.0000
  H   H45       1.0  0.40423  0.07916  0.21242  1.0000
  H   H46       1.0  0.39557  0.13559  0.13830  1.0000
  H   H47       1.0  0.42590  0.12094  0.15756  1.0000
  H   H48       1.0  0.42296  0.10900  0.15463  1.0000
  H   H49       1.0  0.44297  0.07769  0.19339  1.0000
  C   C34       1.0  0.44757  0.18695  0.13217  1.0000
  C   C35       1.0  0.39701  0.19138  0.19495  1.0000
  N   N2        1.0  0.44400  0.05625  0.21051  1.0000
  N   N3        1.0  0.45439  0.19960  0.11325  1.0000
  C   C36       1.0  0.40131  0.10252  0.15802  1.0000
  H   H50       1.0  0.43374  0.21462  0.11005  1.0000
  H   H51       1.0  0.41239  0.19000  0.18296  1.0000
  H   H52       1.0  0.39062  0.13382  0.16890  1.0000
  H   H53       1.0  0.44713  0.20447  0.12909  1.0000
  C   C37       1.0  0.40102  0.11482  0.15188  1.0000
  H   H54       1.0  0.38708  0.20290  0.16412  1.0000
  H   H55       1.0  0.44555  0.18081  0.12874  1.0000
  H   H56       1.0  0.40801  0.13776  0.15504  1.0000
  H   H57       1.0  0.41435  0.12946  0.14507  1.0000
  H   H58       1.0  0.45466  0.18331  0.11095  1.0000
  H   H59       1.0  0.38330  0.22753  0.08136  1.0000
  S   S17       1.0  0.39946  0.09169  0.19091  1.0000
  C   C38       1.0  0.39727  0.20950  0.99701  1.0000
  C   C39       1.0  0.40729  0.18743  0.16465  1.0000
  C   C40       1.0  0.45165  0.06335  0.21077  1.0000
  N   N4        1.0  0.40162  0.12275  0.15846  1.0000
  H   H60       1.0  0.40677  0.11018  0.17260  1.0000
  H   H61       1.0  0.40299  0.21976  0.08080  1.0000
  N   N5        1.0  0.40949  0.18463  0.03217  1.0000
  C   C41       1.0  0.39963  0.18676  0.04167  1.0000
  C   C42       1.0  0.41610  0.17302  0.03578  1.0000
  C   C43       1.0  0.40487  0.18509  0.02234  1.0000
  C   C44       1.0  0.41623  0.19347  0.02963  1.0000
  C   C45       1.0  0.39081  0.19765  0.03941  1.0000
  C   C46       1.0  0.43824  0.10744  0.22760  1.0000
  C   C47       1.0  0.41343  0.18299  0.01163  1.0000
  C   C48       1.0  0.42867  0.19067  0.02354  1.0000
  H   H62       1.0  0.39508  0.17980  0.04451  1.0000
  H   H63       1.0  0.40251  0.18708  0.04903  1.0000
  H   H64       1.0  0.42332  0.17048  0.02920  1.0000
  H   H65       1.0  0.41084  0.16679  0.03739  1.0000
  H   H66       1.0  0.39931  0.17903  0.02458  1.0000
  H   H67       1.0  0.39954  0.19343  0.01983  1.0000
  H   H68       1.0  0.41213  0.20136  0.02466  1.0000
  H   H69       1.0  0.41636  0.19560  0.03746  1.0000
  H   H70       1.0  0.38516  0.19913  0.04743  1.0000
  H   H71       1.0  0.39467  0.20498  0.03570  1.0000
  H   H72       1.0  0.38544  0.19710  0.03412  1.0000
  H   H73       1.0  0.39779  0.23348  0.98321  1.0000
  S   S18       1.0  0.40249  0.22586  0.02710  1.0000
  H   H74       1.0  0.42690  0.16299  0.04714  1.0000
  H   H75       1.0  0.40881  0.18316  0.00533  1.0000
  H   H76       1.0  0.41921  0.17473  0.01278  1.0000
  H   H77       1.0  0.41815  0.18975  0.00797  1.0000
  H   H78       1.0  0.43074  0.19815  0.01725  1.0000
  H   H79       1.0  0.43095  0.18388  0.01901  1.0000
  H   H80       1.0  0.43430  0.18885  0.02939  1.0000
  H   H81       1.0  0.46662  0.19861  0.12267  1.0000
  C   C49       1.0  0.44112  0.21619  0.10348  1.0000
  H   H82       1.0  0.44144  0.18753  0.14014  1.0000
  H   H83       1.0  0.39608  0.19943  0.19724  1.0000
  C   C50       1.0  0.44189  0.23724  0.12867  1.0000
  H   H84       1.0  0.43050  0.07831  0.20418  1.0000
  H   H85       1.0  0.40193  0.20095  0.17832  1.0000
  H   H86       1.0  0.40235  0.15798  0.19424  1.0000
  S   S19       1.0  0.40442  0.10035  0.21648  1.0000
  H   H87       1.0  0.38139  0.11352  0.16984  1.0000
  H   H88       1.0  0.40170  0.18462  0.20057  1.0000
  C   C51       1.0  0.40520  0.07336  0.20733  1.0000
  H   H89       1.0  0.37424  0.19959  0.17246  1.0000
  C   C52       1.0  0.40934  0.11749  0.16646  1.0000
  C   C53       1.0  0.42022  0.18396  0.16259  1.0000
  H   H90       1.0  0.38958  0.20731  0.00223  1.0000
  C   C54       1.0  0.38308  0.19915  0.17261  1.0000
  H   H91       1.0  0.37047  0.07708  0.20765  1.0000
  H   H92       1.0  0.40996  0.09740  0.15641  1.0000
  H   H93       1.0  0.38433  0.13170  0.15903  1.0000
  C   C55       1.0  0.45221  0.21174  0.10754  1.0000
  C   C56       1.0  0.40618  0.13244  0.15047  1.0000
  H   H94       1.0  0.38835  0.19025  0.19648  1.0000
  H   H95       1.0  0.39046  0.16519  0.18845  1.0000
  C   C57       1.0  0.44047  0.09640  0.22642  1.0000
  H   H96       1.0  0.39627  0.09896  0.15455  1.0000
  C   C58       1.0  0.46616  0.19578  0.11533  1.0000
  C   C59       1.0  0.44499  0.03671  0.20752  1.0000
  H   H97       1.0  0.43069  0.22787  0.08392  1.0000
  C   C60       1.0  0.45826  0.19325  0.09463  1.0000
  H   H98       1.0  0.47542  0.20869  0.10511  1.0000
  H   H99       1.0  0.47577  0.19822  0.09785  1.0000
  H   H100      1.0  0.46623  0.18693  0.09368  1.0000
  H   H101      1.0  0.45997  0.20159  0.09042  1.0000
  H   H102      1.0  0.45273  0.19185  0.08995  1.0000
  H   H103      1.0  0.38318  0.23288  0.00102  1.0000
  H   H104      1.0  0.45763  0.06480  0.20262  1.0000
  C   C61       1.0  0.39013  0.12740  0.16475  1.0000
  H   H105      1.0  0.41339  0.17134  0.18390  1.0000
  H   H106      1.0  0.40464  0.18348  0.15932  1.0000
  H   H107      1.0  0.43749  0.20102  0.12351  1.0000
  H   H108      1.0  0.43996  0.22535  0.10036  1.0000
  H   H109      1.0  0.41814  0.22897  0.07052  1.0000
  H   H110      1.0  0.37610  0.12369  0.17815  1.0000
  C   C62       1.0  0.42070  0.17105  0.04630  1.0000
  C   C63       1.0  0.38395  0.11902  0.17363  1.0000
  C   C64       1.0  0.39757  0.16645  0.19113  1.0000
  C   C65       1.0  0.42862  0.06472  0.22583  1.0000
  H   H111      1.0  0.42629  0.10814  0.16758  1.0000
  C   C66       1.0  0.42184  0.22701  0.08648  1.0000
  N   N6        1.0  0.40103  0.18472  0.17657  1.0000
  H   H112      1.0  0.40742  0.16764  0.17481  1.0000
  C   C67       1.0  0.41560  0.23382  0.07719  1.0000
  C   C68       1.0  0.42181  0.11370  0.16110  1.0000
  H   H113      1.0  0.44689  0.07176  0.21195  1.0000
  C   C69       1.0  0.39867  0.14023  0.14258  1.0000
  H   H114      1.0  0.45243  0.21706  0.11305  1.0000
  H   H115      1.0  0.39153  0.14577  0.14702  1.0000
  C   C70       1.0  0.36482  0.05780  0.23197  1.0000
  H   H116      1.0  0.40895  0.12342  0.17161  1.0000
  H   H117      1.0  0.38363  0.18396  0.18467  1.0000
  C   C71       1.0  0.44168  0.23140  0.13964  1.0000
  C   C72       1.0  0.39915  0.22590  0.08619  1.0000
  H   H118      1.0  0.37998  0.06830  0.21591  1.0000
  H   H119      1.0  0.39336  0.11789  0.14833  1.0000
  C   C73       1.0  0.45118  0.04501  0.20886  1.0000
  H   H120      1.0  0.38755  0.18198  0.17096  1.0000
  H   H121      1.0  0.42331  0.17486  0.16530  1.0000
  H   H122      1.0  0.42501  0.17764  0.04601  1.0000
  S   S20       1.0  0.42454  0.21844  0.00015  1.0000
  C   C74       1.0  0.40537  0.17255  0.18130  1.0000
  H   H123      1.0  0.40824  0.11453  0.14463  1.0000
  H   H124      1.0  0.45598  0.18382  0.13419  1.0000
  H   H125      1.0  0.40198  0.22199  0.09414  1.0000
  H   H126      1.0  0.43062  0.05828  0.20208  1.0000
  S   S21       1.0  0.45712  0.22613  0.07861  1.0000
  H   H127      1.0  0.46853  0.18651  0.11744  1.0000
  C   C75       1.0  0.43838  0.06136  0.20072  1.0000
  H   H128      1.0  0.38168  0.23373  0.09302  1.0000
  H   H129      1.0  0.43888  0.03412  0.21524  1.0000
  H   H130      1.0  0.40013  0.23542  0.00140  1.0000
  H   H131      1.0  0.38408  0.06391  0.23167  1.0000
  H   H132      1.0  0.48256  0.23304  0.13724  1.0000
  H   H133      1.0  0.44354  0.21740  0.06993  1.0000
  H   H134      1.0  0.45816  0.04600  0.20144  1.0000
  C   C76       1.0  0.39983  0.20928  0.98569  1.0000
  Fe  Fe12      1.0  0.42863  0.23321  0.03125  1.0000
  H   H135      1.0  0.35897  0.08423  0.22195  1.0000
  C   C77       1.0  0.45869  0.05877  0.21977  1.0000
  H   H136      1.0  0.37293  0.23286  0.01913  1.0000
  H   H137      1.0  0.36359  0.06099  0.22334  1.0000
  H   H138      1.0  0.44656  0.23311  0.14448  1.0000
  S   S22       1.0  0.38416  0.12727  0.22627  1.0000
  H   H139      1.0  0.38167  0.08214  0.20886  1.0000
  C   C78       1.0  0.37544  0.07699  0.21360  1.0000
  C   C79       1.0  0.43547  0.23508  0.12248  1.0000
  H   H140      1.0  0.42186  0.21805  0.08796  1.0000
  H   H141      1.0  0.44842  0.07939  0.23238  1.0000
  S   S23       1.0  0.47054  0.23439  0.09830  1.0000
  C   C80       1.0  0.44271  0.22751  0.05356  1.0000
  C   C81       1.0  0.44614  0.22438  0.06371  1.0000
  H   H142      1.0  0.48423  0.22688  0.12016  1.0000
  C   C82       1.0  0.38638  0.22672  0.08893  1.0000
  C   C83       1.0  0.48612  0.23509  0.11940  1.0000
  H   H143      1.0  0.39289  0.23489  0.12559  1.0000
  H   H144      1.0  0.39972  0.99881  0.22200  1.0000
  H   H145      1.0  0.45119  0.02902  0.20583  1.0000
  C   C84       1.0  0.36767  0.08235  0.22324  1.0000
  H   H146      1.0  0.39844  0.23930  0.09768  1.0000
  Fe  Fe13      1.0  0.46184  0.23927  0.08406  1.0000
  H   H147      1.0  0.43957  0.04859  0.22788  1.0000
  H   H148      1.0  0.37353  0.05307  0.23204  1.0000
  S   S24       1.0  0.41205  0.23586  0.04309  1.0000
  C   C85       1.0  0.41714  0.21506  0.98354  1.0000
  H   H149      1.0  0.39976  0.23568  0.06545  1.0000
  C   C86       1.0  0.47995  0.23945  0.13005  1.0000
  H   H150      1.0  0.40455  0.13421  0.23227  1.0000
  Fe  Fe14      1.0  0.12060  0.19975  0.40534  1.0000
  S   S25       1.0  0.12159  0.18434  0.39958  1.0000
  H   H151      1.0  0.39026  0.10418  0.23813  1.0000
  Fe  Fe15      1.0  0.10121  0.19554  0.42438  1.0000
  S   S26       1.0  0.10062  0.17969  0.42048  1.0000
  S   S27       1.0  0.08681  0.20318  0.43644  1.0000
  Fe  Fe16      1.0  0.11941  0.17602  0.41762  1.0000
  S   S28       1.0  0.12804  0.15803  0.42266  1.0000
  Fe  Fe17      1.0  0.10284  0.18926  0.40298  1.0000
  S   S29       1.0  0.09303  0.18815  0.39135  1.0000
  S   S30       1.0  0.11986  0.19112  0.42324  1.0000
  S   S31       1.0  0.10205  0.20544  0.40698  1.0000
  Fe  Fe18      1.0  0.30657  0.07225  0.37822  1.0000
  S   S32       1.0  0.29217  0.07769  0.36963  1.0000
  S   S33       1.0  0.32498  0.07025  0.36991  1.0000
  Fe  Fe19      1.0  0.29123  0.06895  0.40121  1.0000
  S   S34       1.0  0.27547  0.07395  0.39460  1.0000
  S   S35       1.0  0.29073  0.06136  0.41930  1.0000
  Fe  Fe20      1.0  0.28534  0.06372  0.38207  1.0000
  S   S36       1.0  0.27851  0.05228  0.37640  1.0000
  Fe  Fe21      1.0  0.28356  0.08749  0.38283  1.0000
  S   S37       1.0  0.27436  0.10502  0.37724  1.0000
  S   S38       1.0  0.30040  0.05742  0.38966  1.0000
  S   S39       1.0  0.29861  0.08339  0.39045  1.0000
  Fe  Fe22      1.0  0.19153  0.13058  0.41801  1.0000
  S   S40       1.0  0.21009  0.12971  0.41255  1.0000
  S   S41       1.0  0.18059  0.14797  0.41725  1.0000
  Fe  Fe23      1.0  0.19485  0.10546  0.42425  1.0000
  S   S42       1.0  0.21363  0.10240  0.41959  1.0000
  S   S43       1.0  0.18661  0.09078  0.43145  1.0000
  Fe  Fe24      1.0  0.21143  0.11642  0.42794  1.0000
  S   S44       1.0  0.22448  0.11664  0.43663  1.0000
  Fe  Fe25      1.0  0.21084  0.11585  0.40466  1.0000
  S   S45       1.0  0.22133  0.11484  0.38754  1.0000
  S   S46       1.0  0.19287  0.11826  0.43414  1.0000
  S   S47       1.0  0.19207  0.11788  0.40854  1.0000
  Fe  Fe26      1.0  0.40373  0.01001  0.24205  1.0000
  H   H152      1.0  0.41365  0.03657  0.30739  1.0000
  Fe  Fe27      1.0  0.37789  0.09321  0.29702  1.0000
  S   S48       1.0  0.37998  0.08296  0.28461  1.0000
  S   S49       1.0  0.39216  0.10132  0.29518  1.0000
  Fe  Fe28      1.0  0.35406  0.09045  0.30810  1.0000
  S   S50       1.0  0.35419  0.08001  0.29657  1.0000
  S   S51       1.0  0.33726  0.09470  0.31971  1.0000
  Fe  Fe29      1.0  0.37148  0.07160  0.29909  1.0000
  S   S52       1.0  0.37710  0.05306  0.30072  1.0000
  Fe  Fe30      1.0  0.36259  0.09222  0.28307  1.0000
  S   S53       1.0  0.35683  0.09788  0.26697  1.0000
  S   S54       1.0  0.37086  0.08099  0.31185  1.0000
  S   S55       1.0  0.36103  0.10355  0.29429  1.0000
  Fe  Fe31      1.0  0.41652  0.02308  0.24944  1.0000
  C   C87       1.0  0.06532  0.22531  0.42147  1.0000
  S   S56       1.0  0.42916  0.02006  0.25998  1.0000
  Fe  Fe32      1.0  0.39217  0.03246  0.24823  1.0000
  H   H153      1.0  0.47992  0.04417  0.32529  1.0000
  S   S57       1.0  0.37606  0.04316  0.25538  1.0000
  H   H154      1.0  0.18926  0.00279  0.42613  1.0000
  H   H155      1.0  0.03667  0.23506  0.39824  1.0000
  S   S58       1.0  0.40090  0.01646  0.25750  1.0000
  H   H156      1.0  0.09182  0.21403  0.35383  1.0000
  Fe  Fe33      1.0  0.45656  0.08705  0.26510  1.0000
  S   S59       1.0  0.45998  0.08307  0.28223  1.0000
  S   S60       1.0  0.45072  0.10384  0.25465  1.0000
  Fe  Fe34      1.0  0.46087  0.06301  0.26363  1.0000
  S   S61       1.0  0.46479  0.05651  0.28055  1.0000
  S   S62       1.0  0.46051  0.05386  0.25102  1.0000
  Fe  Fe35      1.0  0.45012  0.06982  0.28576  1.0000
  S   S63       1.0  0.43700  0.06584  0.30113  1.0000
  Fe  Fe36      1.0  0.47453  0.07008  0.27597  1.0000
  S   S64       1.0  0.44528  0.07503  0.26934  1.0000
  S   S65       1.0  0.47206  0.07529  0.25847  1.0000
  Fe  Fe37      1.0  0.24226  0.01984  0.42370  1.0000
  S   S66       1.0  0.22906  0.01989  0.41509  1.0000
  S   S67       1.0  0.26031  0.01485  0.41538  1.0000
  Fe  Fe38      1.0  0.22559  0.02684  0.44372  1.0000
  S   S68       1.0  0.21086  0.02761  0.43678  1.0000
  S   S69       1.0  0.22221  0.03161  0.46023  1.0000
  Fe  Fe39      1.0  0.22060  0.01151  0.43181  1.0000
  Fe  Fe40      1.0  0.22052  0.03589  0.42068  1.0000
  S   S70       1.0  0.21355  0.05071  0.40839  1.0000
  S   S71       1.0  0.23461  0.01004  0.44010  1.0000
  S   S72       1.0  0.23442  0.03655  0.42800  1.0000
  S   S73       1.0  0.01175  0.22819  0.43664  1.0000
  S   S74       1.0  0.25284  0.07495  0.46790  1.0000
  S   S75       1.0  0.27776  0.08914  0.45671  1.0000
  Fe  Fe41      1.0  0.03026  0.20853  0.41731  1.0000
  S   S76       1.0  0.03715  0.22064  0.42178  1.0000
  S   S77       1.0  0.04011  0.19643  0.40650  1.0000
  Fe  Fe42      1.0  0.00686  0.21551  0.43068  1.0000
  Fe  Fe43      1.0  0.02740  0.21528  0.43900  1.0000
  C   C88       1.0  0.23162  0.03902  0.47300  1.0000
  C   C89       1.0  0.47999  0.04675  0.30447  1.0000
  S   S78       1.0  0.02170  0.20208  0.43471  1.0000
  C   C90       1.0  0.03945  0.22252  0.45573  1.0000
  H   H157      1.0  0.36782  0.09092  0.23998  1.0000
  C   C91       1.0  0.38798  0.07841  0.23375  1.0000
  C   C92       1.0  0.11201  0.23901  0.44603  1.0000
  H   H158      1.0  0.19380  0.04140  0.40657  1.0000
  C   C93       1.0  0.23351  0.03456  0.46361  1.0000
  C   C94       1.0  0.25314  0.03523  0.45981  1.0000
  C   C95       1.0  0.24430  0.03271  0.45698  1.0000
  H   H159      1.0  0.26152  0.03359  0.45488  1.0000
  H   H160      1.0  0.24585  0.02916  0.44979  1.0000
  H   H161      1.0  0.17989  0.04291  0.42989  1.0000
  C   C96       1.0  0.43747  0.02981  0.25771  1.0000
  C   C97       1.0  0.44652  0.02690  0.26297  1.0000
  C   C98       1.0  0.45325  0.03451  0.26146  1.0000
  C   C99       1.0  0.45089  0.04514  0.25477  1.0000
  C   C100      1.0  0.44161  0.04820  0.24982  1.0000
  C   C101      1.0  0.43490  0.04055  0.25127  1.0000
  H   H162      1.0  0.44848  0.01863  0.26805  1.0000
  H   H163      1.0  0.46052  0.03203  0.26515  1.0000
  H   H164      1.0  0.43968  0.05648  0.24481  1.0000
  H   H165      1.0  0.42777  0.04292  0.24742  1.0000
  C   C102      1.0  0.36334  0.08394  0.24264  1.0000
  C   C103      1.0  0.37602  0.04548  0.26826  1.0000
  C   C104      1.0  0.37112  0.05604  0.27055  1.0000
  C   C105      1.0  0.37149  0.05832  0.28050  1.0000
  C   C106      1.0  0.37634  0.04994  0.28845  1.0000
  C   C107      1.0  0.38088  0.03921  0.28637  1.0000
  C   C108      1.0  0.38091  0.03703  0.27618  1.0000
  H   H166      1.0  0.36724  0.06256  0.26454  1.0000
  H   H167      1.0  0.36802  0.06663  0.28193  1.0000
  H   H168      1.0  0.38463  0.03267  0.29249  1.0000
  H   H169      1.0  0.38460  0.02881  0.27450  1.0000
  C   C109      1.0  0.42456  0.07595  0.30013  1.0000
  C   C110      1.0  0.42491  0.08640  0.29307  1.0000
  C   C111      1.0  0.41493  0.09431  0.29197  1.0000
  C   C112      1.0  0.40455  0.09160  0.29743  1.0000
  C   C113      1.0  0.40418  0.08114  0.30450  1.0000
  C   C114      1.0  0.41419  0.07346  0.30611  1.0000
  H   H170      1.0  0.43288  0.08845  0.28855  1.0000
  H   H171      1.0  0.41529  0.10246  0.28674  1.0000
  H   H172      1.0  0.39620  0.07907  0.30889  1.0000
  H   H173      1.0  0.41389  0.06548  0.31177  1.0000
  C   C115      1.0  0.02070  0.19570  0.39110  1.0000
  H   H174      1.0  0.20082  0.02782  0.39367  1.0000
  H   H175      1.0  0.25621  0.08465  0.43010  1.0000
  H   H176      1.0  0.45322  0.07575  0.30617  1.0000
  H   H177      1.0  0.39930  0.05741  0.28173  1.0000
  H   H178      1.0  0.46485  0.08172  0.30550  1.0000
  H   H179      1.0  0.04116  0.17355  0.45904  1.0000
  S   S79       1.0  0.42017  0.01538  0.23468  1.0000
  C   C116      1.0  0.37593  0.10153  0.25143  1.0000
  C   C117      1.0  0.36491  0.10609  0.25626  1.0000
  C   C118      1.0  0.35993  0.11701  0.25181  1.0000
  C   C119      1.0  0.36598  0.12343  0.24268  1.0000
  S   S80       1.0  0.40156  0.99218  0.24542  1.0000
  H   H180      1.0  0.37976  0.09307  0.25489  1.0000
  H   H181      1.0  0.35138  0.12052  0.25545  1.0000
  H   H182      1.0  0.22081  0.06207  0.47581  1.0000
  C   C120      1.0  0.22387  0.10953  0.45048  1.0000
  C   C121      1.0  0.21402  0.10666  0.45744  1.0000
  C   C122      1.0  0.21406  0.10086  0.46848  1.0000
  H   H183      1.0  0.06401  0.21766  0.43929  1.0000
  C   C123      1.0  0.23377  0.10069  0.46542  1.0000
  C   C124      1.0  0.23363  0.10674  0.45460  1.0000
  H   H184      1.0  0.20637  0.10902  0.45436  1.0000
  H   H185      1.0  0.02745  0.15826  0.41187  1.0000
  H   H186      1.0  0.24119  0.10910  0.44940  1.0000
  C   C125      1.0  0.19337  0.07970  0.42474  1.0000
  C   C126      1.0  0.19862  0.08170  0.41351  1.0000
  C   C127      1.0  0.20425  0.07271  0.40839  1.0000
  C   C128      1.0  0.20539  0.06177  0.41465  1.0000
  C   C129      1.0  0.20007  0.05977  0.42586  1.0000
  C   C130      1.0  0.19374  0.06872  0.43078  1.0000
  H   H187      1.0  0.19814  0.09017  0.40875  1.0000
  H   H188      1.0  0.20788  0.07424  0.39962  1.0000
  H   H189      1.0  0.20066  0.05135  0.43070  1.0000
  H   H190      1.0  0.18934  0.06717  0.43934  1.0000
  C   C131      1.0  0.32870  0.07598  0.35565  1.0000
  C   C132      1.0  0.32097  0.07881  0.34886  1.0000
  C   C133      1.0  0.32386  0.08414  0.33769  1.0000
  C   C134      1.0  0.33450  0.08665  0.33325  1.0000
  C   C135      1.0  0.34240  0.08344  0.33992  1.0000
  C   C136      1.0  0.33951  0.07806  0.35109  1.0000
  H   H191      1.0  0.31273  0.07699  0.35224  1.0000
  H   H192      1.0  0.31778  0.08649  0.33251  1.0000
  H   H193      1.0  0.35060  0.08541  0.33656  1.0000
  H   H194      1.0  0.34553  0.07584  0.35632  1.0000
  C   C137      1.0  0.27352  0.04194  0.38733  1.0000
  C   C138      1.0  0.27776  0.03069  0.38694  1.0000
  C   C139      1.0  0.27367  0.02240  0.39559  1.0000
  C   C140      1.0  0.26487  0.02534  0.40430  1.0000
  C   C141      1.0  0.26032  0.03661  0.40443  1.0000
  C   C142      1.0  0.26503  0.04487  0.39624  1.0000
  H   H195      1.0  0.28434  0.02839  0.38005  1.0000
  H   H196      1.0  0.27721  0.01370  0.39543  1.0000
  H   H197      1.0  0.25370  0.03896  0.41122  1.0000
  H   H198      1.0  0.26197  0.05352  0.39669  1.0000
  C   C143      1.0  0.28734  0.06942  0.42937  1.0000
  C   C144      1.0  0.29025  0.07978  0.42707  1.0000
  C   C145      1.0  0.28769  0.08570  0.43557  1.0000
  C   C146      1.0  0.28199  0.08139  0.44626  1.0000
  C   C147      1.0  0.27935  0.07096  0.44851  1.0000
  C   C148      1.0  0.28206  0.06499  0.44014  1.0000
  H   H199      1.0  0.29471  0.08303  0.41886  1.0000
  H   H200      1.0  0.29002  0.09364  0.43388  1.0000
  H   H201      1.0  0.27528  0.06738  0.45676  1.0000
  H   H202      1.0  0.27997  0.05691  0.44207  1.0000
  C   C149      1.0  0.25964  0.10733  0.38043  1.0000
  C   C150      1.0  0.25373  0.10226  0.39065  1.0000
  C   C151      1.0  0.24192  0.10510  0.39331  1.0000
  C   C152      1.0  0.23603  0.11238  0.38541  1.0000
  C   C153      1.0  0.24199  0.11711  0.37510  1.0000
  C   C154      1.0  0.25373  0.11484  0.37274  1.0000
  H   H203      1.0  0.25828  0.09642  0.39659  1.0000
  H   H204      1.0  0.23737  0.10146  0.40133  1.0000
  H   H205      1.0  0.23750  0.12268  0.36895  1.0000
  H   H206      1.0  0.25823  0.11880  0.36484  1.0000
  C   C155      1.0  0.14243  0.15470  0.42277  1.0000
  C   C156      1.0  0.14892  0.14432  0.42081  1.0000
  C   C157      1.0  0.16062  0.14190  0.41967  1.0000
  C   C158      1.0  0.16586  0.14983  0.42061  1.0000
  C   C159      1.0  0.15929  0.15997  0.42316  1.0000
  C   C160      1.0  0.14761  0.16242  0.42420  1.0000
  H   H207      1.0  0.14492  0.13827  0.41980  1.0000
  H   H208      1.0  0.16561  0.13405  0.41774  1.0000
  H   H209      1.0  0.16328  0.16604  0.42411  1.0000
  H   H210      1.0  0.14263  0.17035  0.42593  1.0000
  C   C161      1.0  0.09056  0.20721  0.44671  1.0000
  C   C162      1.0  0.08245  0.21416  0.45307  1.0000
  C   C163      1.0  0.08536  0.21808  0.46084  1.0000
  C   C164      1.0  0.09636  0.21498  0.46238  1.0000
  C   C165      1.0  0.10441  0.20765  0.45635  1.0000
  C   C166      1.0  0.10150  0.20378  0.44847  1.0000
  H   H211      1.0  0.07393  0.21666  0.45197  1.0000
  H   H212      1.0  0.48267  0.08721  0.28572  1.0000
  H   H213      1.0  0.25398  0.09897  0.41508  1.0000
  H   H214      1.0  0.10774  0.19821  0.44376  1.0000
  C   C167      1.0  0.05481  0.19461  0.40263  1.0000
  C   C168      1.0  0.06037  0.18969  0.39356  1.0000
  C   C169      1.0  0.07205  0.18785  0.39021  1.0000
  C   C170      1.0  0.07836  0.19065  0.39604  1.0000
  C   C171      1.0  0.07287  0.19552  0.40522  1.0000
  C   C172      1.0  0.06105  0.19760  0.40846  1.0000
  H   H215      1.0  0.05562  0.18735  0.38904  1.0000
  H   H216      1.0  0.07624  0.18410  0.38312  1.0000
  H   H217      1.0  0.07770  0.19775  0.40974  1.0000
  H   H218      1.0  0.05681  0.20134  0.41552  1.0000
  H   H219      1.0  0.22257  0.99928  0.41210  1.0000
  H   H220      1.0  0.02571  0.18081  0.41656  1.0000
  N   N7        1.0  0.41610  0.04923  0.28426  1.0000
  C   C173      1.0  0.41284  0.05266  0.29525  1.0000
  C   C174      1.0  0.42280  0.05716  0.27596  1.0000
  C   C175      1.0  0.42317  0.03758  0.28512  1.0000
  H   H221      1.0  0.05091  0.22162  0.43493  1.0000
  C   C176      1.0  0.40755  0.04446  0.30527  1.0000
  C   C177      1.0  0.41646  0.06937  0.27327  1.0000
  C   C178      1.0  0.43408  0.03552  0.28923  1.0000
  H   H222      1.0  0.07771  0.15476  0.45285  1.0000
  H   H223      1.0  0.42021  0.05416  0.29733  1.0000
  H   H224      1.0  0.40665  0.06076  0.29483  1.0000
  H   H225      1.0  0.42642  0.05426  0.26806  1.0000
  H   H226      1.0  0.43017  0.05740  0.27896  1.0000
  H   H227      1.0  0.41825  0.03133  0.29051  1.0000
  C   C179      1.0  0.22130  0.07045  0.47049  1.0000
  H   H228      1.0  0.42577  0.03527  0.27694  1.0000
  C   C180      1.0  0.09877  0.23188  0.37430  1.0000
  C   C181      1.0  0.27179  0.10855  0.41605  1.0000
  H   H229      1.0  0.40480  0.04831  0.31263  1.0000
  H   H230      1.0  0.40003  0.04262  0.30395  1.0000
  H   H231      1.0  0.42202  0.07405  0.26643  1.0000
  H   H232      1.0  0.40872  0.07034  0.27035  1.0000
  H   H233      1.0  0.41443  0.07334  0.28048  1.0000
  C   C182      1.0  0.01014  0.17598  0.40087  1.0000
  H   H234      1.0  0.43819  0.02654  0.29002  1.0000
  H   H235      1.0  0.08820  0.20904  0.37681  1.0000
  H   H236      1.0  0.25759  0.11543  0.40195  1.0000
  H   H237      1.0  0.16511  0.17491  0.37165  1.0000
  H   H238      1.0  0.39883  0.04852  0.26724  1.0000
  N   N8        1.0  0.21376  0.06837  0.45422  1.0000
  C   C183      1.0  0.21904  0.06216  0.44494  1.0000
  C   C184      1.0  0.20703  0.06109  0.46345  1.0000
  C   C185      1.0  0.20648  0.07922  0.44967  1.0000
  C   C186      1.0  0.22647  0.06821  0.43470  1.0000
  C   C187      1.0  0.19745  0.05787  0.46057  1.0000
  H   H239      1.0  0.22423  0.05390  0.44802  1.0000
  H   H240      1.0  0.21259  0.06037  0.44169  1.0000
  C   C188      1.0  0.37994  0.07044  0.23651  1.0000
  H   H241      1.0  0.21165  0.08505  0.44384  1.0000
  H   H242      1.0  0.20135  0.07776  0.44467  1.0000
  H   H243      1.0  0.23320  0.07070  0.43685  1.0000
  H   H244      1.0  0.23058  0.06244  0.42896  1.0000
  H   H245      1.0  0.22138  0.07561  0.43008  1.0000
  H   H246      1.0  0.19269  0.05333  0.46829  1.0000
  H   H247      1.0  0.19143  0.06527  0.45723  1.0000
  H   H248      1.0  0.20064  0.05206  0.45481  1.0000
  H   H249      1.0  0.13109  0.23521  0.41569  1.0000
  H   H250      1.0  0.25698  0.12733  0.42456  1.0000
  H   H251      1.0  0.21262  0.05319  0.46657  1.0000
  H   H252      1.0  0.47020  0.06319  0.30051  1.0000
  C   C189      1.0  0.18525  0.02042  0.42772  1.0000
  C   C190      1.0  0.18033  0.02736  0.40912  1.0000
  H   H253      1.0  0.11196  0.21982  0.35798  1.0000
  H   H254      1.0  0.27562  0.11602  0.41311  1.0000
  C   C191      1.0  0.18248  0.00886  0.43016  1.0000
  C   C192      1.0  0.18073  0.01769  0.40381  1.0000
  H   H255      1.0  0.45145  0.08553  0.31445  1.0000
  Fe  Fe44      1.0  0.26674  0.08023  0.47145  1.0000
  N   N9        1.0  0.01226  0.18204  0.40842  1.0000
  H   H256      1.0  0.46112  0.07276  0.32735  1.0000
  H   H257      1.0  0.02776  0.23475  0.44682  1.0000
  C   C193      1.0  0.49096  0.08402  0.28748  1.0000
  H   H258      1.0  0.17177  0.02925  0.41439  1.0000
  H   H259      1.0  0.18074  0.03478  0.40214  1.0000
  S   S81       1.0  0.01495  0.22100  0.41284  1.0000
  C   C194      1.0  0.40558  0.04953  0.28076  1.0000
  C   C195      1.0  0.20645  0.02386  0.39956  1.0000
  H   H260      1.0  0.07847  0.22833  0.38918  1.0000
  C   C196      1.0  0.26208  0.11423  0.43773  1.0000
  C   C197      1.0  0.10714  0.21537  0.36575  1.0000
  H   H261      1.0  0.18133  0.00535  0.43923  1.0000
  H   H262      1.0  0.05790  0.22870  0.46707  1.0000
  H   H263      1.0  0.00445  0.19903  0.40171  1.0000
  H   H264      1.0  0.18807  0.01670  0.39682  1.0000
  H   H265      1.0  0.10073  0.23503  0.43215  1.0000
  H   H266      1.0  0.19928  0.01041  0.41066  1.0000
  N   N10       1.0  0.16456  0.17227  0.38928  1.0000
  C   C198      1.0  0.17263  0.16120  0.38854  1.0000
  C   C199      1.0  0.15302  0.16984  0.39415  1.0000
  C   C200      1.0  0.16790  0.17745  0.39687  1.0000
  C   C201      1.0  0.18524  0.16135  0.38564  1.0000
  C   C202      1.0  0.14838  0.16489  0.38706  1.0000
  C   C203      1.0  0.15890  0.18636  0.40236  1.0000
  H   H267      1.0  0.17118  0.15503  0.39655  1.0000
  H   H268      1.0  0.17130  0.15748  0.38223  1.0000
  H   H269      1.0  0.14663  0.17729  0.39609  1.0000
  H   H270      1.0  0.15298  0.16388  0.40225  1.0000
  H   H271      1.0  0.17079  0.17092  0.40386  1.0000
  H   H272      1.0  0.17523  0.18131  0.39241  1.0000
  H   H273      1.0  0.19016  0.15280  0.38504  1.0000
  H   H274      1.0  0.18772  0.16694  0.37755  1.0000
  H   H275      1.0  0.13983  0.16364  0.39155  1.0000
  H   H276      1.0  0.15343  0.15657  0.38587  1.0000
  H   H277      1.0  0.16286  0.18990  0.40697  1.0000
  H   H278      1.0  0.15217  0.18270  0.40860  1.0000
  H   H279      1.0  0.15516  0.19339  0.39635  1.0000
  H   H280      1.0  0.11553  0.23387  0.36399  1.0000
  C   C204      1.0  0.47040  0.05637  0.30806  1.0000
  H   H281      1.0  0.14502  0.22768  0.38520  1.0000
  H   H282      1.0  0.00044  0.17385  0.42178  1.0000
  H   H283      1.0  0.12207  0.22101  0.41972  1.0000
  H   H284      1.0  0.35552  0.99054  0.24138  1.0000
  H   H285      1.0  0.47258  0.04529  0.34481  1.0000
  H   H286      1.0  0.41060  0.05488  0.26245  1.0000
  Fe  Fe45      1.0  0.02109  0.23260  0.41905  1.0000
  C   C205      1.0  0.37687  0.11882  0.23762  1.0000
  H   H287      1.0  0.37979  0.06584  0.24527  1.0000
  H   H288      1.0  0.02084  0.20471  0.38820  1.0000
  H   H289      1.0  0.18778  0.16356  0.39226  1.0000
  H   H290      1.0  0.36079  0.06317  0.24742  1.0000
  C   C206      1.0  0.02331  0.17620  0.41163  1.0000
  H   H291      1.0  0.41246  0.03996  0.26747  1.0000
  C   C207      1.0  0.46076  0.06890  0.32071  1.0000
  C   C208      1.0  0.02427  0.16388  0.41783  1.0000
  S   S82       1.0  0.26250  0.04268  0.47248  1.0000
  H   H292      1.0  0.42811  0.09220  0.25902  1.0000
  H   H293      1.0  0.20273  0.08798  0.46322  1.0000
  H   H294      1.0  0.27535  0.10369  0.42331  1.0000
  H   H295      1.0  0.17748  0.02570  0.43165  1.0000
  H   H296      1.0  0.23771  0.11856  0.41206  1.0000
  H   H297      1.0  0.24673  0.11946  0.43184  1.0000
  S   S83       1.0  0.03591  0.21102  0.45344  1.0000
  H   H298      1.0  0.14858  0.19064  0.38190  1.0000
  C   C209      1.0  0.25348  0.10234  0.42237  1.0000
  H   H299      1.0  0.04032  0.18656  0.46265  1.0000
  H   H300      1.0  0.12266  0.20449  0.36973  1.0000
  C   C210      1.0  0.15689  0.19074  0.37627  1.0000
  C   C211      1.0  0.47228  0.05067  0.32732  1.0000
  H   H301      1.0  0.18305  0.05359  0.41806  1.0000
  C   C212      1.0  0.40840  0.12962  0.23949  1.0000
  C   C213      1.0  0.10832  0.23456  0.42531  1.0000
  C   C214      1.0  0.24276  0.12495  0.41027  1.0000
  H   H302      1.0  0.20603  0.01669  0.41686  1.0000
  H   H303      1.0  0.48354  0.06886  0.30520  1.0000
  H   H304      1.0  0.34855  0.09327  0.23541  1.0000
  H   H305      1.0  0.11292  0.20521  0.45758  1.0000
  H   H306      1.0  0.07320  0.17874  0.46722  1.0000
  H   H307      1.0  0.23961  0.13000  0.41673  1.0000
  H   H308      1.0  0.25991  0.12680  0.40578  1.0000
  H   H309      1.0  0.03027  0.17617  0.40417  1.0000
  H   H310      1.0  0.40142  0.04278  0.28627  1.0000
  C   C215      1.0  0.19119  0.03693  0.41530  1.0000
  H   H311      1.0  0.41683  0.12508  0.23602  1.0000
  C   C216      1.0  0.48178  0.06536  0.31425  1.0000
  H   H312      1.0  0.10529  0.20834  0.36346  1.0000
  N   N11       1.0  0.25920  0.11205  0.41907  1.0000
  H   H313      1.0  0.28578  0.09898  0.40615  1.0000
  H   H314      1.0  0.05205  0.21247  0.46485  1.0000
  H   H315      1.0  0.09370  0.21239  0.38646  1.0000
  H   H316      1.0  0.12665  0.23216  0.43478  1.0000
  C   C217      1.0  0.25544  0.11978  0.40889  1.0000
  C   C218      1.0  0.40713  0.04814  0.26879  1.0000
  C   C219      1.0  0.27653  0.10144  0.40718  1.0000
  H   H317      1.0  0.17315  0.01961  0.40029  1.0000
  H   H318      1.0  0.00665  0.19418  0.42558  1.0000
  N   N12       1.0  0.47140  0.06052  0.31767  1.0000
  H   H319      1.0  0.49066  0.09814  0.29390  1.0000
  H   H320      1.0  0.49026  0.07665  0.31717  1.0000
  H   H321      1.0  0.46502  0.04662  0.32916  1.0000
  H   H322      1.0  0.24433  0.10514  0.42536  1.0000
  H   H323      1.0  0.36212  0.13193  0.23941  1.0000
  H   H324      1.0  0.19826  0.03591  0.41931  1.0000
  H   H325      1.0  0.44018  0.04020  0.28318  1.0000
  H   H326      1.0  0.24117  0.13064  0.40233  1.0000
  H   H327      1.0  0.26218  0.10536  0.44164  1.0000
  H   H328      1.0  0.17384  0.18165  0.37468  1.0000
  H   H329      1.0  0.46234  0.05360  0.30990  1.0000
  H   H330      1.0  0.24144  0.09846  0.46841  1.0000
  C   C220      1.0  0.44754  0.10127  0.24318  1.0000
  H   H331      1.0  0.02949  0.19124  0.39117  1.0000
  H   H332      1.0  0.05895  0.16901  0.46375  1.0000
  H   H333      1.0  0.19380  0.09365  0.45361  1.0000
  H   H334      1.0  0.09607  0.23250  0.35328  1.0000
  C   C221      1.0  0.35078  0.08950  0.24360  1.0000
  H   H335      1.0  0.47960  0.07267  0.32883  1.0000
  H   H336      1.0  0.25778  0.11901  0.44432  1.0000
  H   H337      1.0  0.07300  0.21647  0.39048  1.0000
  H   H338      1.0  0.07847  0.21787  0.36306  1.0000
  S   S84       1.0  0.40750  0.03977  0.24139  1.0000
  C   C222      1.0  0.11683  0.22993  0.39382  1.0000
  H   H339      1.0  0.27336  0.09364  0.40962  1.0000
  H   H340      1.0  0.00946  0.16730  0.40526  1.0000
  H   H341      1.0  0.03018  0.16186  0.42346  1.0000
  C   C223      1.0  0.04795  0.22085  0.46147  1.0000
  H   H342      1.0  0.11130  0.20456  0.38146  1.0000
  H   H343      1.0  0.08709  0.22933  0.41135  1.0000
  H   H344      1.0  0.17332  0.04570  0.41816  1.0000
  H   H345      1.0  0.21074  0.03014  0.40015  1.0000
  H   H346      1.0  0.45350  0.06472  0.32422  1.0000
  H   H347      1.0  0.26615  0.09093  0.43173  1.0000
  C   C224      1.0  0.19830  0.08572  0.45816  1.0000
  H   H348      1.0  0.34539  0.08356  0.24859  1.0000
  C   C225      1.0  0.44655  0.08793  0.23332  1.0000
  H   H349      1.0  0.47944  0.04571  0.29632  1.0000
  C   C226      1.0  0.05995  0.21837  0.43246  1.0000
  H   H350      1.0  0.01737  0.17505  0.39371  1.0000
  C   C227      1.0  0.25117  0.04000  0.46897  1.0000
  N   N13       1.0  0.28595  0.03001  0.42620  1.0000
  C   C228      1.0  0.29685  0.02996  0.41766  1.0000
  C   C229      1.0  0.28769  0.03247  0.43640  1.0000
  C   C230      1.0  0.27710  0.03914  0.42135  1.0000
  C   C231      1.0  0.28306  0.01878  0.42839  1.0000
  C   C232      1.0  0.29654  0.02891  0.40600  1.0000
  C   C233      1.0  0.29633  0.02363  0.44237  1.0000
  C   C234      1.0  0.26666  0.04404  0.42943  1.0000
  C   C235      1.0  0.27303  0.01632  0.43794  1.0000
  H   H351      1.0  0.29984  0.03774  0.41649  1.0000
  H   H352      1.0  0.30359  0.02297  0.42044  1.0000
  H   H353      1.0  0.27982  0.03366  0.44274  1.0000
  H   H354      1.0  0.29038  0.04054  0.43426  1.0000
  H   H355      1.0  0.28067  0.04638  0.41611  1.0000
  H   H356      1.0  0.27408  0.03618  0.41562  1.0000
  H   H357      1.0  0.28099  0.01764  0.42092  1.0000
  H   H358      1.0  0.29041  0.01183  0.42968  1.0000
  H   H359      1.0  0.30497  0.02913  0.40051  1.0000
  H   H360      1.0  0.29457  0.02092  0.40614  1.0000
  H   H361      1.0  0.29059  0.03595  0.40202  1.0000
  H   H362      1.0  0.30497  0.02313  0.43726  1.0000
  H   H363      1.0  0.29632  0.02611  0.45004  1.0000
  H   H364      1.0  0.29420  0.01530  0.44495  1.0000
  H   H365      1.0  0.26879  0.04905  0.43412  1.0000
  H   H366      1.0  0.26232  0.03763  0.43520  1.0000
  H   H367      1.0  0.26058  0.04984  0.42456  1.0000
  H   H368      1.0  0.26502  0.01946  0.43505  1.0000
  H   H369      1.0  0.27243  0.01959  0.44525  1.0000
  H   H370      1.0  0.27411  0.00716  0.44104  1.0000
  N   N14       1.0  0.06243  0.18107  0.44848  1.0000
  C   C236      1.0  0.05086  0.18473  0.44590  1.0000
  C   C237      1.0  0.07074  0.18244  0.43751  1.0000
  C   C238      1.0  0.06327  0.18900  0.45495  1.0000
  C   C239      1.0  0.06386  0.16921  0.45507  1.0000
  C   C240      1.0  0.04093  0.18258  0.45578  1.0000
  C   C241      1.0  0.07172  0.17432  0.43010  1.0000
  C   C242      1.0  0.07363  0.18595  0.46010  1.0000
  H   H371      1.0  0.01123  0.17974  0.43216  1.0000
  H   H372      1.0  0.04916  0.19377  0.44191  1.0000
  H   H373      1.0  0.05015  0.18042  0.43976  1.0000
  H   H374      1.0  0.07927  0.18185  0.43857  1.0000
  H   H375      1.0  0.06862  0.19103  0.43248  1.0000
  H   H376      1.0  0.06299  0.19753  0.44963  1.0000
  H   H377      1.0  0.05600  0.18999  0.46199  1.0000
  C   C243      1.0  0.07778  0.22251  0.38449  1.0000
  H   H378      1.0  0.06016  0.16421  0.45167  1.0000
  C   C244      1.0  0.24037  0.04200  0.47552  1.0000
  H   H379      1.0  0.19181  0.08117  0.46357  1.0000
  C   C245      1.0  0.18117  0.04512  0.42070  1.0000
  H   H380      1.0  0.07866  0.17557  0.42277  1.0000
  H   H381      1.0  0.07370  0.16547  0.43438  1.0000
  H   H382      1.0  0.06414  0.17597  0.42670  1.0000
  H   H383      1.0  0.07375  0.19308  0.46345  1.0000
  H   H384      1.0  0.08165  0.18440  0.45403  1.0000
  H   H385      1.0  0.11743  0.21917  0.43471  1.0000
  C   C246      1.0  0.08536  0.22109  0.35665  1.0000
  S   S85       1.0  0.39359  0.02566  0.23339  1.0000
  H   H386      1.0  0.07687  0.16014  0.46457  1.0000
  N   N15       1.0  0.34821  0.05129  0.32710  1.0000
  C   C247      1.0  0.35457  0.05996  0.32641  1.0000
  C   C248      1.0  0.34327  0.05476  0.31688  1.0000
  C   C249      1.0  0.35654  0.04025  0.32717  1.0000
  C   C250      1.0  0.33934  0.05089  0.33769  1.0000
  C   C251      1.0  0.36113  0.05767  0.33563  1.0000
  C   C252      1.0  0.33390  0.06542  0.31628  1.0000
  C   C253      1.0  0.35362  0.03126  0.32314  1.0000
  C   C254      1.0  0.33090  0.04353  0.33951  1.0000
  H   H387      1.0  0.36070  0.06109  0.31835  1.0000
  H   H388      1.0  0.34891  0.06823  0.32657  1.0000
  H   H389      1.0  0.33958  0.04822  0.31595  1.0000
  H   H390      1.0  0.35001  0.05594  0.30925  1.0000
  H   H391      1.0  0.36483  0.04148  0.32177  1.0000
  H   H392      1.0  0.35818  0.03643  0.33564  1.0000
  H   H393      1.0  0.34326  0.04771  0.34504  1.0000
  H   H394      1.0  0.33455  0.05940  0.33871  1.0000
  H   H395      1.0  0.36558  0.06453  0.33400  1.0000
  H   H396      1.0  0.35550  0.05762  0.34393  1.0000
  H   H397      1.0  0.36762  0.04985  0.33576  1.0000
  H   H398      1.0  0.32651  0.06453  0.32320  1.0000
  H   H399      1.0  0.33682  0.07289  0.31607  1.0000
  H   H400      1.0  0.33098  0.06706  0.30845  1.0000
  H   H401      1.0  0.35445  0.03348  0.31399  1.0000
  H   H402      1.0  0.34518  0.02967  0.32727  1.0000
  H   H403      1.0  0.35976  0.02329  0.32495  1.0000
  H   H404      1.0  0.33411  0.03484  0.34370  1.0000
  H   H405      1.0  0.32857  0.04347  0.33182  1.0000
  H   H406      1.0  0.32289  0.04697  0.34486  1.0000
  N   N16       1.0  0.40469  0.11432  0.25742  1.0000
  C   C255      1.0  0.39572  0.10785  0.26388  1.0000
  C   C256      1.0  0.41499  0.10586  0.25370  1.0000
  C   C257      1.0  0.40072  0.12192  0.24732  1.0000
  C   C258      1.0  0.40642  0.12083  0.26480  1.0000
  C   C259      1.0  0.38401  0.11474  0.26812  1.0000
  C   C260      1.0  0.42098  0.09819  0.26286  1.0000
  C   C261      1.0  0.36117  0.06718  0.23848  1.0000
  C   C262      1.0  0.41742  0.12520  0.26134  1.0000
  H   H407      1.0  0.39456  0.10251  0.25889  1.0000
  H   H408      1.0  0.39822  0.10201  0.27140  1.0000
  H   H409      1.0  0.42138  0.10980  0.24741  1.0000
  H   H410      1.0  0.41295  0.10045  0.24933  1.0000
  H   H411      1.0  0.39928  0.11691  0.24217  1.0000
  H   H412      1.0  0.39258  0.12764  0.24968  1.0000
  H   H413      1.0  0.39934  0.12816  0.26565  1.0000
  H   H414      1.0  0.40608  0.11572  0.27340  1.0000
  H   H415      1.0  0.37972  0.11966  0.26132  1.0000
  H   H416      1.0  0.37862  0.10890  0.27336  1.0000
  H   H417      1.0  0.38429  0.12017  0.27344  1.0000
  H   H418      1.0  0.41552  0.09325  0.26944  1.0000
  S   S86       1.0  0.49182  0.06534  0.27989  1.0000
  H   H419      1.0  0.42463  0.10282  0.26664  1.0000
  S   S87       1.0  0.10011  0.22116  0.47105  1.0000
  H   H420      1.0  0.27080  0.11552  0.43503  1.0000
  C   C263      1.0  0.45752  0.07851  0.31109  1.0000
  H   H421      1.0  0.41543  0.13441  0.26026  1.0000
  H   H422      1.0  0.42312  0.12318  0.25362  1.0000
  H   H423      1.0  0.42223  0.12181  0.26804  1.0000
  H   H424      1.0  0.01770  0.19337  0.38486  1.0000
  H   H425      1.0  0.22558  0.07842  0.45328  1.0000
  C   C264      1.0  0.22318  0.07041  0.45810  1.0000
  H   H426      1.0  0.36454  0.07983  0.25123  1.0000
  C   C265      1.0  0.11475  0.22231  0.42667  1.0000
  H   H427      1.0  0.18080  0.00959  0.40976  1.0000
  C   C266      1.0  0.05132  0.23001  0.46269  1.0000
  H   H428      1.0  0.43257  0.03751  0.29747  1.0000
  N   N17       1.0  0.18914  0.02569  0.41569  1.0000
  C   C267      1.0  0.25723  0.09246  0.43158  1.0000
  H   H429      1.0  0.27492  0.10618  0.39896  1.0000
  H   H430      1.0  0.45458  0.08366  0.24697  1.0000
  C   C268      1.0  0.12827  0.22490  0.39198  1.0000
  H   H431      1.0  0.07409  0.22060  0.41951  1.0000
  H   H432      1.0  0.07907  0.22355  0.46564  1.0000
  H   H433      1.0  0.16022  0.19752  0.37728  1.0000
  H   H434      1.0  0.01568  0.19794  0.40786  1.0000
  C   C269      1.0  0.16544  0.17951  0.37776  1.0000
  C   C270      1.0  0.25581  0.11862  0.42809  1.0000
  H   H435      1.0  0.19168  0.01964  0.43251  1.0000
  C   C271      1.0  0.01286  0.19393  0.40270  1.0000
  H   H436      1.0  0.23096  0.06386  0.45658  1.0000
  H   H437      1.0  0.21380  0.07658  0.47340  1.0000
  H   H438      1.0  0.48935  0.05871  0.31562  1.0000
  N   N18       1.0  0.09641  0.22303  0.37006  1.0000
  C   C272      1.0  0.21181  0.99024  0.42546  1.0000
  H   H439      1.0  0.07278  0.22705  0.37816  1.0000
  H   H440      1.0  0.15520  0.19290  0.36779  1.0000
  S   S88       1.0  0.13311  0.21044  0.39617  1.0000
  H   H441      1.0  0.25208  0.09357  0.43988  1.0000
  C   C273      1.0  0.49550  0.09020  0.29210  1.0000
  C   C274      1.0  0.08940  0.21619  0.37944  1.0000
  H   H442      1.0  0.44013  0.11838  0.23693  1.0000
  H   H443      1.0  0.14755  0.17059  0.37895  1.0000
  S   S89       1.0  0.21140  0.99752  0.43551  1.0000
  H   H444      1.0  0.35235  0.07101  0.23774  1.0000
  N   N19       1.0  0.30768  0.11289  0.34917  1.0000
  C   C275      1.0  0.31165  0.11453  0.33671  1.0000
  C   C276      1.0  0.29911  0.10571  0.35259  1.0000
  C   C277      1.0  0.31769  0.10702  0.35436  1.0000
  C   C278      1.0  0.30281  0.12424  0.35190  1.0000
  C   C279      1.0  0.32202  0.11982  0.33155  1.0000
  C   C280      1.0  0.28831  0.11081  0.34809  1.0000
  C   C281      1.0  0.31539  0.10062  0.36654  1.0000
  C   C282      1.0  0.29701  0.12466  0.36408  1.0000
  H   H445      1.0  0.31378  0.10645  0.33408  1.0000
  H   H446      1.0  0.30492  0.11989  0.33239  1.0000
  H   H447      1.0  0.29633  0.10334  0.36171  1.0000
  H   H448      1.0  0.30290  0.09761  0.34999  1.0000
  H   H449      1.0  0.32331  0.10070  0.34966  1.0000
  H   H450      1.0  0.32289  0.11298  0.35383  1.0000
  H   H451      1.0  0.30946  0.12909  0.34975  1.0000
  H   H452      1.0  0.29682  0.12941  0.34659  1.0000
  H   H453      1.0  0.32381  0.12082  0.32239  1.0000
  H   H454      1.0  0.32065  0.12820  0.33324  1.0000
  H   H455      1.0  0.32968  0.11437  0.33425  1.0000
  H   H456      1.0  0.28264  0.10482  0.35143  1.0000
  H   H457      1.0  0.28367  0.11859  0.35094  1.0000
  H   H458      1.0  0.28995  0.11225  0.33892  1.0000
  H   H459      1.0  0.32347  0.09731  0.36931  1.0000
  H   H460      1.0  0.31195  0.09325  0.36739  1.0000
  H   H461      1.0  0.30981  0.10584  0.37230  1.0000
  H   H462      1.0  0.30307  0.12496  0.36877  1.0000
  H   H463      1.0  0.29275  0.11773  0.36852  1.0000
  H   H464      1.0  0.29022  0.13228  0.36430  1.0000
  N   N20       1.0  0.23694  0.07797  0.38318  1.0000
  C   C283      1.0  0.23084  0.08819  0.37626  1.0000
  C   C284      1.0  0.24934  0.07754  0.37887  1.0000
  C   C285      1.0  0.23347  0.07930  0.39510  1.0000
  C   C286      1.0  0.23349  0.06796  0.38208  1.0000
  C   C287      1.0  0.21793  0.09097  0.38007  1.0000
  C   C288      1.0  0.25403  0.07625  0.36675  1.0000
  C   C289      1.0  0.24184  0.07331  0.40268  1.0000
  C   C290      1.0  0.23997  0.05640  0.38696  1.0000
  H   H465      1.0  0.23387  0.09570  0.37598  1.0000
  H   H466      1.0  0.23255  0.08741  0.36749  1.0000
  H   H467      1.0  0.25446  0.07058  0.38389  1.0000
  H   H468      1.0  0.25144  0.08521  0.37960  1.0000
  H   H469      1.0  0.23162  0.08823  0.39550  1.0000
  H   H470      1.0  0.22551  0.07654  0.39933  1.0000
  H   H471      1.0  0.22456  0.06805  0.38628  1.0000
  H   H472      1.0  0.23361  0.06818  0.37331  1.0000
  H   H473      1.0  0.21514  0.09241  0.38864  1.0000
  H   H474      1.0  0.21454  0.09887  0.37462  1.0000
  H   H475      1.0  0.21406  0.08446  0.37933  1.0000
  H   H476      1.0  0.25097  0.08383  0.36078  1.0000
  H   H477      1.0  0.26331  0.07506  0.36495  1.0000
  H   H478      1.0  0.25222  0.06881  0.36529  1.0000
  H   H479      1.0  0.23782  0.07454  0.41122  1.0000
  H   H480      1.0  0.24940  0.07696  0.40011  1.0000
  H   H481      1.0  0.24428  0.06424  0.40310  1.0000
  H   H482      1.0  0.23714  0.05408  0.39610  1.0000
  H   H483      1.0  0.24913  0.05566  0.38457  1.0000
  H   H484      1.0  0.23855  0.05009  0.38329  1.0000
  C   C291      1.0  0.06965  0.23776  0.43066  1.0000
  H   H485      1.0  0.34875  0.09636  0.24809  1.0000
  H   H486      1.0  0.46598  0.05957  0.34122  1.0000
  H   H487      1.0  0.38622  0.08307  0.24037  1.0000
  H   H488      1.0  0.01629  0.16201  0.42322  1.0000
  C   C292      1.0  0.20020  0.01865  0.41113  1.0000
  H   H489      1.0  0.21309  0.01725  0.39606  1.0000
  C   C293      1.0  0.03427  0.23337  0.45131  1.0000
  C   C294      1.0  0.07597  0.16261  0.45580  1.0000
  H   H490      1.0  0.47599  0.08266  0.31668  1.0000
  C   C295      1.0  0.45002  0.09035  0.24168  1.0000
  H   H491      1.0  0.06092  0.20983  0.43135  1.0000
  H   H492      1.0  0.08271  0.16702  0.45097  1.0000
  C   C296      1.0  0.48173  0.07481  0.31968  1.0000
  H   H493      1.0  0.47927  0.03869  0.31036  1.0000
  C   C297      1.0  0.09035  0.22865  0.36070  1.0000
  H   H494      1.0  0.35941  0.05165  0.23602  1.0000
  C   C298      1.0  0.47300  0.05301  0.33824  1.0000
  C   C299      1.0  0.38182  0.10779  0.24193  1.0000
  H   H495      1.0  0.06133  0.22476  0.41492  1.0000
  H   H496      1.0  0.39672  0.07347  0.23328  1.0000
  H   H497      1.0  0.11069  0.22496  0.39816  1.0000
  H   H498      1.0  0.11824  0.21616  0.37616  1.0000
  C   C300      1.0  0.11516  0.20994  0.37384  1.0000
  H   H499      1.0  0.40901  0.13604  0.24351  1.0000
  N   N21       1.0  0.36817  0.07589  0.23493  1.0000
  H   H500      1.0  0.48119  0.05499  0.33753  1.0000
  C   C301      1.0  0.13616  0.23149  0.38658  1.0000
  H   H501      1.0  0.10907  0.21707  0.42660  1.0000
  H   H502      1.0  0.22337  0.04017  0.47835  1.0000
  H   H503      1.0  0.20314  0.06507  0.47069  1.0000
  H   H504      1.0  0.10198  0.22821  0.38204  1.0000
  C   C302      1.0  0.99935  0.18126  0.39630  1.0000
  H   H505      1.0  0.08344  0.23575  0.36295  1.0000
  H   H506      1.0  0.06372  0.23585  0.43876  1.0000
  C   C303      1.0  0.44193  0.10989  0.23591  1.0000
  H   H507      1.0  0.07734  0.23105  0.43132  1.0000
  H   H508      1.0  0.20647  0.09868  0.47394  1.0000
  H   H509      1.0  0.17446  0.00948  0.42790  1.0000
  Fe  Fe46      1.0  0.08776  0.23743  0.47123  1.0000
  C   C304      1.0  0.22405  0.09760  0.47233  1.0000
  H   H510      1.0  0.03298  0.18625  0.45284  1.0000
  C   C305      1.0  0.00461  0.18583  0.42820  1.0000
  C   C306      1.0  0.00273  0.18212  0.41848  1.0000
  H   H511      1.0  0.22864  0.07266  0.47182  1.0000
  S   S90       1.0  0.27355  0.06342  0.48119  1.0000
  H   H512      1.0  0.08167  0.22608  0.34944  1.0000
  C   C307      1.0  0.49715  0.07366  0.28530  1.0000
  H   H513      1.0  0.99919  0.18993  0.39152  1.0000
  H   H514      1.0  0.48839  0.04846  0.30334  1.0000
  H   H515      1.0  0.10502  0.23643  0.41767  1.0000
  H   H516      1.0  0.42291  0.06199  0.23382  1.0000
  H   H517      1.0  0.10691  0.23277  0.44738  1.0000
  Fe  Fe47      1.0  0.25892  0.05855  0.47855  1.0000
  H   H518      1.0  0.05524  0.23569  0.38593  1.0000
  C   C308      1.0  0.21792  0.99273  0.41457  1.0000
  N   N22       1.0  0.06476  0.23734  0.42133  1.0000
  H   H519      1.0  0.11687  0.23611  0.45268  1.0000
  H   H520      1.0  0.09091  0.23794  0.37674  1.0000
  C   C309      1.0  0.08400  0.23826  0.40797  1.0000
  C   C310      1.0  0.10693  0.23889  0.36605  1.0000
  H   H521      1.0  0.99889  0.17634  0.39056  1.0000
  H   H522      1.0  0.04746  0.23925  0.43039  1.0000
  H   H523      1.0  0.23883  0.04553  0.48271  1.0000
  Fe  Fe48      1.0  0.25725  0.08367  0.57024  1.0000
  S   S91       1.0  0.27575  0.07723  0.56545  1.0000
  S   S92       1.0  0.24441  0.07333  0.57400  1.0000
  Fe  Fe49      1.0  0.25967  0.10713  0.56772  1.0000
  S   S93       1.0  0.27840  0.10287  0.56235  1.0000
  S   S94       1.0  0.25055  0.12474  0.56814  1.0000
  Fe  Fe50      1.0  0.27525  0.09272  0.55205  1.0000
  S   S95       1.0  0.28398  0.09251  0.53422  1.0000
  Fe  Fe51      1.0  0.27712  0.08782  0.57626  1.0000
  S   S96       1.0  0.28869  0.08017  0.58826  1.0000
  S   S97       1.0  0.25661  0.09846  0.55613  1.0000
  S   S98       1.0  0.25855  0.09283  0.58238  1.0000
  Fe  Fe52      1.0  0.23625  0.01406  0.63863  1.0000
  S   S99       1.0  0.25399  0.01610  0.63559  1.0000
  Fe  Fe53      1.0  0.22747  0.03900  0.63120  1.0000
  S   S100      1.0  0.24443  0.04311  0.62695  1.0000
  S   S101      1.0  0.21188  0.05238  0.62955  1.0000
  Fe  Fe54      1.0  0.25020  0.02772  0.61987  1.0000
  S   S102      1.0  0.26248  0.02734  0.60365  1.0000
  Fe  Fe55      1.0  0.24673  0.03129  0.64304  1.0000
  S   S103      1.0  0.25286  0.03559  0.65607  1.0000
  S   S104      1.0  0.23298  0.02479  0.62239  1.0000
  S   S105      1.0  0.22929  0.02805  0.64780  1.0000
  Fe  Fe56      1.0  0.26168  0.06930  0.49601  1.0000
  S   S106      1.0  0.24752  0.06292  0.49419  1.0000
  S   S107      1.0  0.26438  0.06395  0.51359  1.0000
  C   C311      1.0  0.22073  0.99829  0.62872  1.0000
  H   H524      1.0  0.34995  0.12111  0.66912  1.0000
  H   H525      1.0  0.21153  0.99918  0.61646  1.0000
  C   C312      1.0  0.08536  0.23316  0.68327  1.0000
  H   H526      1.0  0.28849  0.03818  0.49365  1.0000
  C   C313      1.0  0.29259  0.12472  0.67051  1.0000
  S   S108      1.0  0.11854  0.23488  0.60935  1.0000
  H   H527      1.0  0.39046  0.15698  0.72141  1.0000
  Fe  Fe57      1.0  0.03562  0.23846  0.61962  1.0000
  S   S109      1.0  0.04142  0.22218  0.65880  1.0000
  H   H528      1.0  0.29657  0.11731  0.66683  1.0000
  H   H529      1.0  0.25073  0.04459  0.51441  1.0000
  H   H530      1.0  0.00196  0.22179  0.63572  1.0000
  S   S110      1.0  0.35561  0.10010  0.70685  1.0000
  H   H531      1.0  0.25002  0.01631  0.50900  1.0000
  S   S111      1.0  0.35676  0.12605  0.70387  1.0000
  Fe  Fe58      1.0  0.34403  0.11676  0.70341  1.0000
  S   S112      1.0  0.33466  0.12156  0.68914  1.0000
  Fe  Fe59      1.0  0.36767  0.10926  0.70873  1.0000
  S   S113      1.0  0.38614  0.10583  0.70056  1.0000
  S   S114      1.0  0.33575  0.11684  0.72134  1.0000
  Fe  Fe60      1.0  0.30200  0.09312  0.65858  1.0000
  S   S115      1.0  0.28850  0.08344  0.66764  1.0000
  S   S116      1.0  0.31436  0.09182  0.66946  1.0000
  Fe  Fe61      1.0  0.29238  0.09986  0.63741  1.0000
  S   S117      1.0  0.27813  0.09110  0.64519  1.0000
  S   S118      1.0  0.29284  0.10918  0.61958  1.0000
  Fe  Fe62      1.0  0.27677  0.09809  0.65985  1.0000
  S   S119      1.0  0.25997  0.10445  0.67005  1.0000
  Fe  Fe63      1.0  0.29104  0.07723  0.65218  1.0000
  S   S120      1.0  0.29214  0.05906  0.65282  1.0000
  S   S121      1.0  0.28985  0.10825  0.65161  1.0000
  S   S122      1.0  0.30565  0.08549  0.64356  1.0000
  Fe  Fe64      1.0  0.20657  0.10916  0.64262  1.0000
  S   S123      1.0  0.21933  0.11622  0.62850  1.0000
  S   S124      1.0  0.21180  0.09131  0.65133  1.0000
  Fe  Fe65      1.0  0.19027  0.13166  0.64263  1.0000
  S   S125      1.0  0.20176  0.14058  0.62859  1.0000
  S   S126      1.0  0.17394  0.14077  0.65173  1.0000
  Fe  Fe66      1.0  0.20458  0.12586  0.62107  1.0000
  S   S127      1.0  0.20448  0.12936  0.60297  1.0000
  Fe  Fe67      1.0  0.21545  0.13019  0.63728  1.0000
  S   S128      1.0  0.22968  0.13722  0.63775  1.0000
  S   S129      1.0  0.19196  0.11758  0.63444  1.0000
  S   S130      1.0  0.20384  0.12248  0.65206  1.0000
  Fe  Fe68      1.0  0.12490  0.21325  0.64512  1.0000
  S   S131      1.0  0.12315  0.19554  0.64829  1.0000
  S   S132      1.0  0.12924  0.22034  0.65729  1.0000
  Fe  Fe69      1.0  0.11986  0.21916  0.62236  1.0000
  S   S133      1.0  0.11725  0.20219  0.62337  1.0000
  H   H532      1.0  0.25256  0.11460  0.51393  1.0000
  Fe  Fe70      1.0  0.10791  0.20317  0.64084  1.0000
  S   S134      1.0  0.09224  0.19663  0.64943  1.0000
  Fe  Fe71      1.0  0.13267  0.19589  0.63070  1.0000
  S   S135      1.0  0.14687  0.18301  0.62339  1.0000
  S   S136      1.0  0.10900  0.22072  0.63905  1.0000
  S   S137      1.0  0.13591  0.21294  0.62829  1.0000
  H   H533      1.0  0.37004  0.04301  0.71776  1.0000
  C   C314      1.0  0.11403  0.23502  0.59759  1.0000
  H   H534      1.0  0.01911  0.23856  0.60276  1.0000
  H   H535      1.0  0.23723  0.99352  0.60359  1.0000
  C   C315      1.0  0.16567  0.15175  0.64375  1.0000
  C   C316      1.0  0.16894  0.15440  0.63219  1.0000
  C   C317      1.0  0.16277  0.16376  0.62604  1.0000
  C   C318      1.0  0.15340  0.17062  0.63140  1.0000
  C   C319      1.0  0.14995  0.16783  0.64295  1.0000
  C   C320      1.0  0.15604  0.15836  0.64909  1.0000
  H   H536      1.0  0.17628  0.14931  0.62797  1.0000
  H   H537      1.0  0.16544  0.16584  0.61710  1.0000
  H   H538      1.0  0.14272  0.17304  0.64715  1.0000
  H   H539      1.0  0.15344  0.15630  0.65804  1.0000
  C   C321      1.0  0.23797  0.12813  0.64685  1.0000
  C   C322      1.0  0.23306  0.12314  0.65757  1.0000
  C   C323      1.0  0.23987  0.11617  0.66484  1.0000
  C   C324      1.0  0.25154  0.11377  0.66122  1.0000
  C   C325      1.0  0.25643  0.11864  0.65045  1.0000
  C   C326      1.0  0.24966  0.12600  0.64339  1.0000
  H   H540      1.0  0.22404  0.12487  0.66035  1.0000
  H   H541      1.0  0.23607  0.11255  0.67321  1.0000
  H   H542      1.0  0.26544  0.11687  0.64761  1.0000
  H   H543      1.0  0.25347  0.12997  0.63520  1.0000
  C   C327      1.0  0.32889  0.11319  0.68391  1.0000
  C   C328      1.0  0.32446  0.11790  0.67430  1.0000
  C   C329      1.0  0.32003  0.11155  0.66972  1.0000
  C   C330      1.0  0.31984  0.10037  0.67477  1.0000
  C   C331      1.0  0.32435  0.09565  0.68433  1.0000
  C   C332      1.0  0.32881  0.10199  0.68890  1.0000
  H   H544      1.0  0.32455  0.12652  0.67028  1.0000
  H   H545      1.0  0.31694  0.11524  0.66218  1.0000
  H   H546      1.0  0.32436  0.08700  0.68829  1.0000
  H   H547      1.0  0.33218  0.09819  0.69628  1.0000
  H   H548      1.0  0.24495  0.10905  0.53422  1.0000
  C   C333      1.0  0.39578  0.10874  0.70660  1.0000
  C   C334      1.0  0.40684  0.10864  0.70061  1.0000
  C   C335      1.0  0.41475  0.11080  0.70516  1.0000
  C   C336      1.0  0.41168  0.11313  0.71576  1.0000
  H   H549      1.0  0.08967  0.23207  0.60464  1.0000
  C   C337      1.0  0.39274  0.11086  0.71730  1.0000
  H   H550      1.0  0.40922  0.10723  0.69226  1.0000
  H   H551      1.0  0.42312  0.11116  0.70026  1.0000
  S   S138      1.0  0.25617  0.08672  0.48657  1.0000
  C   C338      1.0  0.10296  0.22559  0.53656  1.0000
  H   H552      1.0  0.35958  0.11570  0.68443  1.0000
  C   C339      1.0  0.29157  0.10853  0.70657  1.0000
  H   H553      1.0  0.34681  0.10849  0.65968  1.0000
  H   H554      1.0  0.22362  0.10626  0.53056  1.0000
  C   C340      1.0  0.05577  0.21573  0.65610  1.0000
  C   C341      1.0  0.05895  0.20457  0.66123  1.0000
  C   C342      1.0  0.07020  0.19901  0.65925  1.0000
  C   C343      1.0  0.07849  0.20461  0.65240  1.0000
  C   C344      1.0  0.07545  0.21598  0.64758  1.0000
  C   C345      1.0  0.06404  0.22150  0.64930  1.0000
  H   H555      1.0  0.05265  0.20009  0.66656  1.0000
  H   H556      1.0  0.07248  0.19025  0.66298  1.0000
  H   H557      1.0  0.08182  0.22035  0.64225  1.0000
  H   H558      1.0  0.09116  0.22634  0.61885  1.0000
  H   H559      1.0  0.20894  0.01392  0.67002  1.0000
  C   C346      1.0  0.10892  0.22590  0.58590  1.0000
  C   C347      1.0  0.11315  0.22525  0.59519  1.0000
  H   H560      1.0  0.26446  0.02646  0.49416  1.0000
  C   C348      1.0  0.08382  0.23801  0.53714  1.0000
  H   H561      1.0  0.26492  0.04104  0.52671  1.0000
  C   C349      1.0  0.27198  0.11873  0.68537  1.0000
  H   H562      1.0  0.11569  0.21726  0.60048  1.0000
  C   C350      1.0  0.25823  0.03060  0.50060  1.0000
  S   S139      1.0  0.22485  0.08888  0.48537  1.0000
  H   H563      1.0  0.28545  0.02455  0.49745  1.0000
  H   H564      1.0  0.19513  0.02211  0.62734  1.0000
  H   H565      1.0  0.26073  0.10196  0.52094  1.0000
  H   H566      1.0  0.37787  0.11244  0.65419  1.0000
  C   C351      1.0  0.38834  0.15721  0.73038  1.0000
  C   C352      1.0  0.08514  0.23077  0.61343  1.0000
  C   C353      1.0  0.26423  0.04211  0.65341  1.0000
  C   C354      1.0  0.26347  0.05345  0.64834  1.0000
  C   C355      1.0  0.27183  0.05896  0.64822  1.0000
  C   C356      1.0  0.28104  0.05303  0.65302  1.0000
  C   C357      1.0  0.28187  0.04166  0.65774  1.0000
  C   C358      1.0  0.27345  0.03630  0.65811  1.0000
  H   H567      1.0  0.25623  0.05803  0.64491  1.0000
  H   H568      1.0  0.27120  0.06771  0.64440  1.0000
  H   H569      1.0  0.28897  0.03699  0.66141  1.0000
  H   H570      1.0  0.27398  0.02763  0.66229  1.0000
  C   C359      1.0  0.21137  0.06299  0.63613  1.0000
  C   C360      1.0  0.21988  0.06214  0.64152  1.0000
  C   C361      1.0  0.21988  0.07088  0.64617  1.0000
  C   C362      1.0  0.21147  0.08060  0.64533  1.0000
  C   C363      1.0  0.20280  0.08140  0.64016  1.0000
  C   C364      1.0  0.20267  0.07251  0.63570  1.0000
  H   H571      1.0  0.22647  0.05473  0.64215  1.0000
  H   H572      1.0  0.22649  0.07013  0.65033  1.0000
  H   H573      1.0  0.19612  0.08877  0.63978  1.0000
  H   H574      1.0  0.19595  0.07313  0.63172  1.0000
  H   H575      1.0  0.22227  0.00657  0.62533  1.0000
  C   C365      1.0  0.23790  0.12593  0.57803  1.0000
  C   C366      1.0  0.23721  0.11945  0.58883  1.0000
  C   C367      1.0  0.22713  0.12094  0.59677  1.0000
  C   C368      1.0  0.21758  0.12845  0.59374  1.0000
  C   C369      1.0  0.21828  0.13480  0.58290  1.0000
  C   C370      1.0  0.22848  0.13374  0.57514  1.0000
  H   H576      1.0  0.24448  0.11343  0.59111  1.0000
  H   H577      1.0  0.22662  0.11593  0.60509  1.0000
  H   H578      1.0  0.21091  0.14059  0.58052  1.0000
  H   H579      1.0  0.22899  0.13880  0.56682  1.0000
  C   C371      1.0  0.28981  0.08847  0.59676  1.0000
  C   C372      1.0  0.29261  0.08325  0.60706  1.0000
  C   C373      1.0  0.29336  0.08954  0.61418  1.0000
  C   C374      1.0  0.29196  0.10111  0.61076  1.0000
  C   C375      1.0  0.28981  0.10630  0.60017  1.0000
  C   C376      1.0  0.28840  0.10005  0.59330  1.0000
  H   H580      1.0  0.29420  0.07432  0.60954  1.0000
  H   H581      1.0  0.29529  0.08540  0.62222  1.0000
  H   H582      1.0  0.28927  0.11517  0.59731  1.0000
  H   H583      1.0  0.28655  0.10415  0.58523  1.0000
  C   C377      1.0  0.27921  0.08412  0.52837  1.0000
  C   C378      1.0  0.27354  0.07590  0.53518  1.0000
  C   C379      1.0  0.26952  0.06944  0.53047  1.0000
  C   C380      1.0  0.27069  0.07147  0.51894  1.0000
  C   C381      1.0  0.27645  0.07963  0.51208  1.0000
  C   C382      1.0  0.28088  0.08581  0.51680  1.0000
  H   H584      1.0  0.27222  0.07451  0.54410  1.0000
  H   H585      1.0  0.26511  0.06312  0.53583  1.0000
  H   H586      1.0  0.27746  0.08121  0.50317  1.0000
  H   H587      1.0  0.28529  0.09215  0.51148  1.0000
  C   C383      1.0  0.24933  0.05991  0.58128  1.0000
  C   C384      1.0  0.24200  0.05474  0.59017  1.0000
  C   C385      1.0  0.24606  0.04466  0.59693  1.0000
  C   C386      1.0  0.25736  0.03940  0.59450  1.0000
  C   C387      1.0  0.26457  0.04415  0.58514  1.0000
  C   C388      1.0  0.26059  0.05453  0.57864  1.0000
  H   H588      1.0  0.23322  0.05862  0.59204  1.0000
  H   H589      1.0  0.24039  0.04099  0.60402  1.0000
  H   H590      1.0  0.27327  0.03999  0.58310  1.0000
  H   H591      1.0  0.26620  0.05827  0.57151  1.0000
  H   H592      1.0  0.28905  0.10807  0.71566  1.0000
  C   C389      1.0  0.25451  0.03594  0.51834  1.0000
  H   H593      1.0  0.38696  0.09464  0.67329  1.0000
  H   H594      1.0  0.20955  0.03022  0.63825  1.0000
  H   H595      1.0  0.06938  0.23041  0.61032  1.0000
  C   C390      1.0  0.35748  0.11754  0.66331  1.0000
  H   H596      1.0  0.27741  0.12188  0.70326  1.0000
  H   H597      1.0  0.27824  0.02369  0.52414  1.0000
  H   H598      1.0  0.38426  0.11099  0.72202  1.0000
  H   H599      1.0  0.06165  0.23020  0.64546  1.0000
  C   C391      1.0  0.23207  0.10762  0.52576  1.0000
  H   H600      1.0  0.26367  0.10597  0.50625  1.0000
  S   S140      1.0  0.34699  0.13848  0.73077  1.0000
  H   H601      1.0  0.10446  0.21338  0.52672  1.0000
  C   C392      1.0  0.23216  0.09104  0.51944  1.0000
  H   H602      1.0  0.23718  0.08290  0.51744  1.0000
  H   H603      1.0  0.37367  0.10849  0.68284  1.0000
  C   C393      1.0  0.28105  0.11338  0.70152  1.0000
  H   H604      1.0  0.27870  0.03554  0.48757  1.0000
  H   H605      1.0  0.09486  0.23730  0.50500  1.0000
  H   H606      1.0  0.43220  0.08871  0.70549  1.0000
  H   H607      1.0  0.22058  0.09274  0.50901  1.0000
  H   H608      1.0  0.26162  0.01450  0.52061  1.0000
  C   C394      1.0  0.24865  0.09924  0.51269  1.0000
  H   H609      1.0  0.17185  0.03409  0.65834  1.0000
  C   C395      1.0  0.24820  0.02484  0.50389  1.0000
  S   S141      1.0  0.42073  0.11831  0.72050  1.0000
  H   H610      1.0  0.37477  0.12710  0.67966  1.0000
  H   H611      1.0  0.23049  0.11403  0.51816  1.0000
  C   C396      1.0  0.29078  0.12165  0.68329  1.0000
  N   N23       1.0  0.23930  0.09695  0.52261  1.0000
  H   H612      1.0  0.24754  0.03142  0.52165  1.0000
  N   N24       1.0  0.28201  0.04840  0.61667  1.0000
  C   C397      1.0  0.28878  0.04529  0.62553  1.0000
  C   C398      1.0  0.27515  0.03969  0.61920  1.0000
  C   C399      1.0  0.27415  0.05951  0.61761  1.0000
  C   C400      1.0  0.28996  0.04910  0.60545  1.0000
  C   C401      1.0  0.29576  0.05360  0.62521  1.0000
  C   C402      1.0  0.28183  0.02751  0.62052  1.0000
  C   C403      1.0  0.26612  0.06426  0.60954  1.0000
  C   C404      1.0  0.28600  0.04687  0.59602  1.0000
  H   H613      1.0  0.28327  0.04388  0.63393  1.0000
  H   H614      1.0  0.29494  0.03726  0.62505  1.0000
  H   H615      1.0  0.27028  0.04113  0.61278  1.0000
  H   H616      1.0  0.26874  0.04021  0.62707  1.0000
  H   H617      1.0  0.26888  0.05906  0.62613  1.0000
  H   H618      1.0  0.27883  0.06610  0.61629  1.0000
  H   H619      1.0  0.29217  0.05744  0.60247  1.0000
  H   H620      1.0  0.29809  0.04306  0.60599  1.0000
  H   H621      1.0  0.29041  0.06134  0.62773  1.0000
  H   H622      1.0  0.30118  0.04978  0.63136  1.0000
  H   H623      1.0  0.30139  0.05558  0.61699  1.0000
  H   H624      1.0  0.27656  0.02209  0.61997  1.0000
  H   H625      1.0  0.28960  0.02648  0.61401  1.0000
  H   H626      1.0  0.28395  0.02440  0.62884  1.0000
  H   H627      1.0  0.25995  0.07160  0.61218  1.0000
  H   H628      1.0  0.26120  0.05834  0.60944  1.0000
  H   H629      1.0  0.27067  0.06744  0.60105  1.0000
  H   H630      1.0  0.28564  0.03800  0.59740  1.0000
  H   H631      1.0  0.29211  0.04879  0.58810  1.0000
  H   H632      1.0  0.27777  0.05210  0.59478  1.0000
  C   C405      1.0  0.23585  0.08608  0.54305  1.0000
  C   C406      1.0  0.22661  0.09740  0.50953  1.0000
  N   N25       1.0  0.28288  0.11388  0.68928  1.0000
  H   H633      1.0  0.25869  0.11891  0.70058  1.0000
  H   H634      1.0  0.28904  0.10323  0.67740  1.0000
  H   H635      1.0  0.22516  0.08901  0.52650  1.0000
  H   H636      1.0  0.28857  0.08501  0.69256  1.0000
  C   C407      1.0  0.18720  0.01702  0.65010  1.0000
  H   H637      1.0  0.01422  0.22756  0.57981  1.0000
  C   C408      1.0  0.36746  0.11416  0.67807  1.0000
  H   H638      1.0  0.07332  0.21897  0.59192  1.0000
  H   H639      1.0  0.41524  0.08736  0.71666  1.0000
  H   H640      1.0  0.27584  0.09285  0.68811  1.0000
  H   H641      1.0  0.18133  0.02019  0.64431  1.0000
  C   C409      1.0  0.40564  0.07823  0.70678  1.0000
  N   N26       1.0  0.41314  0.07172  0.71474  1.0000
  C   C410      1.0  0.09559  0.21594  0.66803  1.0000
  H   H642      1.0  0.27194  0.01369  0.50816  1.0000
  C   C411      1.0  0.41131  0.08169  0.69451  1.0000
  C   C412      1.0  0.07979  0.23809  0.66545  1.0000
  H   H643      1.0  0.43292  0.04647  0.71452  1.0000
  H   H644      1.0  0.29782  0.11389  0.70326  1.0000
  H   H645      1.0  0.42207  0.04893  0.72634  1.0000
  C   C413      1.0  0.19344  0.00521  0.64818  1.0000
  S   S142      1.0  0.45110  0.09581  0.71714  1.0000
  H   H646      1.0  0.40072  0.08609  0.70930  1.0000
  S   S143      1.0  0.47922  0.10276  0.72071  1.0000
  H   H647      1.0  0.03260  0.22443  0.58172  1.0000
  H   H648      1.0  0.32138  0.09424  0.52761  1.0000
  Fe  Fe72      1.0  0.43634  0.10691  0.72597  1.0000
  H   H649      1.0  0.36448  0.03076  0.72158  1.0000
  H   H650      1.0  0.18868  0.99901  0.65393  1.0000
  H   H651      1.0  0.27269  0.11678  0.67721  1.0000
  C   C414      1.0  0.42024  0.07880  0.71619  1.0000
  H   H652      1.0  0.40467  0.08624  0.68978  1.0000
  S   S144      1.0  0.23214  0.99687  0.64487  1.0000
  H   H653      1.0  0.41668  0.08762  0.69335  1.0000
  H   H654      1.0  0.24064  0.08100  0.54948  1.0000
  S   S145      1.0  0.44442  0.06589  0.73269  1.0000
  H   H655      1.0  0.08197  0.22548  0.68556  1.0000
  N   N27       1.0  0.07850  0.21318  0.61359  1.0000
  H   H656      1.0  0.25528  0.03929  0.49622  1.0000
  C   C415      1.0  0.06786  0.20961  0.61437  1.0000
  C   C416      1.0  0.07536  0.22490  0.61552  1.0000
  C   C417      1.0  0.08478  0.20566  0.62221  1.0000
  C   C418      1.0  0.02277  0.21712  0.60685  1.0000
  C   C419      1.0  0.06033  0.20739  0.62609  1.0000
  C   C420      1.0  0.08133  0.22053  0.59242  1.0000
  C   C421      1.0  0.08869  0.19324  0.62158  1.0000
  H   H657      1.0  0.22176  0.10587  0.51040  1.0000
  H   H658      1.0  0.19858  0.03570  0.62413  1.0000
  H   H659      1.0  0.06960  0.20205  0.61093  1.0000
  H   H660      1.0  0.06254  0.21606  0.60910  1.0000
  H   H661      1.0  0.26821  0.04623  0.50148  1.0000
  C   C422      1.0  0.27226  0.03752  0.50486  1.0000
  H   H662      1.0  0.09250  0.20844  0.62173  1.0000
  H   H663      1.0  0.07991  0.20620  0.63069  1.0000
  C   C423      1.0  0.01227  0.22015  0.60187  1.0000
  C   C424      1.0  0.10543  0.23631  0.57922  1.0000
  C   C425      1.0  0.43121  0.07995  0.70740  1.0000
  H   H664      1.0  0.06432  0.19992  0.63161  1.0000
  H   H665      1.0  0.05798  0.21466  0.63004  1.0000
  H   H666      1.0  0.05240  0.20574  0.62544  1.0000
  S   S146      1.0  0.36122  0.10789  0.72704  1.0000
  H   H667      1.0  0.08742  0.21912  0.58461  1.0000
  H   H668      1.0  0.08029  0.22940  0.59257  1.0000
  H   H669      1.0  0.09727  0.19162  0.61634  1.0000
  H   H670      1.0  0.08304  0.19026  0.61837  1.0000
  H   H671      1.0  0.08880  0.18805  0.63008  1.0000
  H   H672      1.0  0.25089  0.09167  0.53389  1.0000
  C   C426      1.0  0.36603  0.03721  0.72494  1.0000
  C   C427      1.0  0.21474  0.99404  0.62363  1.0000
  Fe  Fe73      1.0  0.46135  0.10011  0.72683  1.0000
  H   H673      1.0  0.29711  0.09991  0.68734  1.0000
  H   H674      1.0  0.10334  0.20972  0.66562  1.0000
  H   H675      1.0  0.36385  0.13232  0.67205  1.0000
  H   H676      1.0  0.23064  0.11339  0.54088  1.0000
  H   H677      1.0  0.17987  0.04198  0.66188  1.0000
  H   H678      1.0  0.03027  0.21926  0.60071  1.0000
  H   H679      1.0  0.08368  0.22534  0.55282  1.0000
  H   H680      1.0  0.40137  0.06176  0.72553  1.0000
  C   C428      1.0  0.23648  0.11309  0.53270  1.0000
  H   H681      1.0  0.24529  0.10424  0.50529  1.0000
  H   H682      1.0  0.25376  0.09127  0.51040  1.0000
  Fe  Fe74      1.0  0.24285  0.07990  0.48380  1.0000
  H   H683      1.0  0.28616  0.01361  0.51583  1.0000
  H   H684      1.0  0.25819  0.99102  0.63025  1.0000
  C   C429      1.0  0.26838  0.01856  0.51482  1.0000
  H   H685      1.0  0.37948  0.06466  0.72412  1.0000
  H   H686      1.0  0.39436  0.16181  0.73104  1.0000
  H   H687      1.0  0.36125  0.12475  0.65829  1.0000
  C   C430      1.0  0.49658  0.10500  0.72842  1.0000
  C   C431      1.0  0.37118  0.12539  0.67344  1.0000
  H   H688      1.0  0.02124  0.22108  0.61398  1.0000
  H   H689      1.0  0.23670  0.12189  0.52845  1.0000
  H   H690      1.0  0.10295  0.22432  0.54553  1.0000
  H   H691      1.0  0.11198  0.22493  0.53249  1.0000
  H   H692      1.0  0.41949  0.13783  0.72986  1.0000
  H   H693      1.0  0.23070  0.09359  0.54612  1.0000
  H   H694      1.0  0.25433  0.11847  0.68862  1.0000
  H   H695      1.0  0.39935  0.07346  0.70706  1.0000
  H   H696      1.0  0.24051  0.02992  0.50816  1.0000
  H   H697      1.0  0.01357  0.21427  0.59639  1.0000
  H   H698      1.0  0.42564  0.06303  0.70271  1.0000
  H   H699      1.0  0.10189  0.20814  0.54155  1.0000
  C   C432      1.0  0.18729  0.03701  0.64580  1.0000
  H   H700      1.0  0.41602  0.07447  0.69073  1.0000
  H   H701      1.0  0.37760  0.12546  0.66561  1.0000
  H   H702      1.0  0.09070  0.21649  0.53549  1.0000
  N   N28       1.0  0.18492  0.17691  0.64239  1.0000
  C   C433      1.0  0.19057  0.16508  0.64141  1.0000
  C   C434      1.0  0.17579  0.18095  0.63588  1.0000
  C   C435      1.0  0.17972  0.17765  0.65430  1.0000
  C   C436      1.0  0.19363  0.18395  0.63793  1.0000
  C   C437      1.0  0.19890  0.15889  0.64904  1.0000
  C   C438      1.0  0.17967  0.18165  0.62325  1.0000
  C   C439      1.0  0.17121  0.17019  0.66051  1.0000
  C   C440      1.0  0.18915  0.19667  0.63660  1.0000
  H   H703      1.0  0.18430  0.15993  0.64295  1.0000
  H   H704      1.0  0.19536  0.16477  0.63279  1.0000
  H   H705      1.0  0.17061  0.18923  0.63726  1.0000
  H   H706      1.0  0.16981  0.17533  0.63887  1.0000
  H   H707      1.0  0.18627  0.17576  0.65921  1.0000
  H   H708      1.0  0.17506  0.18629  0.65487  1.0000
  H   H709      1.0  0.19971  0.18160  0.64344  1.0000
  H   H710      1.0  0.19875  0.18241  0.62972  1.0000
  H   H711      1.0  0.20267  0.15043  0.64733  1.0000
  H   H712      1.0  0.20592  0.16310  0.64748  1.0000
  H   H713      1.0  0.19470  0.15764  0.65795  1.0000
  H   H714      1.0  0.18553  0.18732  0.61917  1.0000
  H   H715      1.0  0.18347  0.17330  0.62131  1.0000
  H   H716      1.0  0.17220  0.18501  0.61945  1.0000
  H   H717      1.0  0.16874  0.17073  0.66938  1.0000
  H   H718      1.0  0.17465  0.16127  0.66030  1.0000
  H   H719      1.0  0.16341  0.17312  0.65727  1.0000
  H   H720      1.0  0.18385  0.20009  0.63034  1.0000
  H   H721      1.0  0.19636  0.20086  0.63361  1.0000
  H   H722      1.0  0.18439  0.19904  0.64454  1.0000
  N   N29       1.0  0.25487  0.13276  0.60571  1.0000
  C   C441      1.0  0.24619  0.14265  0.60914  1.0000
  C   C442      1.0  0.26565  0.13286  0.60851  1.0000
  C   C443      1.0  0.25073  0.12233  0.61233  1.0000
  C   C444      1.0  0.25600  0.13396  0.59344  1.0000
  C   C445      1.0  0.23407  0.14336  0.60828  1.0000
  C   C446      1.0  0.27092  0.14300  0.60228  1.0000
  C   C447      1.0  0.25958  0.11135  0.61394  1.0000
  C   C448      1.0  0.26534  0.12555  0.58767  1.0000
  H   H723      1.0  0.24588  0.14281  0.61787  1.0000
  H   H724      1.0  0.24840  0.15063  0.60404  1.0000
  H   H725      1.0  0.27226  0.12541  0.60699  1.0000
  H   H726      1.0  0.26437  0.13238  0.61755  1.0000
  H   H727      1.0  0.24624  0.12333  0.62091  1.0000
  H   H728      1.0  0.24444  0.12084  0.60861  1.0000
  H   H729      1.0  0.24813  0.13326  0.59177  1.0000
  H   H730      1.0  0.25688  0.14250  0.58869  1.0000
  H   H731      1.0  0.23331  0.14450  0.59960  1.0000
  H   H732      1.0  0.23067  0.13605  0.61351  1.0000
  H   H733      1.0  0.22850  0.15074  0.61139  1.0000
  H   H734      1.0  0.27908  0.14171  0.60461  1.0000
  H   H735      1.0  0.27271  0.14392  0.59316  1.0000
  H   H736      1.0  0.26567  0.15082  0.60466  1.0000
  H   H737      1.0  0.25523  0.10432  0.61785  1.0000
  H   H738      1.0  0.26475  0.11133  0.61970  1.0000
  H   H739      1.0  0.26512  0.10954  0.60607  1.0000
  H   H740      1.0  0.26259  0.11775  0.58856  1.0000
  H   H741      1.0  0.27323  0.12362  0.59051  1.0000
  H   H742      1.0  0.26756  0.12931  0.57868  1.0000
  N   N30       1.0  0.21882  0.08969  0.60017  1.0000
  C   C449      1.0  0.22852  0.09380  0.59173  1.0000
  C   C450      1.0  0.22300  0.08397  0.61070  1.0000
  C   C451      1.0  0.20948  0.09970  0.60202  1.0000
  C   C452      1.0  0.21516  0.08196  0.59549  1.0000
  C   C453      1.0  0.22589  0.10121  0.58063  1.0000
  C   C454      1.0  0.23200  0.07310  0.61022  1.0000
  C   C455      1.0  0.20076  0.09859  0.61307  1.0000
  C   C456      1.0  0.20636  0.07548  0.60329  1.0000
  H   H743      1.0  0.23231  0.09857  0.59527  1.0000
  H   H744      1.0  0.23537  0.08674  0.58953  1.0000
  H   H745      1.0  0.21616  0.08175  0.61772  1.0000
  H   H746      1.0  0.22636  0.08978  0.61341  1.0000
  H   H747      1.0  0.21300  0.10683  0.60177  1.0000
  H   H748      1.0  0.20478  0.10256  0.59522  1.0000
  H   H749      1.0  0.21149  0.08665  0.58818  1.0000
  H   H750      1.0  0.22245  0.07589  0.59197  1.0000
  H   H751      1.0  0.21960  0.10900  0.58175  1.0000
  H   H752      1.0  0.23368  0.10378  0.57533  1.0000
  H   H753      1.0  0.22320  0.09664  0.57594  1.0000
  H   H754      1.0  0.22874  0.06657  0.60866  1.0000
  H   H755      1.0  0.23981  0.07437  0.60403  1.0000
  H   H756      1.0  0.23433  0.06979  0.61844  1.0000
  H   H757      1.0  0.20445  0.09850  0.62002  1.0000
  H   H758      1.0  0.19705  0.09123  0.61498  1.0000
  H   H759      1.0  0.19380  0.10608  0.61261  1.0000
  H   H760      1.0  0.19773  0.08030  0.60278  1.0000
  H   H761      1.0  0.20715  0.07309  0.61202  1.0000
  H   H762      1.0  0.20762  0.06744  0.60086  1.0000
  N   N31       1.0  0.24253  0.07731  0.67009  1.0000
  C   C457      1.0  0.23002  0.08149  0.67162  1.0000
  C   C458      1.0  0.24524  0.06529  0.66920  1.0000
  C   C459      1.0  0.24870  0.08388  0.65971  1.0000
  C   C460      1.0  0.24618  0.07856  0.67986  1.0000
  C   C461      1.0  0.22564  0.09408  0.67126  1.0000
  C   C462      1.0  0.24149  0.05691  0.67990  1.0000
  C   C463      1.0  0.24509  0.08475  0.64889  1.0000
  C   C464      1.0  0.25875  0.07400  0.68008  1.0000
  H   H763      1.0  0.22682  0.07943  0.66532  1.0000
  H   H764      1.0  0.22563  0.07718  0.67973  1.0000
  H   H765      1.0  0.25436  0.06232  0.66626  1.0000
  H   H766      1.0  0.24134  0.06428  0.66282  1.0000
  H   H767      1.0  0.24796  0.09251  0.66056  1.0000
  H   H768      1.0  0.25786  0.08019  0.65834  1.0000
  H   H769      1.0  0.24459  0.08754  0.68005  1.0000
  H   H770      1.0  0.24104  0.07499  0.68791  1.0000
  H   H771      1.0  0.21638  0.09607  0.67220  1.0000
  H   H772      1.0  0.22733  0.09655  0.67818  1.0000
  H   H773      1.0  0.22898  0.09928  0.66322  1.0000
  H   H774      1.0  0.23229  0.05882  0.68306  1.0000
  H   H775      1.0  0.24373  0.04848  0.67799  1.0000
  H   H776      1.0  0.24589  0.05638  0.68647  1.0000
  H   H777      1.0  0.24627  0.07648  0.64703  1.0000
  H   H778      1.0  0.25040  0.08956  0.64188  1.0000
  H   H779      1.0  0.23628  0.08928  0.64902  1.0000
  H   H780      1.0  0.26382  0.08013  0.67485  1.0000
  H   H781      1.0  0.26232  0.06602  0.67734  1.0000
  H   H782      1.0  0.25982  0.07217  0.68875  1.0000
  N   N32       1.0  0.31206  0.08294  0.55044  1.0000
  C   C465      1.0  0.30753  0.08398  0.56240  1.0000
  C   C466      1.0  0.30643  0.07484  0.54851  1.0000
  C   C467      1.0  0.30870  0.09426  0.54322  1.0000
  C   C468      1.0  0.32466  0.07915  0.54855  1.0000
  C   C469      1.0  0.31092  0.09303  0.56593  1.0000
  C   C470      1.0  0.30795  0.06318  0.55624  1.0000
  H   H783      1.0  0.09236  0.23075  0.68773  1.0000
  C   C471      1.0  0.33056  0.07317  0.53881  1.0000
  H   H784      1.0  0.29822  0.08562  0.56440  1.0000
  H   H785      1.0  0.31024  0.07602  0.56818  1.0000
  H   H786      1.0  0.30912  0.07359  0.53989  1.0000
  H   H787      1.0  0.29725  0.07827  0.54951  1.0000
  H   H788      1.0  0.29942  0.09728  0.54528  1.0000
  H   H789      1.0  0.31233  0.10056  0.54476  1.0000
  H   H790      1.0  0.32861  0.08632  0.54733  1.0000
  H   H791      1.0  0.32706  0.07316  0.55610  1.0000
  H   H792      1.0  0.30865  0.09171  0.57513  1.0000
  H   H793      1.0  0.32006  0.09269  0.56338  1.0000
  H   H794      1.0  0.30621  0.10148  0.56273  1.0000
  H   H795      1.0  0.30264  0.06342  0.56467  1.0000
  H   H796      1.0  0.30510  0.05746  0.55294  1.0000
  H   H797      1.0  0.31680  0.05957  0.55684  1.0000
  H   H798      1.0  0.23033  0.08095  0.54247  1.0000
  C   C472      1.0  0.26130  0.11521  0.69313  1.0000
  H   H799      1.0  0.09145  0.21227  0.67652  1.0000
  H   H800      1.0  0.19117  0.02540  0.66590  1.0000
  N   N33       1.0  0.26354  0.03049  0.50986  1.0000
  H   H801      1.0  0.33242  0.06399  0.54189  1.0000
  N   N34       1.0  0.36566  0.10895  0.66961  1.0000
  C   C473      1.0  0.36022  0.09919  0.67568  1.0000
  C   C474      1.0  0.37635  0.10546  0.66145  1.0000
  C   C475      1.0  0.35325  0.11350  0.65519  1.0000
  C   C476      1.0  0.36732  0.08915  0.68228  1.0000
  C   C477      1.0  0.38734  0.10142  0.66580  1.0000
  H   H802      1.0  0.35229  0.10197  0.68153  1.0000
  H   H803      1.0  0.35779  0.09567  0.66987  1.0000
  H   H804      1.0  0.37559  0.09873  0.65787  1.0000
  H   H805      1.0  0.34903  0.12086  0.64971  1.0000
  H   H806      1.0  0.36015  0.10869  0.64981  1.0000
  H   H807      1.0  0.36182  0.08338  0.68751  1.0000
  H   H808      1.0  0.37106  0.09145  0.68798  1.0000
  H   H809      1.0  0.37393  0.08438  0.67663  1.0000
  H   H810      1.0  0.38984  0.10832  0.66759  1.0000
  H   H811      1.0  0.39424  0.09816  0.65926  1.0000
  H   H812      1.0  0.23277  0.09781  0.50149  1.0000
  N   N35       1.0  0.19432  0.02536  0.64839  1.0000
  C   C478      1.0  0.22471  0.99180  0.63812  1.0000
  H   H813      1.0  0.26324  0.99970  0.61757  1.0000
  H   H814      1.0  0.09025  0.21693  0.66213  1.0000
  C   C479      1.0  0.40561  0.06822  0.72585  1.0000
  H   H815      1.0  0.11836  0.23921  0.53324  1.0000
  H   H816      1.0  0.18376  0.03823  0.63840  1.0000
  H   H817      1.0  0.25250  0.99593  0.60812  1.0000
  H   H818      1.0  0.41433  0.05653  0.70965  1.0000
  H   H819      1.0  0.20289  0.03106  0.65757  1.0000
  H   H820      1.0  0.39812  0.11514  0.72993  1.0000
  S   S147      1.0  0.02608  0.22747  0.63358  1.0000
  C   C480      1.0  0.31218  0.09518  0.53058  1.0000
  H   H821      1.0  0.27003  0.12801  0.68392  1.0000
  Fe  Fe75      1.0  0.03429  0.23287  0.64421  1.0000
  H   H822      1.0  0.41189  0.15191  0.72763  1.0000
  C   C481      1.0  0.27787  0.01654  0.52106  1.0000
  H   H823      1.0  0.33886  0.07542  0.53508  1.0000
  H   H824      1.0  0.24857  0.08084  0.52949  1.0000
  H   H825      1.0  0.27843  0.09303  0.70128  1.0000
  H   H826      1.0  0.43182  0.07788  0.69943  1.0000
  H   H827      1.0  0.11621  0.23824  0.64321  1.0000
  H   H828      1.0  0.30909  0.08933  0.52776  1.0000
  H   H829      1.0  0.38156  0.02706  0.72847  1.0000
  C   C482      1.0  0.28826  0.10267  0.68637  1.0000
  C   C483      1.0  0.12758  0.23492  0.65408  1.0000
  C   C484      1.0  0.40065  0.11311  0.72184  1.0000
  Fe  Fe76      1.0  0.34968  0.12420  0.72227  1.0000
  H   H830      1.0  0.26214  0.10609  0.69566  1.0000
  H   H831      1.0  0.03031  0.23657  0.58737  1.0000
  H   H832      1.0  0.26004  0.02829  0.53408  1.0000
  H   H833      1.0  0.07590  0.23068  0.66816  1.0000
  C   C485      1.0  0.24423  0.08889  0.53198  1.0000
  H   H834      1.0  0.17182  0.04832  0.65155  1.0000
  H   H835      1.0  0.10749  0.23646  0.51619  1.0000
  H   H836      1.0  0.09187  0.22648  0.51680  1.0000
  H   H837      1.0  0.08773  0.20401  0.60080  1.0000
  H   H838      1.0  0.35789  0.04208  0.72860  1.0000
  C   C486      1.0  0.09977  0.21544  0.53485  1.0000
  C   C487      1.0  0.25674  0.10579  0.51374  1.0000
  H   H839      1.0  0.24625  0.02409  0.49620  1.0000
  H   H840      1.0  0.19254  0.04335  0.64364  1.0000
  C   C488      1.0  0.17717  0.04036  0.65504  1.0000
  C   C489      1.0  0.20427  0.02435  0.63881  1.0000
  H   H841      1.0  0.43860  0.07486  0.71084  1.0000
  H   H842      1.0  0.49544  0.12785  0.71532  1.0000
  H   H843      1.0  0.27677  0.00963  0.52845  1.0000
  H   H844      1.0  0.10345  0.22959  0.65874  1.0000
  H   H845      1.0  0.25074  0.04157  0.53371  1.0000
  C   C490      1.0  0.25798  0.03664  0.52870  1.0000
  C   C491      1.0  0.20146  0.02663  0.62730  1.0000
  H   H846      1.0  0.20916  0.02389  0.62123  1.0000
  H   H847      1.0  0.19352  0.00444  0.63973  1.0000
  H   H848      1.0  0.29558  0.09993  0.70540  1.0000
  H   H849      1.0  0.27633  0.03839  0.51110  1.0000
  H   H850      1.0  0.18184  0.01601  0.65862  1.0000
  H   H851      1.0  0.29844  0.13052  0.66718  1.0000
  H   H852      1.0  0.13873  0.23446  0.66429  1.0000
  H   H853      1.0  0.28475  0.12906  0.66758  1.0000
  C   C492      1.0  0.19835  0.02431  0.65875  1.0000
  C   C493      1.0  0.09889  0.22694  0.66737  1.0000
  H   H854      1.0  0.20206  0.00244  0.64963  1.0000
  H   H855      1.0  0.28783  0.12965  0.68619  1.0000
  H   H856      1.0  0.10535  0.22475  0.67243  1.0000
  H   H857      1.0  0.10816  0.21841  0.58403  1.0000
  H   H858      1.0  0.29928  0.11802  0.68511  1.0000
  H   H859      1.0  0.38787  0.13524  0.72095  1.0000
  H   H860      1.0  0.20143  0.00630  0.66599  1.0000
  H   H861      1.0  0.30833  0.10367  0.52644  1.0000
  H   H862      1.0  0.27477  0.10841  0.70655  1.0000
  H   H863      1.0  0.32611  0.07530  0.53197  1.0000
  C   C494      1.0  0.28226  0.09300  0.69246  1.0000
  C   C495      1.0  0.20602  0.01318  0.66288  1.0000
  H   H864      1.0  0.06307  0.23803  0.58612  1.0000
  C   C496      1.0  0.28171  0.03357  0.49539  1.0000
  H   H865      1.0  0.20998  0.01609  0.64001  1.0000
  H   H866      1.0  0.08003  0.23307  0.53384  1.0000
  Fe  Fe77      1.0  0.34798  0.10065  0.72467  1.0000
  N   N36       1.0  0.00886  0.23207  0.59582  1.0000
  H   H867      1.0  0.02474  0.20797  0.61015  1.0000
  H   H868      1.0  0.03472  0.23877  0.67925  1.0000
  C   C497      1.0  0.08045  0.23437  0.54988  1.0000
  C   C498      1.0  0.08596  0.21256  0.60233  1.0000
  H   H869      1.0  0.43266  0.05734  0.72095  1.0000
  H   H870      1.0  0.21366  0.01101  0.65657  1.0000
  Fe  Fe78      1.0  0.44746  0.08250  0.73241  1.0000
  C   C499      1.0  0.42727  0.05312  0.71873  1.0000
  H   H871      1.0  0.41057  0.06421  0.73241  1.0000
  H   H872      1.0  0.07116  0.23592  0.55243  1.0000
  H   H873      1.0  0.07078  0.22503  0.62423  1.0000
  H   H874      1.0  0.36193  0.07857  0.72140  1.0000
  H   H875      1.0  0.42285  0.07540  0.72431  1.0000
  N   N37       1.0  0.08947  0.23627  0.67090  1.0000
  H   H876      1.0  0.09431  0.21404  0.60192  1.0000
  C   C500      1.0  0.39630  0.07760  0.73031  1.0000
  C   C501      1.0  0.01512  0.23384  0.58388  1.0000
  H   H877      1.0  0.38926  0.07999  0.72595  1.0000
  H   H878      1.0  0.00542  0.21789  0.60904  1.0000
  C   C502      1.0  0.41995  0.06125  0.71090  1.0000
  C   C503      1.0  0.02783  0.23314  0.58162  1.0000
  H   H879      1.0  0.49779  0.13856  0.72618  1.0000
  H   H880      1.0  0.37381  0.13403  0.72731  1.0000
  H   H881      1.0  0.40232  0.13911  0.72399  1.0000
  H   H882      1.0  0.37151  0.01217  0.72921  1.0000
  S   S148      1.0  0.04431  0.23322  0.60359  1.0000
  H   H883      1.0  0.37672  0.14756  0.72157  1.0000
  H   H884      1.0  0.37509  0.17101  0.72517  1.0000
  H   H885      1.0  0.08955  0.23496  0.64903  1.0000
  H   H886      1.0  0.49766  0.13999  0.70487  1.0000
  C   C504      1.0  0.38007  0.13911  0.72615  1.0000
  H   H887      1.0  0.48666  0.16835  0.71437  1.0000
  C   C505      1.0  0.49013  0.15926  0.71509  1.0000
  H   H888      1.0  0.24464  0.99154  0.62161  1.0000
  C   C506      1.0  0.37280  0.06623  0.73119  1.0000
  H   H889      1.0  0.48810  0.15539  0.72400  1.0000
  C   C507      1.0  0.48502  0.10826  0.72863  1.0000
  H   H890      1.0  0.08168  0.23919  0.61533  1.0000
  H   H891      1.0  0.48540  0.15648  0.71058  1.0000
  C   C508      1.0  0.36288  0.07405  0.72965  1.0000
  C   C509      1.0  0.26164  0.99117  0.62127  1.0000
  H   H892      1.0  0.39940  0.08514  0.72957  1.0000
  S   S149      1.0  0.09867  0.23760  0.56855  1.0000
  C   C510      1.0  0.09153  0.23553  0.51411  1.0000
  N   N38       1.0  0.09624  0.23691  0.53229  1.0000
  H   H893      1.0  0.00546  0.23850  0.61063  1.0000
  H   H894      1.0  0.08321  0.23913  0.55429  1.0000
  H   H895      1.0  0.03053  0.23837  0.57332  1.0000
  Fe  Fe79      1.0  0.39204  0.21077  0.96154  1.0000
  H   H896      1.0  0.49244  0.10550  0.77730  1.0000
  Fe  Fe80      1.0  0.39750  0.20610  0.93808  1.0000
  S   S150      1.0  0.45881  0.08574  0.74128  1.0000
  S   S151      1.0  0.40591  0.19465  0.92611  1.0000
  H   H897      1.0  0.45979  0.19987  0.95521  1.0000
  H   H898      1.0  0.35227  0.23162  0.91629  1.0000
  C   C511      1.0  0.47415  0.08399  0.77836  1.0000
  C   C512      1.0  0.45279  0.20683  0.95757  1.0000
  S   S152      1.0  0.40779  0.20932  0.94827  1.0000
  S   S153      1.0  0.38236  0.20554  0.95213  1.0000
  H   H899      1.0  0.37358  0.22012  0.91250  1.0000
  S   S154      1.0  0.45765  0.22320  0.90337  1.0000
  H   H900      1.0  0.34752  0.23753  0.88621  1.0000
  H   H901      1.0  0.41649  0.21342  0.87242  1.0000
  C   C513      1.0  0.48329  0.12070  0.74070  1.0000
  H   H902      1.0  0.38424  0.19251  0.83239  1.0000
  C   C514      1.0  0.49480  0.11726  0.74067  1.0000
  H   H903      1.0  0.40556  0.23770  0.88595  1.0000
  C   C515      1.0  0.41529  0.21113  0.88157  1.0000
  Fe  Fe81      1.0  0.36411  0.13765  0.78777  1.0000
  S   S155      1.0  0.36236  0.13029  0.80615  1.0000
  S   S156      1.0  0.34990  0.14162  0.77873  1.0000
  Fe  Fe82      1.0  0.38838  0.13784  0.78482  1.0000
  S   S157      1.0  0.38904  0.13000  0.80259  1.0000
  S   S158      1.0  0.40295  0.14239  0.77152  1.0000
  Fe  Fe83      1.0  0.37878  0.11881  0.80091  1.0000
  S   S159      1.0  0.38330  0.10004  0.80704  1.0000
  Fe  Fe84      1.0  0.37275  0.14217  0.80645  1.0000
  S   S160      1.0  0.36846  0.15207  0.82028  1.0000
  S   S161      1.0  0.37987  0.12556  0.78273  1.0000
  S   S162      1.0  0.37269  0.15066  0.78857  1.0000
  H   H904      1.0  0.38606  0.19196  0.80383  1.0000
  H   H905      1.0  0.37120  0.18159  0.81175  1.0000
  H   H906      1.0  0.40243  0.18995  0.82388  1.0000
  Fe  Fe85      1.0  0.38875  0.19477  0.87280  1.0000
  S   S163      1.0  0.39557  0.21019  0.86453  1.0000
  S   S164      1.0  0.37950  0.19379  0.89079  1.0000
  Fe  Fe86      1.0  0.39540  0.18558  0.85125  1.0000
  S   S165      1.0  0.40300  0.20041  0.84162  1.0000
  S   S166      1.0  0.39737  0.17185  0.84168  1.0000
  Fe  Fe87      1.0  0.41029  0.19869  0.85630  1.0000
  S   S167      1.0  0.42841  0.19846  0.85592  1.0000
  Fe  Fe88      1.0  0.38770  0.21064  0.85071  1.0000
  S   S168      1.0  0.37755  0.22592  0.84145  1.0000
  S   S169      1.0  0.40395  0.18304  0.86545  1.0000
  S   S170      1.0  0.37961  0.19609  0.85946  1.0000
  H   H907      1.0  0.37230  0.15500  0.75400  1.0000
  Fe  Fe89      1.0  0.37581  0.05267  0.78465  1.0000
  S   S171      1.0  0.38929  0.05818  0.77055  1.0000
  S   S172      1.0  0.36360  0.06735  0.79121  1.0000
  Fe  Fe90      1.0  0.38469  0.02801  0.78279  1.0000
  S   S173      1.0  0.39921  0.03205  0.76887  1.0000
  S   S174      1.0  0.38321  0.00980  0.78741  1.0000
  Fe  Fe91      1.0  0.40075  0.04353  0.77861  1.0000
  S   S175      1.0  0.41630  0.04779  0.78004  1.0000
  Fe  Fe92      1.0  0.38637  0.04631  0.76225  1.0000
  C   C516      1.0  0.36407  0.99550  0.77064  1.0000
  S   S176      1.0  0.38742  0.03837  0.79334  1.0000
  S   S177      1.0  0.37171  0.04179  0.77562  1.0000
  C   C517      1.0  0.39811  0.08613  0.75876  1.0000
  S   S178      1.0  0.39071  0.20519  0.98014  1.0000
  C   C518      1.0  0.42435  0.20050  0.88386  1.0000
  H   H908      1.0  0.35411  0.23529  0.84444  1.0000
  C   C519      1.0  0.42421  0.04880  0.75772  1.0000
  H   H909      1.0  0.37273  0.10706  0.77350  1.0000
  H   H910      1.0  0.44256  0.18831  0.95915  1.0000
  Fe  Fe93      1.0  0.44387  0.09792  0.74797  1.0000
  S   S179      1.0  0.43883  0.09812  0.76608  1.0000
  N   N39       1.0  0.41536  0.22080  0.88617  1.0000
  H   H911      1.0  0.39199  0.08061  0.76221  1.0000
  C   C520      1.0  0.37598  0.00483  0.78034  1.0000
  H   H912      1.0  0.39583  0.21040  0.81485  1.0000
  C   C521      1.0  0.39452  0.20360  0.81173  1.0000
  C   C522      1.0  0.35895  0.00521  0.77480  1.0000
  C   C523      1.0  0.36488  0.00988  0.77957  1.0000
  H   H913      1.0  0.35032  0.00912  0.77436  1.0000
  H   H914      1.0  0.36077  0.01726  0.78290  1.0000
  C   C524      1.0  0.42460  0.05230  0.76701  1.0000
  H   H915      1.0  0.39891  0.07492  0.78023  1.0000
  H   H916      1.0  0.43681  0.22284  0.89356  1.0000
  C   C525      1.0  0.42640  0.22443  0.88175  1.0000
  C   C526      1.0  0.43756  0.06390  0.75529  1.0000
  C   C527      1.0  0.43146  0.05968  0.76582  1.0000
  H   H917      1.0  0.41131  0.07539  0.79108  1.0000
  C   C528      1.0  0.38853  0.09539  0.77430  1.0000
  H   H918      1.0  0.44264  0.06978  0.75441  1.0000
  H   H919      1.0  0.43186  0.06235  0.77300  1.0000
  H   H920      1.0  0.41852  0.21034  0.90207  1.0000
  H   H921      1.0  0.37705  0.03902  0.73419  1.0000
  H   H922      1.0  0.34684  0.03797  0.74963  1.0000
  C   C529      1.0  0.36550  0.06276  0.75101  1.0000
  H   H923      1.0  0.41632  0.09433  0.76275  1.0000
  N   N40       1.0  0.39009  0.14564  0.73757  1.0000
  C   C530      1.0  0.48360  0.10674  0.77665  1.0000
  H   H924      1.0  0.39276  0.07451  0.73922  1.0000
  N   N41       1.0  0.44580  0.21136  0.94885  1.0000
  H   H925      1.0  0.35700  0.01519  0.75227  1.0000
  H   H926      1.0  0.37025  0.00206  0.74224  1.0000
  Fe  Fe94      1.0  0.40105  0.22723  0.94137  1.0000
  C   C531      1.0  0.35110  0.22380  0.91509  1.0000
  H   H927      1.0  0.37622  0.16953  0.73925  1.0000
  N   N42       1.0  0.38255  0.20208  0.81596  1.0000
  H   H928      1.0  0.48213  0.07671  0.75808  1.0000
  H   H929      1.0  0.35008  0.04524  0.75797  1.0000
  H   H930      1.0  0.36647  0.21146  0.81191  1.0000
  C   C532      1.0  0.38190  0.19178  0.81272  1.0000
  H   H931      1.0  0.42448  0.19729  0.89273  1.0000
  H   H932      1.0  0.35565  0.04823  0.74352  1.0000
  C   C533      1.0  0.37975  0.20075  0.82840  1.0000
  H   H933      1.0  0.38468  0.02440  0.75866  1.0000
  C   C534      1.0  0.40377  0.19335  0.81484  1.0000
  H   H934      1.0  0.37518  0.14030  0.76019  1.0000
  H   H935      1.0  0.40325  0.23285  0.90467  1.0000
  H   H936      1.0  0.37809  0.21319  0.80101  1.0000
  C   C535      1.0  0.37669  0.15778  0.82582  1.0000
  C   C536      1.0  0.38842  0.15569  0.82283  1.0000
  C   C537      1.0  0.39454  0.16001  0.82781  1.0000
  C   C538      1.0  0.38908  0.16662  0.83575  1.0000
  C   C539      1.0  0.37735  0.16877  0.83867  1.0000
  C   C540      1.0  0.37124  0.16433  0.83380  1.0000
  H   H937      1.0  0.39281  0.15066  0.81675  1.0000
  H   H938      1.0  0.40360  0.15825  0.82547  1.0000
  H   H939      1.0  0.37300  0.17365  0.84488  1.0000
  H   H940      1.0  0.36219  0.16595  0.83628  1.0000
  C   C541      1.0  0.41339  0.13030  0.77049  1.0000
  C   C542      1.0  0.41256  0.12049  0.77855  1.0000
  C   C543      1.0  0.42076  0.11074  0.77748  1.0000
  C   C544      1.0  0.42948  0.11066  0.76809  1.0000
  C   C545      1.0  0.43042  0.12052  0.76014  1.0000
  C   C546      1.0  0.42246  0.13037  0.76141  1.0000
  H   H941      1.0  0.40562  0.12037  0.78561  1.0000
  H   H942      1.0  0.42011  0.10319  0.78376  1.0000
  H   H943      1.0  0.43737  0.12064  0.75312  1.0000
  H   H944      1.0  0.42329  0.13800  0.75531  1.0000
  C   C547      1.0  0.37758  0.09103  0.80280  1.0000
  C   C548      1.0  0.38353  0.08002  0.80264  1.0000
  C   C549      1.0  0.37944  0.07277  0.79892  1.0000
  C   C550      1.0  0.36906  0.07628  0.79584  1.0000
  C   C551      1.0  0.36290  0.08715  0.79643  1.0000
  C   C552      1.0  0.36725  0.09460  0.79959  1.0000
  H   H945      1.0  0.39143  0.07710  0.80528  1.0000
  H   H946      1.0  0.38423  0.06438  0.79866  1.0000
  H   H947      1.0  0.35468  0.08979  0.79452  1.0000
  H   H948      1.0  0.36249  0.10299  0.79985  1.0000
  C   C553      1.0  0.35020  0.14034  0.76518  1.0000
  C   C554      1.0  0.34231  0.14801  0.75957  1.0000
  C   C555      1.0  0.34159  0.14723  0.74910  1.0000
  C   C556      1.0  0.34843  0.13850  0.74417  1.0000
  C   C557      1.0  0.35632  0.13062  0.74976  1.0000
  C   C558      1.0  0.35733  0.13166  0.76019  1.0000
  H   H949      1.0  0.33670  0.15468  0.76333  1.0000
  H   H950      1.0  0.33552  0.15339  0.74488  1.0000
  C   C559      1.0  0.35536  0.07002  0.74944  1.0000
  H   H951      1.0  0.36337  0.12564  0.76451  1.0000
  C   C560      1.0  0.44363  0.22840  0.85272  1.0000
  C   C561      1.0  0.44879  0.21756  0.85724  1.0000
  C   C562      1.0  0.44414  0.20850  0.85790  1.0000
  C   C563      1.0  0.43409  0.21017  0.85443  1.0000
  C   C564      1.0  0.42886  0.22102  0.85002  1.0000
  C   C565      1.0  0.43373  0.23006  0.84897  1.0000
  H   H952      1.0  0.45651  0.21615  0.85995  1.0000
  H   H953      1.0  0.44831  0.20012  0.86121  1.0000
  H   H954      1.0  0.42118  0.22241  0.84721  1.0000
  H   H955      1.0  0.38945  0.09835  0.78132  1.0000
  H   H956      1.0  0.43277  0.20180  0.87916  1.0000
  C   C566      1.0  0.39839  0.19394  0.91666  1.0000
  C   C567      1.0  0.40427  0.19011  0.90696  1.0000
  C   C568      1.0  0.39860  0.19018  0.89889  1.0000
  C   C569      1.0  0.38692  0.19344  0.90079  1.0000
  C   C570      1.0  0.38099  0.19649  0.91087  1.0000
  C   C571      1.0  0.38671  0.19711  0.91861  1.0000
  H   H957      1.0  0.41323  0.18704  0.90574  1.0000
  H   H958      1.0  0.40325  0.18742  0.89133  1.0000
  H   H959      1.0  0.37195  0.19837  0.91275  1.0000
  H   H960      1.0  0.38206  0.19973  0.92623  1.0000
  C   C572      1.0  0.48190  0.08555  0.75380  1.0000
  C   C573      1.0  0.44470  0.22786  0.91169  1.0000
  C   C574      1.0  0.43746  0.22058  0.91711  1.0000
  H   H961      1.0  0.46121  0.20854  0.92701  1.0000
  H   H962      1.0  0.49106  0.09323  0.76798  1.0000
  H   H963      1.0  0.38967  0.99110  0.77682  1.0000
  H   H964      1.0  0.42175  0.21857  0.92830  1.0000
  H   H965      1.0  0.43970  0.21214  0.91583  1.0000
  H   H966      1.0  0.38657  0.18417  0.81754  1.0000
  H   H967      1.0  0.40592  0.10393  0.76978  1.0000
  H   H968      1.0  0.40698  0.20876  0.88467  1.0000
  H   H969      1.0  0.36515  0.20787  0.83999  1.0000
  H   H970      1.0  0.34197  0.22396  0.91763  1.0000
  C   C575      1.0  0.41243  0.21763  0.89866  1.0000
  C   C576      1.0  0.39083  0.23941  0.97970  1.0000
  C   C577      1.0  0.43068  0.05264  0.74729  1.0000
  H   H971      1.0  0.36910  0.23012  0.80856  1.0000
  C   C578      1.0  0.41143  0.22690  0.90467  1.0000
  H   H972      1.0  0.49007  0.08770  0.75278  1.0000
  H   H973      1.0  0.38319  0.22567  0.81035  1.0000
  H   H974      1.0  0.36556  0.18846  0.82295  1.0000
  N   N43       1.0  0.39981  0.09042  0.76789  1.0000
  H   H975      1.0  0.45597  0.11345  0.76031  1.0000
  H   H976      1.0  0.44412  0.21749  0.88165  1.0000
  H   H977      1.0  0.43559  0.20947  0.89241  1.0000
  H   H978      1.0  0.43868  0.20028  0.97058  1.0000
  H   H979      1.0  0.42588  0.23246  0.96051  1.0000
  C   C579      1.0  0.48333  0.09995  0.76842  1.0000
  H   H980      1.0  0.37309  0.14280  0.74212  1.0000
  C   C580      1.0  0.40734  0.09872  0.76363  1.0000
  H   H981      1.0  0.45689  0.21336  0.95801  1.0000
  S   S180      1.0  0.44693  0.11255  0.73411  1.0000
  C   C581      1.0  0.38112  0.10532  0.76794  1.0000
  H   H982      1.0  0.36576  0.19379  0.83974  1.0000
  H   H983      1.0  0.38302  0.20682  0.83081  1.0000
  H   H984      1.0  0.37165  0.22317  0.82199  1.0000
  H   H985      1.0  0.46690  0.08025  0.77912  1.0000
  H   H986      1.0  0.42481  0.21724  0.97836  1.0000
  H   H987      1.0  0.39784  0.22800  0.88580  1.0000
  H   H988      1.0  0.40278  0.13033  0.73729  1.0000
  H   H989      1.0  0.37973  0.10377  0.76038  1.0000
  H   H990      1.0  0.42267  0.19381  0.88090  1.0000
  H   H991      1.0  0.36508  0.19601  0.80873  1.0000
  H   H992      1.0  0.36116  0.20497  0.82901  1.0000
  H   H993      1.0  0.39652  0.20619  0.80250  1.0000
  C   C582      1.0  0.40924  0.08320  0.78488  1.0000
  H   H994      1.0  0.40877  0.07057  0.75436  1.0000
  H   H995      1.0  0.42950  0.22397  0.87289  1.0000
  C   C583      1.0  0.35416  0.07591  0.73881  1.0000
  H   H996      1.0  0.41907  0.04297  0.75861  1.0000
  H   H997      1.0  0.38338  0.21933  0.89943  1.0000
  H   H998      1.0  0.47810  0.12686  0.74537  1.0000
  H   H999      1.0  0.36190  0.02715  0.76107  1.0000
  H   H1000     1.0  0.36173  0.12389  0.74598  1.0000
  C   C584      1.0  0.37416  0.06072  0.74192  1.0000
  H   H1001     1.0  0.35734  0.21435  0.88452  1.0000
  H   H1002     1.0  0.36145  0.21334  0.90384  1.0000
  C   C585      1.0  0.36726  0.20192  0.83441  1.0000
  H   H1003     1.0  0.38438  0.11298  0.76601  1.0000
  H   H1004     1.0  0.42924  0.19756  0.95692  1.0000
  H   H1005     1.0  0.38344  0.08889  0.77809  1.0000
  C   C586      1.0  0.43717  0.06037  0.74600  1.0000
  H   H1006     1.0  0.43650  0.18795  0.94831  1.0000
  H   H1007     1.0  0.41712  0.08628  0.78121  1.0000
  H   H1008     1.0  0.34862  0.07140  0.75650  1.0000
  H   H1009     1.0  0.45221  0.19524  0.97363  1.0000
  C   C587      1.0  0.37859  0.14796  0.75736  1.0000
  H   H1010     1.0  0.40433  0.21482  0.90154  1.0000
  H   H1011     1.0  0.42519  0.23337  0.88191  1.0000
  S   S181      1.0  0.38663  0.05128  0.74401  1.0000
  C   C588      1.0  0.40644  0.10674  0.75230  1.0000
  H   H1012     1.0  0.41198  0.19586  0.81227  1.0000
  H   H1013     1.0  0.47516  0.07503  0.79515  1.0000
  C   C589      1.0  0.37522  0.99051  0.77129  1.0000
  C   C590      1.0  0.40881  0.07960  0.75218  1.0000
  N   N44       1.0  0.37870  0.11814  0.83959  1.0000
  C   C591      1.0  0.38761  0.12482  0.83372  1.0000
  C   C592      1.0  0.36798  0.12621  0.84316  1.0000
  C   C593      1.0  0.37705  0.11270  0.83122  1.0000
  C   C594      1.0  0.38263  0.10949  0.84922  1.0000
  C   C595      1.0  0.39920  0.11819  0.82878  1.0000
  C   C596      1.0  0.36878  0.13389  0.85025  1.0000
  C   C597      1.0  0.36789  0.10583  0.83511  1.0000
  C   C598      1.0  0.37352  0.10551  0.85917  1.0000
  H   H1014     1.0  0.38474  0.13160  0.82688  1.0000
  H   H1015     1.0  0.38926  0.12908  0.83944  1.0000
  H   H1016     1.0  0.36112  0.12186  0.84794  1.0000
  H   H1017     1.0  0.36482  0.13170  0.83577  1.0000
  H   H1018     1.0  0.37510  0.11912  0.82377  1.0000
  H   H1019     1.0  0.38485  0.10685  0.82817  1.0000
  H   H1020     1.0  0.38813  0.10194  0.84632  1.0000
  H   H1021     1.0  0.38800  0.11260  0.85277  1.0000
  H   H1022     1.0  0.39903  0.11522  0.82148  1.0000
  H   H1023     1.0  0.40522  0.12382  0.82577  1.0000
  H   H1024     1.0  0.40258  0.11107  0.83502  1.0000
  H   H1025     1.0  0.37355  0.12938  0.85680  1.0000
  H   H1026     1.0  0.37275  0.14084  0.84498  1.0000
  H   H1027     1.0  0.36021  0.13774  0.85429  1.0000
  H   H1028     1.0  0.36672  0.10357  0.82777  1.0000
  H   H1029     1.0  0.35959  0.11045  0.83880  1.0000
  H   H1030     1.0  0.37055  0.09782  0.84077  1.0000
  H   H1031     1.0  0.36913  0.11207  0.86396  1.0000
  H   H1032     1.0  0.37759  0.09835  0.86495  1.0000
  H   H1033     1.0  0.36722  0.10262  0.85679  1.0000
  C   C599      1.0  0.43444  0.21827  0.95289  1.0000
  C   C600      1.0  0.38156  0.13935  0.73764  1.0000
  C   C601      1.0  0.45926  0.11426  0.76718  1.0000
  C   C602      1.0  0.39004  0.14602  0.74927  1.0000
  C   C603      1.0  0.36208  0.22057  0.87885  1.0000
  C   C604      1.0  0.44171  0.23882  0.91320  1.0000
  N   N45       1.0  0.36140  0.23020  0.89459  1.0000
  H   H1034     1.0  0.37978  0.14984  0.76487  1.0000
  H   H1035     1.0  0.35654  0.22736  0.87412  1.0000
  H   H1036     1.0  0.36655  0.05884  0.75929  1.0000
  S   S182      1.0  0.35952  0.23165  0.94435  1.0000
  C   C605      1.0  0.35567  0.22165  0.90317  1.0000
  C   C606      1.0  0.44665  0.20272  0.96964  1.0000
  H   H1037     1.0  0.39493  0.13803  0.75341  1.0000
  H   H1038     1.0  0.44013  0.22732  0.96209  1.0000
  H   H1039     1.0  0.41201  0.14364  0.74158  1.0000
  C   C607      1.0  0.35358  0.04137  0.75062  1.0000
  H   H1040     1.0  0.49248  0.22394  0.89172  1.0000
  S   S183      1.0  0.38607  0.22907  0.95532  1.0000
  C   C608      1.0  0.37529  0.21222  0.81019  1.0000
  H   H1041     1.0  0.39419  0.09293  0.75261  1.0000
  H   H1042     1.0  0.39434  0.15258  0.74923  1.0000
  H   H1043     1.0  0.35510  0.21683  0.92109  1.0000
  H   H1044     1.0  0.35874  0.00723  0.73549  1.0000
  H   H1045     1.0  0.36835  0.21622  0.87261  1.0000
  H   H1046     1.0  0.41662  0.08055  0.75370  1.0000
  H   H1047     1.0  0.41225  0.07507  0.77171  1.0000
  S   S184      1.0  0.47131  0.23426  0.87205  1.0000
  Fe  Fe95      1.0  0.37748  0.22384  0.94503  1.0000
  N   N46       1.0  0.34371  0.09837  0.76738  1.0000
  C   C609      1.0  0.35414  0.09533  0.75872  1.0000
  C   C610      1.0  0.33422  0.10384  0.76140  1.0000
  C   C611      1.0  0.34137  0.08776  0.77546  1.0000
  C   C612      1.0  0.34605  0.10611  0.77310  1.0000
  C   C613      1.0  0.36425  0.08716  0.76312  1.0000
  C   C614      1.0  0.33537  0.11499  0.75315  1.0000
  C   C615      1.0  0.32932  0.08791  0.78237  1.0000
  C   C616      1.0  0.33631  0.11133  0.78160  1.0000
  H   H1048     1.0  0.35228  0.09152  0.75277  1.0000
  H   H1049     1.0  0.35724  0.10288  0.75357  1.0000
  H   H1050     1.0  0.32604  0.10559  0.76721  1.0000
  H   H1051     1.0  0.33316  0.09806  0.75678  1.0000
  H   H1052     1.0  0.34320  0.08089  0.77099  1.0000
  H   H1053     1.0  0.34704  0.08492  0.78141  1.0000
  H   H1054     1.0  0.35290  0.10180  0.77759  1.0000
  H   H1055     1.0  0.34951  0.11300  0.76700  1.0000
  H   H1056     1.0  0.36654  0.08987  0.76955  1.0000
  H   H1057     1.0  0.36268  0.07861  0.76652  1.0000
  H   H1058     1.0  0.37165  0.08652  0.75612  1.0000
  H   H1059     1.0  0.33530  0.12151  0.75739  1.0000
  H   H1060     1.0  0.34293  0.11413  0.74640  1.0000
  H   H1061     1.0  0.32806  0.11804  0.74910  1.0000
  H   H1062     1.0  0.32929  0.07995  0.78865  1.0000
  H   H1063     1.0  0.32349  0.08832  0.77712  1.0000
  H   H1064     1.0  0.32607  0.09469  0.78697  1.0000
  H   H1065     1.0  0.33600  0.10593  0.79003  1.0000
  H   H1066     1.0  0.32805  0.11327  0.77941  1.0000
  H   H1067     1.0  0.33764  0.11953  0.78183  1.0000
  H   H1068     1.0  0.40456  0.18666  0.81049  1.0000
  N   N47       1.0  0.47306  0.09523  0.77050  1.0000
  C   C617      1.0  0.47196  0.09350  0.75967  1.0000
  H   H1069     1.0  0.38376  0.01137  0.74218  1.0000
  H   H1070     1.0  0.45408  0.22537  0.94206  1.0000
  C   C618      1.0  0.41167  0.14355  0.73307  1.0000
  H   H1071     1.0  0.35401  0.02477  0.74014  1.0000
  H   H1072     1.0  0.41225  0.11246  0.75049  1.0000
  H   H1073     1.0  0.46240  0.10456  0.78293  1.0000
  H   H1074     1.0  0.38363  0.13057  0.74230  1.0000
  H   H1075     1.0  0.46421  0.09038  0.76086  1.0000
  H   H1076     1.0  0.47099  0.10150  0.75348  1.0000
  C   C619      1.0  0.46234  0.10284  0.77494  1.0000
  S   S185      1.0  0.39179  0.22407  0.93034  1.0000
  H   H1077     1.0  0.47873  0.10447  0.78517  1.0000
  C   C620      1.0  0.36896  0.23576  0.84921  1.0000
  C   C621      1.0  0.35756  0.23911  0.84897  1.0000
  H   H1078     1.0  0.38356  0.23535  0.98197  1.0000
  H   H1079     1.0  0.46774  0.08908  0.79454  1.0000
  C   C622      1.0  0.37401  0.03207  0.73308  1.0000
  C   C623      1.0  0.42446  0.23509  0.92594  1.0000
  S   S186      1.0  0.34222  0.08635  0.73726  1.0000
  H   H1080     1.0  0.41157  0.21218  0.97022  1.0000
  C   C624      1.0  0.45188  0.21889  0.93921  1.0000
  C   C625      1.0  0.40614  0.23037  0.88254  1.0000
  H   H1081     1.0  0.43060  0.04960  0.74027  1.0000
  C   C626      1.0  0.42730  0.22423  0.92416  1.0000
  C   C627      1.0  0.37910  0.01661  0.74833  1.0000
  C   C628      1.0  0.36838  0.22499  0.88493  1.0000
  H   H1082     1.0  0.45514  0.09871  0.77696  1.0000
  C   C629      1.0  0.43451  0.22895  0.95628  1.0000
  C   C630      1.0  0.37017  0.18958  0.81420  1.0000
  H   H1083     1.0  0.37012  0.03705  0.75330  1.0000
  H   H1084     1.0  0.41535  0.23758  0.86595  1.0000
  N   N48       1.0  0.36946  0.02521  0.74422  1.0000
  C   C631      1.0  0.44427  0.20209  0.94454  1.0000
  H   H1085     1.0  0.41832  0.23148  0.90119  1.0000
  C   C632      1.0  0.47840  0.11615  0.73479  1.0000
  H   H1086     1.0  0.37594  0.01076  0.75597  1.0000
  H   H1087     1.0  0.37493  0.21775  0.88763  1.0000
  H   H1088     1.0  0.37302  0.23098  0.87854  1.0000
  H   H1089     1.0  0.45239  0.11978  0.77192  1.0000
  H   H1090     1.0  0.46869  0.20765  0.93761  1.0000
  C   C633      1.0  0.43604  0.21806  0.88785  1.0000
  C   C634      1.0  0.47503  0.08367  0.79018  1.0000
  H   H1091     1.0  0.43997  0.20562  0.93745  1.0000
  H   H1092     1.0  0.45251  0.19696  0.94125  1.0000
  C   C635      1.0  0.37491  0.22334  0.81302  1.0000
  C   C636      1.0  0.36414  0.03242  0.75267  1.0000
  H   H1093     1.0  0.48178  0.07807  0.77511  1.0000
  H   H1094     1.0  0.40307  0.08928  0.78944  1.0000
  H   H1095     1.0  0.41176  0.22303  0.91345  1.0000
  H   H1096     1.0  0.34852  0.22056  0.90039  1.0000
  Fe  Fe96      1.0  0.45954  0.23678  0.88820  1.0000
  C   C637      1.0  0.43773  0.19364  0.95288  1.0000
  H   H1097     1.0  0.39803  0.11198  0.75199  1.0000
  C   C638      1.0  0.37780  0.22504  0.90474  1.0000
  H   H1098     1.0  0.38226  0.23846  0.85499  1.0000
  C   C639      1.0  0.46288  0.21321  0.93234  1.0000
  C   C640      1.0  0.37668  0.16489  0.73290  1.0000
  H   H1099     1.0  0.40618  0.22899  0.86563  1.0000
  C   C641      1.0  0.40492  0.08051  0.77595  1.0000
  H   H1100     1.0  0.46643  0.11845  0.76371  1.0000
  H   H1101     1.0  0.36966  0.16051  0.73554  1.0000
  H   H1102     1.0  0.42937  0.22084  0.94641  1.0000
  H   H1103     1.0  0.46722  0.21973  0.92657  1.0000
  H   H1104     1.0  0.42939  0.21346  0.96000  1.0000
  H   H1105     1.0  0.44635  0.22362  0.93335  1.0000
  H   H1106     1.0  0.44521  0.20903  0.97466  1.0000
  H   H1107     1.0  0.40906  0.10225  0.74543  1.0000
  H   H1108     1.0  0.49623  0.21934  0.87906  1.0000
  H   H1109     1.0  0.48301  0.08566  0.79018  1.0000
  C   C642      1.0  0.38109  0.99508  0.77624  1.0000
  H   H1110     1.0  0.46953  0.11886  0.73488  1.0000
  S   S187      1.0  0.35641  0.99016  0.76434  1.0000
  H   H1111     1.0  0.48082  0.08629  0.74529  1.0000
  H   H1112     1.0  0.39119  0.02755  0.74398  1.0000
  C   C643      1.0  0.36934  0.23420  0.89877  1.0000
  H   H1113     1.0  0.48102  0.11582  0.77328  1.0000
  C   C644      1.0  0.38798  0.02111  0.75096  1.0000
  H   H1114     1.0  0.42978  0.23840  0.84531  1.0000
  H   H1115     1.0  0.38327  0.22903  0.90716  1.0000
  H   H1116     1.0  0.48431  0.10572  0.76018  1.0000
  H   H1117     1.0  0.39521  0.01415  0.75256  1.0000
  H   H1118     1.0  0.40935  0.08262  0.74313  1.0000
  S   S188      1.0  0.43231  0.09334  0.74050  1.0000
  H   H1119     1.0  0.43688  0.23547  0.94889  1.0000
  C   C645      1.0  0.40729  0.23494  0.86992  1.0000
  C   C646      1.0  0.36104  0.01906  0.74374  1.0000
  C   C647      1.0  0.36578  0.00965  0.73721  1.0000
  C   C648      1.0  0.40969  0.21223  0.97895  1.0000
  C   C649      1.0  0.40150  0.13923  0.73281  1.0000
  H   H1120     1.0  0.37425  0.23949  0.89179  1.0000
  Fe  Fe97      1.0  0.28796  0.37303  0.07866  1.0000
  S   S189      1.0  0.30269  0.36941  0.08662  1.0000
  S   S190      1.0  0.28824  0.38213  0.06094  1.0000
  Fe  Fe98      1.0  0.27232  0.36583  0.10037  1.0000
  S   S191      1.0  0.28545  0.36188  0.11031  1.0000
  S   S192      1.0  0.25443  0.36423  0.10686  1.0000
  Fe  Fe99      1.0  0.29022  0.37775  0.09967  1.0000
  S   S193      1.0  0.29470  0.39023  0.10632  1.0000
  Fe  Fe100     1.0  0.29670  0.35384  0.09642  1.0000
  S   S194      1.0  0.30708  0.33646  0.10099  1.0000
  S   S195      1.0  0.27602  0.38244  0.09104  1.0000
  S   S196      1.0  0.28306  0.35670  0.08721  1.0000
  Fe  Fe101     1.0  0.19314  0.42067  0.13214  1.0000
  S   S197      1.0  0.18194  0.41241  0.12750  1.0000
  S   S198      1.0  0.19146  0.43913  0.12915  1.0000
  Fe  Fe102     1.0  0.20900  0.39909  0.13918  1.0000
  S   S199      1.0  0.19897  0.38904  0.13567  1.0000
  S   S200      1.0  0.22538  0.39016  0.14411  1.0000
  Fe  Fe103     1.0  0.19812  0.40195  0.11994  1.0000
  S   S201      1.0  0.20422  0.39430  0.10486  1.0000
  Fe  Fe104     1.0  0.18383  0.40025  0.14366  1.0000
  S   S202      1.0  0.17014  0.39200  0.15553  1.0000
  S   S203      1.0  0.20902  0.41144  0.12302  1.0000
  S   S204      1.0  0.19402  0.40919  0.14875  1.0000
  Fe  Fe105     1.0  0.36815  0.30592  0.07997  1.0000
  S   S205      1.0  0.36276  0.29025  0.09052  1.0000
  S   S206      1.0  0.35802  0.32360  0.07697  1.0000
  Fe  Fe106     1.0  0.39115  0.29345  0.07004  1.0000
  S   S207      1.0  0.38776  0.27685  0.07943  1.0000
  S   S208      1.0  0.40727  0.29533  0.05782  1.0000
  Fe  Fe107     1.0  0.37087  0.28318  0.07528  1.0000
  S   S209      1.0  0.36380  0.27153  0.07009  1.0000
  Fe  Fe108     1.0  0.38017  0.28512  0.09382  1.0000
  S   S210      1.0  0.38550  0.27507  0.10957  1.0000
  S   S211      1.0  0.37491  0.29915  0.06446  1.0000
  S   S212      1.0  0.38491  0.30145  0.08470  1.0000
  Fe  Fe109     1.0  0.10154  0.40274  0.20885  1.0000
  H   H1121     1.0  0.44048  0.28235  0.11564  1.0000
  S   S213      1.0  0.09166  0.39637  0.20078  1.0000
  Fe  Fe110     1.0  0.12173  0.41315  0.20268  1.0000
  S   S214      1.0  0.11821  0.41716  0.21941  1.0000
  S   S215      1.0  0.13564  0.41968  0.18942  1.0000
  H   H1122     1.0  0.30713  0.32334  0.08230  1.0000
  H   H1123     1.0  0.32830  0.38750  0.08518  1.0000
  C   C650      1.0  0.37356  0.25704  0.05612  1.0000
  S   S216      1.0  0.11971  0.39549  0.20946  1.0000
  S   S217      1.0  0.10397  0.42006  0.20085  1.0000
  H   H1124     1.0  0.15630  0.40690  0.98808  1.0000
  H   H1125     1.0  0.06806  0.45107  0.21278  1.0000
  S   S218      1.0  0.39258  0.25860  0.02497  1.0000
  H   H1126     1.0  0.07936  0.45779  0.23080  1.0000
  N   N49       1.0  0.19603  0.45020  0.08979  1.0000
  H   H1127     1.0  0.45655  0.24853  0.04098  1.0000
  S   S219      1.0  0.46773  0.26115  0.09628  1.0000
  Fe  Fe111     1.0  0.45904  0.26375  0.08243  1.0000
  S   S220      1.0  0.45250  0.28148  0.07451  1.0000
  H   H1128     1.0  0.39613  0.26817  0.99651  1.0000
  H   H1129     1.0  0.19379  0.35971  0.11583  1.0000
  Fe  Fe112     1.0  0.22795  0.41528  0.01955  1.0000
  S   S221      1.0  0.24514  0.40939  0.02329  1.0000
  S   S222      1.0  0.22821  0.41856  0.00122  1.0000
  Fe  Fe113     1.0  0.21683  0.41651  0.04353  1.0000
  S   S223      1.0  0.23307  0.41054  0.04911  1.0000
  S   S224      1.0  0.20148  0.42196  0.05620  1.0000
  Fe  Fe114     1.0  0.23971  0.42212  0.03375  1.0000
  S   S225      1.0  0.25180  0.43180  0.03449  1.0000
  Fe  Fe115     1.0  0.23710  0.39831  0.03831  1.0000
  S   S226      1.0  0.24594  0.38086  0.04449  1.0000
  S   S227      1.0  0.22315  0.42918  0.02877  1.0000
  S   S228      1.0  0.22017  0.40311  0.03391  1.0000
  Fe  Fe116     1.0  0.24354  0.45807  0.08374  1.0000
  S   S229      1.0  0.25859  0.46580  0.07631  1.0000
  S   S230      1.0  0.23146  0.45530  0.07523  1.0000
  Fe  Fe117     1.0  0.24658  0.45405  0.10727  1.0000
  S   S231      1.0  0.26210  0.46100  0.10197  1.0000
  S   S232      1.0  0.23967  0.44692  0.12510  1.0000
  Fe  Fe118     1.0  0.25265  0.47464  0.09060  1.0000
  Fe  Fe119     1.0  0.26670  0.45154  0.08836  1.0000
  S   S233      1.0  0.28418  0.44151  0.08384  1.0000
  S   S234      1.0  0.23676  0.46821  0.09683  1.0000
  S   S235      1.0  0.25207  0.44328  0.09479  1.0000
  C   C651      1.0  0.26337  0.47533  0.13146  1.0000
  C   C652      1.0  0.46296  0.25375  0.14490  1.0000
  C   C653      1.0  0.22263  0.41064  0.99557  1.0000
  C   C654      1.0  0.21493  0.40419  0.00215  1.0000
  C   C655      1.0  0.21087  0.39779  0.99735  1.0000
  C   C656      1.0  0.24370  0.38615  0.01188  1.0000
  C   C657      1.0  0.39844  0.24467  0.99889  1.0000
  H   H1130     1.0  0.14307  0.38280  0.22044  1.0000
  H   H1131     1.0  0.21207  0.40418  0.01091  1.0000
  H   H1132     1.0  0.20493  0.39278  0.00248  1.0000
  H   H1133     1.0  0.42974  0.26581  0.11134  1.0000
  C   C658      1.0  0.24620  0.43897  0.04535  1.0000
  C   C659      1.0  0.25320  0.44285  0.04955  1.0000
  C   C660      1.0  0.24880  0.44784  0.05880  1.0000
  C   C661      1.0  0.23734  0.44924  0.06361  1.0000
  C   C662      1.0  0.23035  0.44564  0.05917  1.0000
  C   C663      1.0  0.23477  0.44041  0.05015  1.0000
  H   H1134     1.0  0.26206  0.44177  0.04583  1.0000
  H   H1135     1.0  0.25425  0.45064  0.06216  1.0000
  H   H1136     1.0  0.22152  0.44672  0.06281  1.0000
  H   H1137     1.0  0.22930  0.43745  0.04696  1.0000
  Fe  Fe120     1.0  0.48012  0.24769  0.08864  1.0000
  H   H1138     1.0  0.24122  0.43965  0.01581  1.0000
  S   S236      1.0  0.08853  0.43808  0.22225  1.0000
  H   H1139     1.0  0.19073  0.43101  0.10730  1.0000
  H   H1140     1.0  0.16923  0.39669  0.23276  1.0000
  C   C664      1.0  0.17158  0.40005  0.22369  1.0000
  Fe  Fe121     1.0  0.10023  0.42242  0.21818  1.0000
  H   H1141     1.0  0.16120  0.42466  0.19545  1.0000
  H   H1142     1.0  0.17125  0.41249  0.19981  1.0000
  H   H1143     1.0  0.19133  0.45580  0.06309  1.0000
  C   C665      1.0  0.07735  0.40264  0.20421  1.0000
  H   H1144     1.0  0.20294  0.45738  0.06708  1.0000
  C   C666      1.0  0.22901  0.37542  0.01662  1.0000
  H   H1145     1.0  0.40007  0.28132  0.11978  1.0000
  C   C667      1.0  0.06043  0.41427  0.19840  1.0000
  C   C668      1.0  0.07179  0.40910  0.19578  1.0000
  H   H1146     1.0  0.17941  0.43647  0.09990  1.0000
  H   H1147     1.0  0.22621  0.36859  0.01498  1.0000
  H   H1148     1.0  0.05622  0.41938  0.19186  1.0000
  H   H1149     1.0  0.07628  0.41023  0.18723  1.0000
  C   C669      1.0  0.37205  0.26785  0.05767  1.0000
  C   C670      1.0  0.37702  0.27570  0.04922  1.0000
  C   C671      1.0  0.38321  0.27285  0.03913  1.0000
  C   C672      1.0  0.38479  0.26203  0.03762  1.0000
  H   H1150     1.0  0.41067  0.25163  0.06048  1.0000
  N   N50       1.0  0.05111  0.44954  0.22162  1.0000
  H   H1151     1.0  0.37585  0.28407  0.05033  1.0000
  H   H1152     1.0  0.38685  0.27902  0.03255  1.0000
  N   N51       1.0  0.48144  0.25072  0.13021  1.0000
  C   C673      1.0  0.16617  0.39513  0.21723  1.0000
  C   C674      1.0  0.41894  0.29170  0.06391  1.0000
  C   C675      1.0  0.42613  0.29908  0.06100  1.0000
  C   C676      1.0  0.43626  0.29588  0.06454  1.0000
  C   C677      1.0  0.43947  0.28513  0.07070  1.0000
  C   C678      1.0  0.43229  0.27768  0.07361  1.0000
  C   C679      1.0  0.42190  0.28104  0.07041  1.0000
  H   H1153     1.0  0.42392  0.30727  0.05587  1.0000
  H   H1154     1.0  0.44177  0.30167  0.06225  1.0000
  H   H1155     1.0  0.43480  0.26928  0.07812  1.0000
  H   H1156     1.0  0.41645  0.27524  0.07248  1.0000
  C   C680      1.0  0.38325  0.26149  0.11227  1.0000
  C   C681      1.0  0.37552  0.25938  0.10754  1.0000
  H   H1157     1.0  0.37072  0.26614  0.10244  1.0000
  C   C682      1.0  0.16084  0.39960  0.16516  1.0000
  C   C683      1.0  0.15349  0.39432  0.17406  1.0000
  C   C684      1.0  0.14572  0.40035  0.18162  1.0000
  C   C685      1.0  0.14523  0.41172  0.18023  1.0000
  C   C686      1.0  0.15269  0.41693  0.17144  1.0000
  C   C687      1.0  0.16049  0.41090  0.16392  1.0000
  H   H1158     1.0  0.15383  0.38554  0.17508  1.0000
  H   H1159     1.0  0.14010  0.39623  0.18846  1.0000
  H   H1160     1.0  0.15241  0.42570  0.17038  1.0000
  H   H1161     1.0  0.16614  0.41502  0.15710  1.0000
  C   C688      1.0  0.22599  0.44518  0.12667  1.0000
  C   C689      1.0  0.22271  0.43556  0.13359  1.0000
  C   C690      1.0  0.21211  0.43369  0.13438  1.0000
  C   C691      1.0  0.20453  0.44169  0.12861  1.0000
  C   C692      1.0  0.20762  0.45155  0.12202  1.0000
  C   C693      1.0  0.21841  0.45321  0.12092  1.0000
  H   H1162     1.0  0.22843  0.42944  0.13818  1.0000
  H   H1163     1.0  0.20975  0.42609  0.13955  1.0000
  H   H1164     1.0  0.20177  0.45780  0.11762  1.0000
  H   H1165     1.0  0.22074  0.46080  0.11578  1.0000
  C   C694      1.0  0.20326  0.40223  0.09149  1.0000
  C   C695      1.0  0.19582  0.41256  0.08978  1.0000
  C   C696      1.0  0.19511  0.41847  0.07890  1.0000
  C   C697      1.0  0.20206  0.41423  0.06975  1.0000
  C   C698      1.0  0.20946  0.40390  0.07151  1.0000
  C   C699      1.0  0.20997  0.39787  0.08234  1.0000
  H   H1166     1.0  0.19043  0.41581  0.09682  1.0000
  H   H1167     1.0  0.18914  0.42627  0.07753  1.0000
  H   H1168     1.0  0.21464  0.40044  0.06451  1.0000
  H   H1169     1.0  0.21564  0.38982  0.08363  1.0000
  C   C700      1.0  0.32141  0.33332  0.09470  1.0000
  C   C701      1.0  0.32612  0.34059  0.08540  1.0000
  C   C702      1.0  0.33743  0.33757  0.08017  1.0000
  C   C703      1.0  0.34407  0.32727  0.08416  1.0000
  C   C704      1.0  0.33942  0.32005  0.09356  1.0000
  C   C705      1.0  0.32810  0.32307  0.09880  1.0000
  H   H1170     1.0  0.32102  0.34846  0.08216  1.0000
  H   H1171     1.0  0.34102  0.34319  0.07292  1.0000
  H   H1172     1.0  0.34454  0.31217  0.09678  1.0000
  H   H1173     1.0  0.32451  0.31746  0.10605  1.0000
  C   C706      1.0  0.27667  0.38154  0.05623  1.0000
  C   C707      1.0  0.27249  0.39037  0.04816  1.0000
  C   C708      1.0  0.26300  0.39023  0.04462  1.0000
  C   C709      1.0  0.25785  0.38109  0.04887  1.0000
  C   C710      1.0  0.26213  0.37218  0.05681  1.0000
  C   C711      1.0  0.27142  0.37248  0.06060  1.0000
  H   H1174     1.0  0.27649  0.39742  0.04477  1.0000
  H   H1175     1.0  0.25975  0.39716  0.03854  1.0000
  H   H1176     1.0  0.25815  0.36511  0.06017  1.0000
  H   H1177     1.0  0.27462  0.36560  0.06678  1.0000
  C   C712      1.0  0.28630  0.42740  0.09067  1.0000
  C   C713      1.0  0.27928  0.42057  0.09075  1.0000
  C   C714      1.0  0.28177  0.40908  0.09547  1.0000
  C   C715      1.0  0.29116  0.40450  0.10029  1.0000
  C   C716      1.0  0.29795  0.41143  0.10044  1.0000
  C   C717      1.0  0.29564  0.42278  0.09549  1.0000
  H   H1178     1.0  0.27216  0.42409  0.08686  1.0000
  H   H1179     1.0  0.27643  0.40380  0.09543  1.0000
  H   H1180     1.0  0.30517  0.40796  0.10420  1.0000
  H   H1181     1.0  0.30111  0.42802  0.09540  1.0000
  C   C718      1.0  0.24717  0.37211  0.11687  1.0000
  C   C719      1.0  0.23731  0.37987  0.11518  1.0000
  C   C720      1.0  0.23063  0.38530  0.12358  1.0000
  C   C721      1.0  0.23380  0.38313  0.13371  1.0000
  C   C722      1.0  0.24379  0.37551  0.13537  1.0000
  C   C723      1.0  0.25051  0.37002  0.12692  1.0000
  H   H1182     1.0  0.23464  0.38158  0.10745  1.0000
  H   H1183     1.0  0.22290  0.39099  0.12224  1.0000
  H   H1184     1.0  0.24625  0.37373  0.14322  1.0000
  H   H1185     1.0  0.25808  0.36391  0.12830  1.0000
  H   H1186     1.0  0.21269  0.37195  0.10154  1.0000
  C   C724      1.0  0.37625  0.24053  0.01502  1.0000
  H   H1187     1.0  0.24819  0.37958  0.99208  1.0000
  H   H1188     1.0  0.40251  0.28264  0.13210  1.0000
  H   H1189     1.0  0.26465  0.38211  0.13446  1.0000
  H   H1190     1.0  0.26274  0.46509  0.98648  1.0000
  H   H1191     1.0  0.49151  0.26648  0.09168  1.0000
  H   H1192     1.0  0.48176  0.25831  0.11288  1.0000
  H   H1193     1.0  0.36951  0.24768  0.01730  1.0000
  H   H1194     1.0  0.24899  0.39613  0.12310  1.0000
  C   C725      1.0  0.25062  0.45479  0.98961  1.0000
  H   H1195     1.0  0.26663  0.38527  0.11943  1.0000
  H   H1196     1.0  0.24363  0.41776  0.14533  1.0000
  C   C726      1.0  0.39793  0.24187  0.07072  1.0000
  C   C727      1.0  0.42537  0.27133  0.10471  1.0000
  H   H1197     1.0  0.24100  0.46487  0.00751  1.0000
  H   H1198     1.0  0.44713  0.26540  0.05451  1.0000
  H   H1199     1.0  0.21858  0.37363  0.03322  1.0000
  C   C728      1.0  0.47646  0.25929  0.12115  1.0000
  H   H1200     1.0  0.26906  0.45085  0.98543  1.0000
  H   H1201     1.0  0.24494  0.35842  0.01374  1.0000
  H   H1202     1.0  0.24955  0.36508  0.02925  1.0000
  H   H1203     1.0  0.24999  0.46584  0.12487  1.0000
  C   C729      1.0  0.14607  0.40007  0.22641  1.0000
  H   H1204     1.0  0.04344  0.43977  0.21541  1.0000
  H   H1205     1.0  0.20796  0.46069  0.08071  1.0000
  H   H1206     1.0  0.16957  0.40925  0.22201  1.0000
  C   C730      1.0  0.47497  0.27158  0.12155  1.0000
  H   H1207     1.0  0.21196  0.44137  0.08178  1.0000
  H   H1208     1.0  0.21668  0.44484  0.09792  1.0000
  H   H1209     1.0  0.39861  0.24742  0.00636  1.0000
  H   H1210     1.0  0.33113  0.38610  0.05046  1.0000
  H   H1211     1.0  0.32738  0.39986  0.04185  1.0000
  N   N52       1.0  0.24585  0.44559  0.99814  1.0000
  H   H1212     1.0  0.26049  0.42686  0.01083  1.0000
  H   H1213     1.0  0.48322  0.24068  0.11198  1.0000
  H   H1214     1.0  0.40156  0.25842  0.09350  1.0000
  C   C731      1.0  0.18781  0.44928  0.10081  1.0000
  H   H1215     1.0  0.49787  0.24256  0.14441  1.0000
  H   H1216     1.0  0.44460  0.27969  0.04775  1.0000
  Fe  Fe122     1.0  0.40486  0.24234  0.02789  1.0000
  H   H1217     1.0  0.37332  0.26363  0.99702  1.0000
  H   H1218     1.0  0.05203  0.47275  0.23091  1.0000
  C   C732      1.0  0.26303  0.42935  0.00166  1.0000
  N   N53       1.0  0.24716  0.40627  0.07655  1.0000
  C   C733      1.0  0.25249  0.39479  0.07423  1.0000
  C   C734      1.0  0.25107  0.41456  0.06625  1.0000
  C   C735      1.0  0.23458  0.40753  0.07892  1.0000
  C   C736      1.0  0.25079  0.40716  0.08649  1.0000
  C   C737      1.0  0.24853  0.38497  0.08313  1.0000
  C   C738      1.0  0.26362  0.41477  0.06350  1.0000
  C   C739      1.0  0.22738  0.41944  0.07682  1.0000
  C   C740      1.0  0.24721  0.41864  0.08962  1.0000
  H   H1219     1.0  0.25097  0.39417  0.06628  1.0000
  H   H1220     1.0  0.26174  0.39299  0.07323  1.0000
  H   H1221     1.0  0.24654  0.42322  0.06664  1.0000
  H   H1222     1.0  0.24923  0.41302  0.05887  1.0000
  H   H1223     1.0  0.23229  0.40312  0.07373  1.0000
  H   H1224     1.0  0.23138  0.40348  0.08768  1.0000
  H   H1225     1.0  0.24738  0.40131  0.09406  1.0000
  H   H1226     1.0  0.26003  0.40433  0.08564  1.0000
  H   H1227     1.0  0.25038  0.38451  0.09119  1.0000
  H   H1228     1.0  0.23949  0.38526  0.08416  1.0000
  H   H1229     1.0  0.25321  0.37704  0.08055  1.0000
  H   H1230     1.0  0.26914  0.40658  0.06251  1.0000
  H   H1231     1.0  0.26557  0.42061  0.05542  1.0000
  H   H1232     1.0  0.26574  0.41789  0.06978  1.0000
  H   H1233     1.0  0.21848  0.41917  0.08070  1.0000
  H   H1234     1.0  0.22780  0.42276  0.06781  1.0000
  H   H1235     1.0  0.22970  0.42532  0.08028  1.0000
  H   H1236     1.0  0.23869  0.41973  0.09502  1.0000
  H   H1237     1.0  0.24754  0.42573  0.08239  1.0000
  H   H1238     1.0  0.25322  0.41928  0.09418  1.0000
  N   N54       1.0  0.11349  0.40143  0.16936  1.0000
  C   C741      1.0  0.10125  0.40569  0.16885  1.0000
  C   C742      1.0  0.11604  0.40811  0.17607  1.0000
  C   C743      1.0  0.11506  0.38927  0.17518  1.0000
  C   C744      1.0  0.12032  0.40286  0.15762  1.0000
  C   C745      1.0  0.09623  0.39888  0.16391  1.0000
  C   C746      1.0  0.11476  0.42072  0.17113  1.0000
  C   C747      1.0  0.12536  0.38422  0.18051  1.0000
  C   C748      1.0  0.13317  0.40085  0.15600  1.0000
  H   H1239     1.0  0.09597  0.40611  0.17730  1.0000
  H   H1240     1.0  0.09974  0.41437  0.16387  1.0000
  H   H1241     1.0  0.12464  0.40509  0.17756  1.0000
  H   H1242     1.0  0.11058  0.40699  0.18453  1.0000
  H   H1243     1.0  0.10771  0.38784  0.18210  1.0000
  H   H1244     1.0  0.11545  0.38397  0.16941  1.0000
  H   H1245     1.0  0.11892  0.39707  0.15327  1.0000
  H   H1246     1.0  0.11743  0.41124  0.15254  1.0000
  H   H1247     1.0  0.09613  0.39036  0.16907  1.0000
  H   H1248     1.0  0.08734  0.40305  0.16378  1.0000
  H   H1249     1.0  0.10059  0.39843  0.15524  1.0000
  H   H1250     1.0  0.11997  0.42250  0.16264  1.0000
  H   H1251     1.0  0.10588  0.42498  0.17121  1.0000
  H   H1252     1.0  0.11772  0.42453  0.17634  1.0000
  H   H1253     1.0  0.12617  0.37505  0.18323  1.0000
  H   H1254     1.0  0.12424  0.38738  0.18808  1.0000
  H   H1255     1.0  0.13329  0.38572  0.17478  1.0000
  H   H1256     1.0  0.13720  0.39195  0.15610  1.0000
  H   H1257     1.0  0.13589  0.40372  0.16202  1.0000
  H   H1258     1.0  0.13659  0.40587  0.14784  1.0000
  N   N55       1.0  0.21690  0.35813  0.11503  1.0000
  C   C749      1.0  0.21003  0.36405  0.10633  1.0000
  C   C750      1.0  0.22905  0.35719  0.10916  1.0000
  C   C751      1.0  0.21419  0.36540  0.12334  1.0000
  C   C752      1.0  0.21384  0.34697  0.12049  1.0000
  C   C753      1.0  0.19720  0.36700  0.11055  1.0000
  C   C754      1.0  0.23306  0.35049  0.09993  1.0000
  C   C755      1.0  0.22035  0.36110  0.13302  1.0000
  C   C756      1.0  0.22252  0.33788  0.12634  1.0000
  H   H1259     1.0  0.21145  0.35893  0.10010  1.0000
  H   H1260     1.0  0.23483  0.35354  0.11494  1.0000
  H   H1261     1.0  0.23081  0.36563  0.10524  1.0000
  H   H1262     1.0  0.21579  0.37385  0.11906  1.0000
  H   H1263     1.0  0.20516  0.36671  0.12742  1.0000
  H   H1264     1.0  0.20577  0.34805  0.12672  1.0000
  H   H1265     1.0  0.21229  0.34330  0.11423  1.0000
  H   H1266     1.0  0.19463  0.37391  0.11503  1.0000
  H   H1267     1.0  0.22992  0.35529  0.09236  1.0000
  H   H1268     1.0  0.24237  0.34894  0.09750  1.0000
  H   H1269     1.0  0.23067  0.34229  0.10263  1.0000
  H   H1270     1.0  0.21803  0.36759  0.13800  1.0000
  H   H1271     1.0  0.22958  0.35953  0.13025  1.0000
  H   H1272     1.0  0.21764  0.35362  0.13874  1.0000
  H   H1273     1.0  0.21805  0.33340  0.13430  1.0000
  H   H1274     1.0  0.22892  0.34089  0.12841  1.0000
  H   H1275     1.0  0.22681  0.33147  0.12131  1.0000
  C   C757      1.0  0.26945  0.38622  0.12654  1.0000
  H   H1276     1.0  0.31049  0.38608  0.05782  1.0000
  H   H1277     1.0  0.24256  0.40621  0.15622  1.0000
  H   H1278     1.0  0.46821  0.25804  0.12089  1.0000
  C   C758      1.0  0.25521  0.36391  0.02123  1.0000
  N   N56       1.0  0.31295  0.39927  0.06402  1.0000
  H   H1279     1.0  0.47186  0.27697  0.11413  1.0000
  C   C759      1.0  0.30144  0.39968  0.07144  1.0000
  C   C760      1.0  0.32179  0.39169  0.07016  1.0000
  C   C761      1.0  0.31551  0.41070  0.05921  1.0000
  H   H1280     1.0  0.18451  0.47250  0.09185  1.0000
  C   C762      1.0  0.29171  0.40791  0.06657  1.0000
  H   H1281     1.0  0.32213  0.38277  0.07049  1.0000
  C   C763      1.0  0.31418  0.41806  0.06745  1.0000
  N   N57       1.0  0.24052  0.37649  0.00970  1.0000
  Fe  Fe123     1.0  0.11455  0.40003  0.22621  1.0000
  H   H1282     1.0  0.30095  0.40187  0.07934  1.0000
  H   H1283     1.0  0.29939  0.39131  0.07394  1.0000
  H   H1284     1.0  0.46117  0.24535  0.14896  1.0000
  H   H1285     1.0  0.22880  0.45488  0.99758  1.0000
  H   H1286     1.0  0.32432  0.41006  0.05443  1.0000
  H   H1287     1.0  0.31048  0.41557  0.05289  1.0000
  H   H1288     1.0  0.48300  0.27366  0.12125  1.0000
  H   H1289     1.0  0.18694  0.44290  0.08266  1.0000
  C   C764      1.0  0.15397  0.41321  0.20983  1.0000
  H   H1290     1.0  0.28383  0.40719  0.07285  1.0000
  H   H1291     1.0  0.29254  0.41668  0.06484  1.0000
  C   C765      1.0  0.32453  0.39204  0.04636  1.0000
  C   C766      1.0  0.45344  0.24194  0.04740  1.0000
  N   N58       1.0  0.38711  0.24932  0.99582  1.0000
  C   C767      1.0  0.32050  0.39229  0.08232  1.0000
  H   H1292     1.0  0.32213  0.41674  0.07016  1.0000
  H   H1293     1.0  0.30734  0.41687  0.07482  1.0000
  H   H1294     1.0  0.31181  0.42698  0.06337  1.0000
  C   C768      1.0  0.26211  0.45628  0.99017  1.0000
  H   H1295     1.0  0.38076  0.25993  0.00785  1.0000
  H   H1296     1.0  0.39541  0.25422  0.12258  1.0000
  H   H1297     1.0  0.03749  0.45408  0.21304  1.0000
  H   H1298     1.0  0.49469  0.25909  0.12888  1.0000
  C   C769      1.0  0.38847  0.26981  0.99320  1.0000
  H   H1299     1.0  0.18012  0.45596  0.10035  1.0000
  H   H1300     1.0  0.39771  0.25971  0.06729  1.0000
  H   H1301     1.0  0.39031  0.24907  0.08870  1.0000
  C   C770      1.0  0.24492  0.47449  0.14448  1.0000
  H   H1302     1.0  0.06908  0.44622  0.19581  1.0000
  H   H1303     1.0  0.18218  0.45723  0.08119  1.0000
  C   C771      1.0  0.38945  0.25264  0.11887  1.0000
  C   C772      1.0  0.06175  0.44444  0.20254  1.0000
  C   C773      1.0  0.05974  0.45181  0.21097  1.0000
  H   H1304     1.0  0.26940  0.46320  0.12071  1.0000
  C   C774      1.0  0.16248  0.41551  0.19875  1.0000
  C   C775      1.0  0.40883  0.24742  0.98992  1.0000
  H   H1305     1.0  0.17594  0.41380  0.98803  1.0000
  H   H1306     1.0  0.38862  0.24422  0.07315  1.0000
  H   H1307     1.0  0.30706  0.39958  0.04946  1.0000
  C   C776      1.0  0.24491  0.44651  0.00986  1.0000
  C   C777      1.0  0.37386  0.24853  0.10953  1.0000
  H   H1308     1.0  0.41917  0.24136  0.07342  1.0000
  S   S237      1.0  0.45019  0.24723  0.12295  1.0000
  C   C778      1.0  0.23449  0.47775  0.12480  1.0000
  H   H1309     1.0  0.16967  0.39797  0.98844  1.0000
  H   H1310     1.0  0.27801  0.46173  0.13009  1.0000
  C   C779      1.0  0.19701  0.45185  0.06898  1.0000
  N   N59       1.0  0.33080  0.30190  0.07641  1.0000
  C   C780      1.0  0.34277  0.30321  0.07159  1.0000
  C   C781      1.0  0.33028  0.29542  0.08824  1.0000
  C   C782      1.0  0.32338  0.31344  0.07608  1.0000
  C   C783      1.0  0.32787  0.29585  0.06934  1.0000
  C   C784      1.0  0.34489  0.31117  0.06011  1.0000
  C   C785      1.0  0.33664  0.28313  0.08969  1.0000
  C   C786      1.0  0.31189  0.31460  0.08424  1.0000
  C   C787      1.0  0.31640  0.29250  0.07337  1.0000
  H   H1311     1.0  0.34584  0.30635  0.07727  1.0000
  H   H1312     1.0  0.34854  0.29507  0.07067  1.0000
  H   H1313     1.0  0.32157  0.29520  0.09288  1.0000
  H   H1314     1.0  0.33352  0.29961  0.09292  1.0000
  H   H1315     1.0  0.32770  0.31909  0.07782  1.0000
  H   H1316     1.0  0.32175  0.31728  0.06760  1.0000
  H   H1317     1.0  0.32788  0.30103  0.06084  1.0000
  H   H1318     1.0  0.33447  0.28826  0.06791  1.0000
  H   H1319     1.0  0.34035  0.31988  0.06032  1.0000
  H   H1320     1.0  0.35393  0.31140  0.05756  1.0000
  H   H1321     1.0  0.34291  0.30830  0.05358  1.0000
  H   H1322     1.0  0.33601  0.27941  0.09868  1.0000
  H   H1323     1.0  0.33297  0.27812  0.08633  1.0000
  H   H1324     1.0  0.34566  0.28221  0.08586  1.0000
  H   H1325     1.0  0.31283  0.31310  0.09292  1.0000
  H   H1326     1.0  0.30668  0.30917  0.08372  1.0000
  H   H1327     1.0  0.30981  0.29924  0.06996  1.0000
  H   H1328     1.0  0.31373  0.29023  0.08249  1.0000
  H   H1329     1.0  0.31697  0.28486  0.07048  1.0000
  H   H1330     1.0  0.25135  0.47867  0.11574  1.0000
  C   C788      1.0  0.25427  0.38970  0.00389  1.0000
  H   H1331     1.0  0.20171  0.44356  0.06723  1.0000
  H   H1332     1.0  0.18740  0.40163  0.98744  1.0000
  H   H1333     1.0  0.26524  0.45690  0.13519  1.0000
  H   H1334     1.0  0.06884  0.42716  0.22287  1.0000
  H   H1335     1.0  0.16614  0.38640  0.22191  1.0000
  H   H1336     1.0  0.15780  0.37770  0.21479  1.0000
  H   H1337     1.0  0.31366  0.38825  0.08783  1.0000
  H   H1338     1.0  0.27104  0.48474  0.09763  1.0000
  H   H1339     1.0  0.26023  0.35524  0.02262  1.0000
  H   H1340     1.0  0.43550  0.26062  0.04517  1.0000
  C   C789      1.0  0.23505  0.37131  0.99393  1.0000
  H   H1341     1.0  0.15783  0.39538  0.20019  1.0000
  H   H1342     1.0  0.25752  0.39473  0.00764  1.0000
  H   H1343     1.0  0.42221  0.26133  0.02710  1.0000
  H   H1344     1.0  0.24502  0.38446  0.02044  1.0000
  H   H1345     1.0  0.14757  0.38053  0.20667  1.0000
  H   H1346     1.0  0.26109  0.38246  0.00209  1.0000
  H   H1347     1.0  0.29067  0.40594  0.05906  1.0000
  H   H1348     1.0  0.36779  0.24698  0.10593  1.0000
  C   C790      1.0  0.15145  0.39559  0.20808  1.0000
  C   C791      1.0  0.40149  0.25254  0.06325  1.0000
  H   H1349     1.0  0.05448  0.44639  0.19858  1.0000
  N   N60       1.0  0.43054  0.27667  0.03442  1.0000
  C   C792      1.0  0.43428  0.26964  0.04487  1.0000
  C   C793      1.0  0.41881  0.27536  0.03537  1.0000
  C   C794      1.0  0.43060  0.28865  0.03384  1.0000
  C   C795      1.0  0.43874  0.27256  0.02468  1.0000
  C   C796      1.0  0.44528  0.27118  0.04670  1.0000
  C   C797      1.0  0.41779  0.26365  0.03516  1.0000
  C   C798      1.0  0.42279  0.29786  0.02715  1.0000
  C   C799      1.0  0.43593  0.27776  0.01315  1.0000
  H   H1350     1.0  0.42768  0.27129  0.05234  1.0000
  H   H1351     1.0  0.26753  0.48112  0.12433  1.0000
  H   H1352     1.0  0.41486  0.28111  0.02864  1.0000
  H   H1353     1.0  0.41319  0.27767  0.04314  1.0000
  H   H1354     1.0  0.42808  0.29044  0.04227  1.0000
  H   H1355     1.0  0.43923  0.29023  0.03052  1.0000
  H   H1356     1.0  0.44717  0.27402  0.02398  1.0000
  H   H1357     1.0  0.44029  0.26335  0.02592  1.0000
  H   H1358     1.0  0.46864  0.27381  0.12893  1.0000
  H   H1359     1.0  0.45256  0.26909  0.03997  1.0000
  C   C800      1.0  0.20575  0.44031  0.08979  1.0000
  H   H1360     1.0  0.40881  0.26365  0.03622  1.0000
  H   H1361     1.0  0.06368  0.43542  0.20618  1.0000
  H   H1362     1.0  0.42090  0.25713  0.04196  1.0000
  H   H1363     1.0  0.42466  0.30605  0.02654  1.0000
  H   H1364     1.0  0.41387  0.29834  0.03154  1.0000
  H   H1365     1.0  0.42388  0.29684  0.01861  1.0000
  H   H1366     1.0  0.43926  0.28545  0.00930  1.0000
  H   H1367     1.0  0.42689  0.27958  0.01324  1.0000
  H   H1368     1.0  0.43984  0.27165  0.00773  1.0000
  N   N61       1.0  0.25720  0.40565  0.12885  1.0000
  C   C801      1.0  0.26883  0.39858  0.12614  1.0000
  C   C802      1.0  0.25838  0.41755  0.12646  1.0000
  C   C803      1.0  0.25063  0.40464  0.12110  1.0000
  C   C804      1.0  0.26586  0.41980  0.13294  1.0000
  C   C805      1.0  0.23919  0.41274  0.12079  1.0000
  H   H1369     1.0  0.27331  0.40212  0.11774  1.0000
  H   H1370     1.0  0.27402  0.39854  0.13189  1.0000
  H   H1371     1.0  0.25012  0.42332  0.12803  1.0000
  H   H1372     1.0  0.26189  0.42042  0.11745  1.0000
  H   H1373     1.0  0.25564  0.40581  0.11241  1.0000
  H   H1374     1.0  0.26391  0.41591  0.14189  1.0000
  H   H1375     1.0  0.27487  0.41683  0.12940  1.0000
  H   H1376     1.0  0.26446  0.42894  0.13214  1.0000
  H   H1377     1.0  0.23506  0.41049  0.11534  1.0000
  H   H1378     1.0  0.24001  0.42151  0.11722  1.0000
  H   H1379     1.0  0.31903  0.40084  0.08354  1.0000
  H   H1380     1.0  0.23052  0.37885  0.03216  1.0000
  S   S238      1.0  0.47247  0.25148  0.07373  1.0000
  N   N62       1.0  0.15457  0.40111  0.21553  1.0000
  C   C806      1.0  0.31314  0.39423  0.05456  1.0000
  S   S239      1.0  0.09618  0.40566  0.22618  1.0000
  S   S240      1.0  0.04026  0.41954  0.21245  1.0000
  H   H1381     1.0  0.23865  0.45737  0.02159  1.0000
  C   C807      1.0  0.19210  0.47173  0.08510  1.0000
  H   H1382     1.0  0.41357  0.26918  0.09609  1.0000
  H   H1383     1.0  0.19619  0.47866  0.08432  1.0000
  H   H1384     1.0  0.46185  0.24357  0.05924  1.0000
  H   H1385     1.0  0.26120  0.36949  0.01899  1.0000
  H   H1386     1.0  0.27832  0.38161  0.12583  1.0000
  H   H1387     1.0  0.19315  0.37009  0.10329  1.0000
  H   H1388     1.0  0.20359  0.46080  0.09491  1.0000
  C   C808      1.0  0.07144  0.40120  0.21527  1.0000
  H   H1389     1.0  0.17767  0.43870  0.11343  1.0000
  S   S241      1.0  0.44788  0.25182  0.09166  1.0000
  H   H1390     1.0  0.23417  0.40895  0.14627  1.0000
  C   C809      1.0  0.22763  0.37290  0.02929  1.0000
  H   H1391     1.0  0.39054  0.27121  0.98403  1.0000
  C   C810      1.0  0.14994  0.38347  0.21295  1.0000
  H   H1392     1.0  0.32353  0.38816  0.04000  1.0000
  C   C811      1.0  0.41659  0.26545  0.10392  1.0000
  H   H1393     1.0  0.20702  0.43659  0.10737  1.0000
  H   H1394     1.0  0.26335  0.45484  0.99869  1.0000
  H   H1395     1.0  0.05741  0.46055  0.20632  1.0000
  H   H1396     1.0  0.25568  0.43430  0.98731  1.0000
  N   N63       1.0  0.42132  0.28312  0.10651  1.0000
  C   C812      1.0  0.43115  0.28880  0.10208  1.0000
  C   C813      1.0  0.41249  0.28955  0.09992  1.0000
  H   H1397     1.0  0.38322  0.27776  0.99536  1.0000
  H   H1398     1.0  0.20296  0.43258  0.09038  1.0000
  C   C814      1.0  0.44183  0.28275  0.10664  1.0000
  C   C815      1.0  0.40755  0.30173  0.10108  1.0000
  C   C816      1.0  0.38011  0.25407  0.04618  1.0000
  C   C817      1.0  0.03147  0.44483  0.22939  1.0000
  H   H1399     1.0  0.43367  0.29001  0.09286  1.0000
  H   H1400     1.0  0.42890  0.29728  0.10386  1.0000
  H   H1401     1.0  0.40523  0.28553  0.10207  1.0000
  H   H1402     1.0  0.41592  0.28964  0.09092  1.0000
  H   H1403     1.0  0.43171  0.27115  0.09680  1.0000
  H   H1404     1.0  0.22886  0.45851  0.01351  1.0000
  C   C818      1.0  0.25206  0.40122  0.14085  1.0000
  H   H1405     1.0  0.41631  0.29151  0.12037  1.0000
  H   H1406     1.0  0.23344  0.41206  0.12900  1.0000
  H   H1407     1.0  0.24863  0.39385  0.14157  1.0000
  H   H1408     1.0  0.44853  0.28749  0.10234  1.0000
  H   H1409     1.0  0.40368  0.30234  0.10982  1.0000
  H   H1410     1.0  0.41383  0.30702  0.09746  1.0000
  H   H1411     1.0  0.40077  0.30531  0.09636  1.0000
  C   C819      1.0  0.26915  0.46358  0.12931  1.0000
  C   C820      1.0  0.05445  0.41272  0.20942  1.0000
  H   H1412     1.0  0.25853  0.39777  0.14599  1.0000
  C   C821      1.0  0.24254  0.40911  0.14723  1.0000
  C   C822      1.0  0.05994  0.40605  0.21786  1.0000
  H   H1413     1.0  0.22581  0.37255  0.99691  1.0000
  H   H1414     1.0  0.23459  0.38781  0.99548  1.0000
  H   H1415     1.0  0.33028  0.39316  0.06568  1.0000
  C   C823      1.0  0.41733  0.28313  0.11871  1.0000
  H   H1416     1.0  0.40938  0.26556  0.11104  1.0000
  C   C824      1.0  0.40654  0.27883  0.12476  1.0000
  C   C825      1.0  0.18380  0.43818  0.10543  1.0000
  H   H1417     1.0  0.44514  0.27426  0.10496  1.0000
  H   H1418     1.0  0.17211  0.39407  0.20922  1.0000
  H   H1419     1.0  0.07567  0.39614  0.22181  1.0000
  H   H1420     1.0  0.19131  0.45069  0.10725  1.0000
  C   C826      1.0  0.25270  0.43426  0.99633  1.0000
  H   H1421     1.0  0.25320  0.44532  0.01180  1.0000
  C   C827      1.0  0.21236  0.43803  0.09894  1.0000
  H   H1422     1.0  0.42384  0.27780  0.12333  1.0000
  H   H1423     1.0  0.15518  0.41817  0.21512  1.0000
  C   C828      1.0  0.19002  0.45066  0.08098  1.0000
  C   C829      1.0  0.20048  0.46059  0.08765  1.0000
  C   C830      1.0  0.24721  0.47495  0.12429  1.0000
  H   H1424     1.0  0.22274  0.38317  0.01436  1.0000
  H   H1425     1.0  0.21894  0.43032  0.09841  1.0000
  H   H1426     1.0  0.14343  0.40046  0.20567  1.0000
  C   C831      1.0  0.24898  0.36565  0.01186  1.0000
  C   C832      1.0  0.09179  0.44253  0.23256  1.0000
  H   H1427     1.0  0.42055  0.25657  0.10379  1.0000
  C   C833      1.0  0.23979  0.37932  0.99764  1.0000
  C   C834      1.0  0.23414  0.44652  0.99679  1.0000
  H   H1428     1.0  0.40841  0.26962  0.12765  1.0000
  H   H1429     1.0  0.14540  0.41716  0.20824  1.0000
  H   H1430     1.0  0.36975  0.25095  0.06265  1.0000
  H   H1431     1.0  0.25569  0.36459  0.00430  1.0000
  H   H1432     1.0  0.23181  0.36421  0.03246  1.0000
  H   H1433     1.0  0.23670  0.39364  0.01137  1.0000
  C   C835      1.0  0.23791  0.45753  0.01310  1.0000
  H   H1434     1.0  0.24743  0.42788  0.99972  1.0000
  H   H1435     1.0  0.26884  0.43505  0.99949  1.0000
  C   C836      1.0  0.04110  0.44706  0.21929  1.0000
  H   H1436     1.0  0.18085  0.39776  0.22100  1.0000
  H   H1437     1.0  0.04235  0.46684  0.22052  1.0000
  H   H1438     1.0  0.39811  0.25467  0.05564  1.0000
  C   C837      1.0  0.47573  0.25321  0.14147  1.0000
  H   H1439     1.0  0.38134  0.24568  0.04506  1.0000
  Fe  Fe124     1.0  0.45759  0.24820  0.10483  1.0000
  H   H1440     1.0  0.24551  0.45770  0.14182  1.0000
  C   C838      1.0  0.21457  0.39772  0.98600  1.0000
  H   H1441     1.0  0.18970  0.47294  0.07708  1.0000
  H   H1442     1.0  0.05538  0.40472  0.22638  1.0000
  H   H1443     1.0  0.16124  0.41195  0.19230  1.0000
  H   H1444     1.0  0.22993  0.44044  0.00352  1.0000
  H   H1445     1.0  0.05451  0.42662  0.22378  1.0000
  H   H1446     1.0  0.26588  0.47603  0.13888  1.0000
  H   H1447     1.0  0.25301  0.45760  0.15202  1.0000
  H   H1448     1.0  0.14802  0.39163  0.23180  1.0000
  C   C839      1.0  0.40619  0.25268  0.08785  1.0000
  H   H1449     1.0  0.40794  0.25781  0.07939  1.0000
  N   N64       1.0  0.25078  0.47871  0.13275  1.0000
  C   C840      1.0  0.24556  0.46182  0.14836  1.0000
  H   H1450     1.0  0.26780  0.42163  0.99871  1.0000
  C   C841      1.0  0.05602  0.46464  0.22842  1.0000
  C   C842      1.0  0.38189  0.26053  0.99881  1.0000
  H   H1451     1.0  0.25220  0.39505  0.99598  1.0000
  C   C843      1.0  0.04698  0.46002  0.22620  1.0000
  C   C844      1.0  0.18462  0.41055  0.98378  1.0000
  C   C845      1.0  0.37938  0.24151  0.00233  1.0000
  H   H1452     1.0  0.23590  0.47875  0.14615  1.0000
  H   H1453     1.0  0.40817  0.25643  0.98639  1.0000
  H   H1454     1.0  0.45901  0.25944  0.15074  1.0000
  H   H1455     1.0  0.24462  0.46299  0.98953  1.0000
  H   H1456     1.0  0.23793  0.46032  0.15479  1.0000
  H   H1457     1.0  0.06400  0.44237  0.23106  1.0000
  Fe  Fe125     1.0  0.03131  0.41372  0.22994  1.0000
  H   H1458     1.0  0.01701  0.37132  0.23026  1.0000
  H   H1459     1.0  0.47932  0.24665  0.14804  1.0000
  C   C846      1.0  0.39902  0.24424  0.08900  1.0000
  H   H1460     1.0  0.22973  0.47413  0.13301  1.0000
  H   H1461     1.0  0.24833  0.47677  0.15048  1.0000
  S   S242      1.0  0.42147  0.24101  0.01610  1.0000
  C   C847      1.0  0.22612  0.41076  0.98418  1.0000
  H   H1462     1.0  0.45864  0.25719  0.13789  1.0000
  H   H1463     1.0  0.47743  0.26096  0.14247  1.0000
  H   H1464     1.0  0.41630  0.24445  0.99370  1.0000
  H   H1465     1.0  0.13764  0.40087  0.22488  1.0000
  H   H1466     1.0  0.13991  0.41701  0.22964  1.0000
  H   H1467     1.0  0.06280  0.46621  0.22102  1.0000
  S   S243      1.0  0.44264  0.24017  0.03243  1.0000
  C   C848      1.0  0.38802  0.24171  0.12058  1.0000
  H   H1468     1.0  0.37137  0.24400  0.99937  1.0000
  H   H1469     1.0  0.23910  0.36246  0.99664  1.0000
  H   H1470     1.0  0.23291  0.47398  0.11866  1.0000
  H   H1471     1.0  0.02689  0.45249  0.23252  1.0000
  C   C849      1.0  0.06012  0.42858  0.22784  1.0000
  C   C850      1.0  0.49366  0.25097  0.12807  1.0000
  H   H1472     1.0  0.22432  0.44487  0.98605  1.0000
  C   C851      1.0  0.05634  0.44042  0.23012  1.0000
  H   H1473     1.0  0.41424  0.24857  0.09043  1.0000
  C   C852      1.0  0.23322  0.44473  0.98564  1.0000
  H   H1474     1.0  0.02528  0.44187  0.22684  1.0000
  H   H1475     1.0  0.23116  0.48684  0.12248  1.0000
  H   H1476     1.0  0.19012  0.41500  0.98560  1.0000
  H   H1477     1.0  0.23810  0.43652  0.98394  1.0000
  H   H1478     1.0  0.23658  0.37325  0.98472  1.0000
  H   H1479     1.0  0.49783  0.25038  0.11939  1.0000
  H   H1480     1.0  0.38352  0.24004  0.01846  1.0000
  C   C853      1.0  0.38762  0.25047  0.98366  1.0000
  H   H1481     1.0  0.41066  0.24296  0.98310  1.0000
  C   C854      1.0  0.38017  0.23965  0.11595  1.0000
  C   C855      1.0  0.16338  0.40165  0.98325  1.0000
  H   H1482     1.0  0.47092  0.23956  0.13108  1.0000
  H   H1483     1.0  0.43544  0.23972  0.11407  1.0000
  Fe  Fe126     1.0  0.08820  0.36533  0.29597  1.0000
  S   S244      1.0  0.09784  0.36660  0.30767  1.0000
  S   S245      1.0  0.09562  0.35860  0.28042  1.0000
  Fe  Fe127     1.0  0.06596  0.37570  0.30909  1.0000
  S   S246      1.0  0.07352  0.37787  0.32211  1.0000
  S   S247      1.0  0.04797  0.38219  0.30765  1.0000
  Fe  Fe128     1.0  0.08680  0.38360  0.30771  1.0000
  S   S248      1.0  0.09396  0.39867  0.30473  1.0000
  Fe  Fe129     1.0  0.08388  0.36061  0.32115  1.0000
  S   S249      1.0  0.08904  0.34820  0.33622  1.0000
  S   S250      1.0  0.07842  0.38284  0.29479  1.0000
  S   S251      1.0  0.07505  0.35792  0.30940  1.0000
  C   C856      1.0  0.10149  0.33519  0.30601  1.0000
  Fe  Fe130     1.0  0.07784  0.28329  0.39050  1.0000
  S   S252      1.0  0.08525  0.26502  0.39287  1.0000
  S   S253      1.0  0.06885  0.29056  0.40543  1.0000
  Fe  Fe131     1.0  0.08370  0.28724  0.36535  1.0000
  S   S254      1.0  0.09173  0.26919  0.36559  1.0000
  S   S255      1.0  0.08107  0.29902  0.34906  1.0000
  Fe  Fe132     1.0  0.07699  0.26565  0.37927  1.0000
  S   S256      1.0  0.06921  0.25161  0.37972  1.0000
  Fe  Fe133     1.0  0.09929  0.27007  0.37915  1.0000
  S   S257      1.0  0.11736  0.26253  0.37984  1.0000
  S   S258      1.0  0.06828  0.28355  0.37803  1.0000
  S   S259      1.0  0.09259  0.28852  0.37778  1.0000
  Fe  Fe134     1.0  0.03428  0.39722  0.25119  1.0000
  H   H1484     1.0  0.06616  0.43029  0.26153  1.0000
  S   S260      1.0  0.04717  0.38336  0.25834  1.0000
  Fe  Fe135     1.0  0.01982  0.42023  0.25180  1.0000
  H   H1485     1.0  0.01462  0.42792  0.28588  1.0000
  S   S261      1.0  0.01328  0.43376  0.26151  1.0000
  Fe  Fe136     1.0  0.01175  0.40345  0.24441  1.0000
  H   H1486     1.0  0.09706  0.34081  0.31191  1.0000
  S   S262      1.0  0.01674  0.40316  0.26002  1.0000
  S   S263      1.0  0.03786  0.41426  0.24431  1.0000
  Fe  Fe137     1.0  0.06078  0.45558  0.29060  1.0000
  S   S264      1.0  0.06594  0.44973  0.27462  1.0000
  S   S265      1.0  0.05653  0.44290  0.30617  1.0000
  C   C857      1.0  0.01828  0.35286  0.26315  1.0000
  H   H1487     1.0  0.01390  0.36694  0.27759  1.0000
  Fe  Fe138     1.0  0.05472  0.46565  0.26825  1.0000
  S   S266      1.0  0.04383  0.46718  0.25646  1.0000
  Fe  Fe139     1.0  0.07893  0.45994  0.27046  1.0000
  S   S267      1.0  0.09636  0.45273  0.26215  1.0000
  S   S268      1.0  0.04828  0.47080  0.28462  1.0000
  S   S269      1.0  0.07478  0.46455  0.28701  1.0000
  H   H1488     1.0  0.10837  0.30012  0.32903  1.0000
  H   H1489     1.0  0.04913  0.24260  0.41581  1.0000
  S   S270      1.0  0.02127  0.25049  0.41084  1.0000
  Fe  Fe140     1.0  0.08530  0.26150  0.45934  1.0000
  S   S271      1.0  0.09406  0.27313  0.44525  1.0000
  H   H1490     1.0  0.10534  0.34064  0.29833  1.0000
  H   H1491     1.0  0.12272  0.34446  0.31702  1.0000
  S   S272      1.0  0.05005  0.25261  0.45945  1.0000
  C   C858      1.0  0.02214  0.44249  0.26083  1.0000
  C   C859      1.0  0.03383  0.43885  0.25899  1.0000
  C   C860      1.0  0.04057  0.44619  0.25852  1.0000
  C   C861      1.0  0.03564  0.45721  0.25955  1.0000
  C   C862      1.0  0.02398  0.46073  0.26149  1.0000
  C   C863      1.0  0.01725  0.45334  0.26235  1.0000
  H   H1492     1.0  0.03764  0.43044  0.25792  1.0000
  H   H1493     1.0  0.04958  0.44353  0.25687  1.0000
  H   H1494     1.0  0.02014  0.46928  0.26213  1.0000
  H   H1495     1.0  0.00823  0.45617  0.26383  1.0000
  H   H1496     1.0  0.00829  0.34813  0.25425  1.0000
  C   C864      1.0  0.05554  0.25188  0.38781  1.0000
  C   C865      1.0  0.04953  0.26092  0.39270  1.0000
  C   C866      1.0  0.03877  0.26071  0.39943  1.0000
  C   C867      1.0  0.03418  0.25131  0.40156  1.0000
  C   C868      1.0  0.08716  0.45580  0.24435  1.0000
  H   H1497     1.0  0.12127  0.46151  0.26034  1.0000
  H   H1498     1.0  0.05315  0.26805  0.39132  1.0000
  H   H1499     1.0  0.03413  0.26767  0.40324  1.0000
  H   H1500     1.0  0.08215  0.46348  0.24659  1.0000
  C   C869      1.0  0.07111  0.24203  0.41000  1.0000
  C   C870      1.0  0.07607  0.28526  0.41632  1.0000
  C   C871      1.0  0.07084  0.27972  0.42664  1.0000
  C   C872      1.0  0.07641  0.27581  0.43550  1.0000
  C   C873      1.0  0.08710  0.27772  0.43415  1.0000
  C   C874      1.0  0.09231  0.28331  0.42384  1.0000
  C   C875      1.0  0.08687  0.28695  0.41489  1.0000
  H   H1501     1.0  0.06248  0.27843  0.42780  1.0000
  H   H1502     1.0  0.07230  0.27149  0.44342  1.0000
  H   H1503     1.0  0.10059  0.28478  0.42275  1.0000
  H   H1504     1.0  0.09093  0.29126  0.40694  1.0000
  C   C876      1.0  0.12437  0.24285  0.41448  1.0000
  C   C877      1.0  0.12129  0.24803  0.38449  1.0000
  H   H1505     1.0  0.12450  0.26068  0.40759  1.0000
  H   H1506     1.0  0.13888  0.24803  0.37878  1.0000
  H   H1507     1.0  0.10455  0.24539  0.39125  1.0000
  H   H1508     1.0  0.02270  0.34006  0.25300  1.0000
  C   C878      1.0  0.09522  0.44914  0.25032  1.0000
  C   C879      1.0  0.13270  0.24301  0.38293  1.0000
  H   H1509     1.0  0.12146  0.24236  0.40727  1.0000
  H   H1510     1.0  0.01256  0.33768  0.26552  1.0000
  C   C880      1.0  0.08631  0.33473  0.34000  1.0000
  C   C881      1.0  0.07896  0.33189  0.33536  1.0000
  C   C882      1.0  0.07733  0.32091  0.33831  1.0000
  C   C883      1.0  0.08295  0.31277  0.34595  1.0000
  C   C884      1.0  0.09022  0.31564  0.35064  1.0000
  C   C885      1.0  0.09186  0.32661  0.34769  1.0000
  H   H1511     1.0  0.07462  0.33811  0.32947  1.0000
  H   H1512     1.0  0.07172  0.31870  0.33462  1.0000
  H   H1513     1.0  0.09472  0.30937  0.35639  1.0000
  H   H1514     1.0  0.09760  0.32877  0.35124  1.0000
  C   C886      1.0  0.04731  0.38189  0.29424  1.0000
  C   C887      1.0  0.03779  0.38770  0.29000  1.0000
  C   C888      1.0  0.03770  0.38832  0.27892  1.0000
  C   C889      1.0  0.04699  0.38276  0.27221  1.0000
  C   C890      1.0  0.05633  0.37659  0.27659  1.0000
  C   C891      1.0  0.05651  0.37621  0.28755  1.0000
  H   H1515     1.0  0.03054  0.39182  0.29525  1.0000
  H   H1516     1.0  0.03043  0.39300  0.27565  1.0000
  H   H1517     1.0  0.06350  0.37219  0.27147  1.0000
  H   H1518     1.0  0.06377  0.37141  0.29082  1.0000
  C   C892      1.0  0.08356  0.41092  0.30537  1.0000
  C   C893      1.0  0.08564  0.42097  0.29829  1.0000
  C   C894      1.0  0.07735  0.43079  0.29852  1.0000
  C   C895      1.0  0.06706  0.43067  0.30607  1.0000
  C   C896      1.0  0.06507  0.42067  0.31333  1.0000
  C   C897      1.0  0.07324  0.41076  0.31284  1.0000
  H   H1519     1.0  0.09364  0.42115  0.29254  1.0000
  H   H1520     1.0  0.07901  0.43849  0.29296  1.0000
  H   H1521     1.0  0.05719  0.42053  0.31927  1.0000
  H   H1522     1.0  0.07163  0.40304  0.31840  1.0000
  C   C898      1.0  0.10252  0.36783  0.26955  1.0000
  C   C899      1.0  0.10857  0.37432  0.27180  1.0000
  C   C900      1.0  0.11445  0.38131  0.26305  1.0000
  C   C901      1.0  0.11400  0.38214  0.25204  1.0000
  S   S273      1.0  0.08224  0.24676  0.45542  1.0000
  C   C902      1.0  0.10217  0.36855  0.25853  1.0000
  H   H1523     1.0  0.10890  0.37380  0.28028  1.0000
  H   H1524     1.0  0.11928  0.38616  0.26485  1.0000
  C   C903      1.0  0.11334  0.24149  0.38996  1.0000
  H   H1525     1.0  0.09748  0.36355  0.25676  1.0000
  N   N65       1.0  0.07717  0.29501  0.47431  1.0000
  N   N66       1.0  0.10424  0.48099  0.26782  1.0000
  C   C904      1.0  0.07275  0.24885  0.43016  1.0000
  C   C905      1.0  0.10923  0.47741  0.25687  1.0000
  H   H1526     1.0  0.10651  0.24716  0.44724  1.0000
  S   S274      1.0  0.06787  0.26623  0.46913  1.0000
  S   S275      1.0  0.02921  0.39609  0.23617  1.0000
  C   C906      1.0  0.10209  0.25911  0.41383  1.0000
  H   H1527     1.0  0.03987  0.35213  0.25302  1.0000
  C   C907      1.0  0.11066  0.48900  0.26871  1.0000
  N   N67       1.0  0.03391  0.42530  0.29487  1.0000
  C   C908      1.0  0.03162  0.41845  0.28813  1.0000
  C   C909      1.0  0.04648  0.42377  0.29277  1.0000
  C   C910      1.0  0.02850  0.43735  0.29083  1.0000
  C   C911      1.0  0.02884  0.42119  0.30690  1.0000
  C   C912      1.0  0.01917  0.41924  0.28848  1.0000
  C   C913      1.0  0.05299  0.41190  0.29701  1.0000
  C   C914      1.0  0.03345  0.44641  0.29249  1.0000
  C   C915      1.0  0.03109  0.42635  0.31544  1.0000
  H   H1528     1.0  0.03575  0.42079  0.27924  1.0000
  H   H1529     1.0  0.03520  0.40948  0.29088  1.0000
  H   H1530     1.0  0.04893  0.42929  0.29659  1.0000
  H   H1531     1.0  0.04999  0.42636  0.28374  1.0000
  H   H1532     1.0  0.02892  0.43919  0.28175  1.0000
  H   H1533     1.0  0.01940  0.43909  0.29472  1.0000
  H   H1534     1.0  0.01956  0.42284  0.30824  1.0000
  H   H1535     1.0  0.03125  0.41193  0.30944  1.0000
  S   S276      1.0  0.01331  0.42118  0.23684  1.0000
  C   C916      1.0  0.10000  0.43591  0.23840  1.0000
  H   H1536     1.0  0.13738  0.25133  0.40374  1.0000
  H   H1537     1.0  0.05030  0.40899  0.30610  1.0000
  H   H1538     1.0  0.05245  0.40569  0.29270  1.0000
  H   H1539     1.0  0.06201  0.41200  0.29542  1.0000
  H   H1540     1.0  0.04189  0.44661  0.28707  1.0000
  H   H1541     1.0  0.03385  0.44549  0.30121  1.0000
  H   H1542     1.0  0.02806  0.45471  0.28998  1.0000
  H   H1543     1.0  0.02465  0.43402  0.31673  1.0000
  H   H1544     1.0  0.03948  0.42828  0.31327  1.0000
  H   H1545     1.0  0.03088  0.42021  0.32348  1.0000
  H   H1546     1.0  0.03285  0.36433  0.26541  1.0000
  H   H1547     1.0  0.04729  0.36179  0.23361  1.0000
  Fe  Fe141     1.0  0.06279  0.47939  0.27956  1.0000
  H   H1548     1.0  0.11331  0.32154  0.28753  1.0000
  S   S277      1.0  0.12168  0.39082  0.24131  1.0000
  H   H1549     1.0  0.08758  0.48883  0.27575  1.0000
  C   C917      1.0  0.04608  0.24086  0.45829  1.0000
  C   C918      1.0  0.09209  0.33168  0.30310  1.0000
  H   H1550     1.0  0.11866  0.48434  0.27128  1.0000
  H   H1551     1.0  0.01893  0.37943  0.27356  1.0000
  H   H1552     1.0  0.02859  0.37658  0.25566  1.0000
  H   H1553     1.0  0.05960  0.45908  0.23549  1.0000
  C   C919      1.0  0.02574  0.36911  0.26131  1.0000
  C   C920      1.0  0.05078  0.24264  0.38975  1.0000
  H   H1554     1.0  0.12182  0.32441  0.32137  1.0000
  H   H1555     1.0  0.07162  0.25535  0.42261  1.0000
  H   H1556     1.0  0.12703  0.47376  0.25800  1.0000
  H   H1557     1.0  0.07045  0.43609  0.24714  1.0000
  H   H1558     1.0  0.05085  0.43999  0.23852  1.0000
  H   H1559     1.0  0.05087  0.25670  0.43113  1.0000
  H   H1560     1.0  0.12458  0.31002  0.29104  1.0000
  C   C921      1.0  0.05258  0.24324  0.42266  1.0000
  H   H1561     1.0  0.05416  0.26096  0.41605  1.0000
  H   H1562     1.0  0.10536  0.47672  0.29146  1.0000
  H   H1563     1.0  0.11409  0.46639  0.27684  1.0000
  C   C922      1.0  0.11321  0.30659  0.32412  1.0000
  H   H1564     1.0  0.13867  0.40607  0.24165  1.0000
  H   H1565     1.0  0.09526  0.32533  0.29799  1.0000
  H   H1566     1.0  0.10753  0.24547  0.36987  1.0000
  H   H1567     1.0  0.06915  0.25124  0.40793  1.0000
  H   H1568     1.0  0.09848  0.28289  0.46206  1.0000
  H   H1569     1.0  0.09086  0.30039  0.45262  1.0000
  S   S278      1.0  0.09241  0.25188  0.47428  1.0000
  H   H1570     1.0  0.08608  0.32868  0.31073  1.0000
  H   H1571     1.0  0.09996  0.25394  0.43156  1.0000
  C   C923      1.0  0.10515  0.31671  0.31870  1.0000
  H   H1572     1.0  0.08726  0.33907  0.29819  1.0000
  H   H1573     1.0  0.10741  0.37639  0.24131  1.0000
  H   H1574     1.0  0.11566  0.34728  0.30598  1.0000
  H   H1575     1.0  0.00604  0.37106  0.25370  1.0000
  H   H1576     1.0  0.09879  0.32000  0.32552  1.0000
  C   C924      1.0  0.12124  0.47020  0.25556  1.0000
  H   H1577     1.0  0.12455  0.46966  0.24672  1.0000
  C   C925      1.0  0.12098  0.34063  0.31101  1.0000
  H   H1578     1.0  0.12915  0.33778  0.30558  1.0000
  H   H1579     1.0  0.08163  0.24728  0.43075  1.0000
  C   C926      1.0  0.10181  0.43929  0.24721  1.0000
  H   H1580     1.0  0.10872  0.33365  0.32451  1.0000
  H   H1581     1.0  0.05979  0.42241  0.23584  1.0000
  H   H1582     1.0  0.08663  0.41934  0.24539  1.0000
  H   H1583     1.0  0.04091  0.45868  0.23429  1.0000
  H   H1584     1.0  0.07918  0.28510  0.46230  1.0000
  H   H1585     1.0  0.03344  0.25088  0.44925  1.0000
  C   C927      1.0  0.03393  0.35751  0.24772  1.0000
  H   H1586     1.0  0.06763  0.25244  0.43740  1.0000
  C   C928      1.0  0.10518  0.47067  0.27699  1.0000
  H   H1587     1.0  0.06706  0.29588  0.46277  1.0000
  N   N68       1.0  0.11038  0.32599  0.31080  1.0000
  H   H1588     1.0  0.10797  0.43405  0.25190  1.0000
  N   N69       1.0  0.11500  0.24294  0.42467  1.0000
  Fe  Fe142     1.0  0.06525  0.25062  0.46628  1.0000
  S   S279      1.0  0.07042  0.23991  0.48191  1.0000
  H   H1589     1.0  0.12285  0.32915  0.29571  1.0000
  H   H1590     1.0  0.11999  0.30275  0.31789  1.0000
  H   H1591     1.0  0.04059  0.25889  0.42335  1.0000
  H   H1592     1.0  0.10492  0.25389  0.40759  1.0000
  H   H1593     1.0  0.12720  0.31680  0.30492  1.0000
  S   S280      1.0  0.06818  0.47548  0.26261  1.0000
  C   C929      1.0  0.11681  0.31563  0.29452  1.0000
  H   H1594     1.0  0.09138  0.47648  0.29043  1.0000
  H   H1595     1.0  0.08756  0.24324  0.41144  1.0000
  H   H1596     1.0  0.10387  0.47267  0.25524  1.0000
  H   H1597     1.0  0.07206  0.39102  0.25927  1.0000
  C   C930      1.0  0.04021  0.24229  0.39671  1.0000
  H   H1598     1.0  0.02418  0.34815  0.26873  1.0000
  H   H1599     1.0  0.10389  0.24333  0.35835  1.0000
  H   H1600     1.0  0.01477  0.41535  0.29677  1.0000
  H   H1601     1.0  0.08743  0.23977  0.39888  1.0000
  C   C931      1.0  0.07602  0.29387  0.46329  1.0000
  H   H1602     1.0  0.01872  0.41452  0.28254  1.0000
  H   H1603     1.0  0.13347  0.25396  0.41744  1.0000
  H   H1604     1.0  0.00855  0.37843  0.26704  1.0000
  C   C932      1.0  0.10775  0.37584  0.24979  1.0000
  H   H1605     1.0  0.07961  0.43399  0.25606  1.0000
  C   C933      1.0  0.09202  0.48613  0.26795  1.0000
  C   C934      1.0  0.04967  0.25563  0.42326  1.0000
  C   C935      1.0  0.13016  0.25284  0.41076  1.0000
  H   H1606     1.0  0.08130  0.29896  0.44542  1.0000
  C   C936      1.0  0.08555  0.45257  0.23541  1.0000
  C   C937      1.0  0.08184  0.30136  0.45295  1.0000
  H   H1607     1.0  0.10105  0.46455  0.27578  1.0000
  H   H1608     1.0  0.12477  0.24650  0.43427  1.0000
  H   H1609     1.0  0.03465  0.37225  0.23384  1.0000
  C   C938      1.0  0.01609  0.37365  0.27034  1.0000
  H   H1610     1.0  0.09280  0.26057  0.41623  1.0000
  H   H1611     1.0  0.03442  0.43824  0.23622  1.0000
  H   H1612     1.0  0.01652  0.37807  0.24490  1.0000
  C   C939      1.0  0.01541  0.34431  0.25847  1.0000
  N   N70       1.0  0.08096  0.40936  0.26153  1.0000
  C   C940      1.0  0.08952  0.41205  0.26608  1.0000
  C   C941      1.0  0.07871  0.41867  0.25173  1.0000
  C   C942      1.0  0.08626  0.39859  0.25764  1.0000
  C   C943      1.0  0.07059  0.40821  0.27053  1.0000
  C   C944      1.0  0.09263  0.40406  0.27671  1.0000
  C   C945      1.0  0.10717  0.25422  0.42430  1.0000
  C   C946      1.0  0.07904  0.39398  0.25277  1.0000
  C   C947      1.0  0.05953  0.40961  0.26681  1.0000
  H   H1613     1.0  0.09745  0.41253  0.25967  1.0000
  H   H1614     1.0  0.08652  0.42033  0.26833  1.0000
  H   H1615     1.0  0.07322  0.41702  0.24726  1.0000
  H   H1616     1.0  0.10422  0.26734  0.40962  1.0000
  H   H1617     1.0  0.09415  0.39944  0.25131  1.0000
  H   H1618     1.0  0.08873  0.39174  0.26457  1.0000
  H   H1619     1.0  0.07200  0.39995  0.27633  1.0000
  H   H1620     1.0  0.06895  0.41453  0.27561  1.0000
  H   H1621     1.0  0.09893  0.40701  0.27911  1.0000
  H   H1622     1.0  0.08529  0.40408  0.28377  1.0000
  H   H1623     1.0  0.09652  0.39545  0.27568  1.0000
  C   C948      1.0  0.11530  0.33079  0.31749  1.0000
  H   H1624     1.0  0.11138  0.26043  0.42523  1.0000
  H   H1625     1.0  0.10043  0.31330  0.31476  1.0000
  H   H1626     1.0  0.08429  0.38654  0.24958  1.0000
  H   H1627     1.0  0.07589  0.39991  0.24565  1.0000
  N   N71       1.0  0.02301  0.36224  0.25486  1.0000
  H   H1628     1.0  0.05480  0.40337  0.27253  1.0000
  H   H1629     1.0  0.06047  0.40844  0.25836  1.0000
  H   H1630     1.0  0.05404  0.41787  0.26756  1.0000
  N   N72       1.0  0.06187  0.32261  0.37789  1.0000
  C   C949      1.0  0.07293  0.31447  0.37834  1.0000
  C   C950      1.0  0.05318  0.31614  0.37878  1.0000
  C   C951      1.0  0.05825  0.32859  0.38733  1.0000
  C   C952      1.0  0.06318  0.33112  0.36712  1.0000
  C   C953      1.0  0.08266  0.31921  0.37900  1.0000
  C   C954      1.0  0.05373  0.31218  0.36826  1.0000
  C   C955      1.0  0.05754  0.32102  0.39904  1.0000
  C   C956      1.0  0.05252  0.34001  0.36502  1.0000
  H   H1631     1.0  0.07204  0.30732  0.38551  1.0000
  H   H1632     1.0  0.07584  0.31064  0.37096  1.0000
  H   H1633     1.0  0.04452  0.32096  0.38125  1.0000
  H   H1634     1.0  0.05388  0.30851  0.38555  1.0000
  H   H1635     1.0  0.06388  0.33429  0.38638  1.0000
  H   H1636     1.0  0.04981  0.33414  0.38723  1.0000
  H   H1637     1.0  0.06950  0.33590  0.36663  1.0000
  H   H1638     1.0  0.06675  0.32711  0.35986  1.0000
  H   H1639     1.0  0.09025  0.31240  0.37928  1.0000
  H   H1640     1.0  0.08490  0.32575  0.37162  1.0000
  H   H1641     1.0  0.08092  0.32242  0.38664  1.0000
  H   H1642     1.0  0.04781  0.30655  0.37024  1.0000
  H   H1643     1.0  0.05122  0.31924  0.36152  1.0000
  H   H1644     1.0  0.06217  0.30740  0.36517  1.0000
  H   H1645     1.0  0.05160  0.31547  0.40080  1.0000
  H   H1646     1.0  0.05443  0.32630  0.40532  1.0000
  H   H1647     1.0  0.06584  0.31589  0.40038  1.0000
  H   H1648     1.0  0.05207  0.34755  0.36801  1.0000
  H   H1649     1.0  0.04466  0.33702  0.36897  1.0000
  H   H1650     1.0  0.05272  0.34242  0.35596  1.0000
  H   H1651     1.0  0.08763  0.47978  0.26767  1.0000
  H   H1652     1.0  0.01029  0.35617  0.26860  1.0000
  H   H1653     1.0  0.07670  0.31273  0.46949  1.0000
  C   C957      1.0  0.12019  0.24007  0.43464  1.0000
  C   C958      1.0  0.07189  0.30678  0.47568  1.0000
  C   C959      1.0  0.07341  0.43031  0.25442  1.0000
  C   C960      1.0  0.10035  0.47229  0.28897  1.0000
  C   C961      1.0  0.01455  0.36965  0.24823  1.0000
  C   C962      1.0  0.03752  0.24250  0.45266  1.0000
  H   H1654     1.0  0.11677  0.30868  0.33011  1.0000
  C   C963      1.0  0.11968  0.32196  0.30169  1.0000
  H   H1655     1.0  0.11102  0.31006  0.29923  1.0000
  H   H1656     1.0  0.10088  0.46395  0.29466  1.0000
  C   C964      1.0  0.09677  0.28190  0.47119  1.0000
  H   H1657     1.0  0.07758  0.31026  0.45233  1.0000
  H   H1658     1.0  0.06834  0.23982  0.40349  1.0000
  H   H1659     1.0  0.00446  0.36718  0.23812  1.0000
  H   H1660     1.0  0.10950  0.48477  0.24984  1.0000
  H   H1661     1.0  0.01730  0.35711  0.23772  1.0000
  C   C965      1.0  0.04011  0.36615  0.23916  1.0000
  H   H1662     1.0  0.09337  0.29960  0.47006  1.0000
  H   H1663     1.0  0.07494  0.27819  0.48201  1.0000
  H   H1664     1.0  0.10502  0.28014  0.47349  1.0000
  C   C966      1.0  0.08933  0.29254  0.47498  1.0000
  C   C967      1.0  0.01349  0.36589  0.23810  1.0000
  H   H1665     1.0  0.09309  0.27451  0.47518  1.0000
  H   H1666     1.0  0.10471  0.42805  0.23640  1.0000
  H   H1667     1.0  0.06331  0.30938  0.47393  1.0000
  H   H1668     1.0  0.04370  0.37062  0.24321  1.0000
  H   H1669     1.0  0.05623  0.28773  0.47758  1.0000
  H   H1670     1.0  0.03290  0.35191  0.24301  1.0000
  H   H1671     1.0  0.07167  0.48829  0.29819  1.0000
  H   H1672     1.0  0.15213  0.40925  0.23528  1.0000
  C   C968      1.0  0.14429  0.40865  0.23353  1.0000
  Fe  Fe143     1.0  0.09317  0.27872  0.56547  1.0000
  S   S281      1.0  0.08264  0.26654  0.57570  1.0000
  S   S282      1.0  0.10194  0.28648  0.57380  1.0000
  Fe  Fe144     1.0  0.09044  0.27531  0.54340  1.0000
  S   S283      1.0  0.07969  0.26292  0.55221  1.0000
  S   S284      1.0  0.09575  0.27813  0.52460  1.0000
  Fe  Fe145     1.0  0.07148  0.27469  0.56360  1.0000
  S   S285      1.0  0.05295  0.27776  0.57015  1.0000
  Fe  Fe146     1.0  0.09197  0.25598  0.56328  1.0000
  S   S286      1.0  0.08124  0.28786  0.55407  1.0000
  S   S287      1.0  0.10345  0.26751  0.55376  1.0000
  H   H1673     1.0  0.12873  0.35098  0.63178  1.0000
  C   C969      1.0  0.11312  0.33884  0.65311  1.0000
  Fe  Fe147     1.0  0.03092  0.25676  0.63223  1.0000
  C   C970      1.0  0.03966  0.28342  0.60060  1.0000
  S   S288      1.0  0.03477  0.27321  0.63163  1.0000
  C   C971      1.0  0.05648  0.24543  0.58595  1.0000
  H   H1674     1.0  0.07734  0.31001  0.69660  1.0000
  S   S289      1.0  0.02232  0.25403  0.62036  1.0000
  H   H1675     1.0  0.03107  0.28367  0.60584  1.0000
  H   H1676     1.0  0.11318  0.26862  0.59929  1.0000
  H   H1677     1.0  0.10015  0.35357  0.65681  1.0000
  H   H1678     1.0  0.03992  0.29892  0.60377  1.0000
  H   H1679     1.0  0.00439  0.28097  0.66382  1.0000
  S   S290      1.0  0.06887  0.25970  0.50078  1.0000
  Fe  Fe148     1.0  0.08955  0.35015  0.72444  1.0000
  S   S291      1.0  0.09116  0.35783  0.70631  1.0000
  H   H1680     1.0  0.10018  0.26350  0.61441  1.0000
  Fe  Fe149     1.0  0.11329  0.35002  0.72489  1.0000
  S   S292      1.0  0.11739  0.35689  0.70639  1.0000
  H   H1681     1.0  0.03283  0.27212  0.58506  1.0000
  Fe  Fe150     1.0  0.10070  0.36875  0.70976  1.0000
  S   S293      1.0  0.09797  0.38751  0.70335  1.0000
  Fe  Fe151     1.0  0.10753  0.34535  0.70434  1.0000
  S   S294      1.0  0.11270  0.33347  0.69216  1.0000
  H   H1682     1.0  0.08603  0.31405  0.73135  1.0000
  S   S295      1.0  0.10538  0.33726  0.72252  1.0000
  Fe  Fe152     1.0  0.08957  0.29861  0.63385  1.0000
  S   S296      1.0  0.09344  0.28007  0.63925  1.0000
  S   S297      1.0  0.08785  0.30755  0.61635  1.0000
  Fe  Fe153     1.0  0.08899  0.30250  0.65697  1.0000
  S   S298      1.0  0.09241  0.28399  0.66413  1.0000
  S   S299      1.0  0.08552  0.31653  0.66651  1.0000
  Fe  Fe154     1.0  0.10508  0.28273  0.64817  1.0000
  S   S300      1.0  0.12266  0.27278  0.64785  1.0000
  Fe  Fe155     1.0  0.08036  0.28296  0.65452  1.0000
  S   S301      1.0  0.06860  0.27098  0.66084  1.0000
  S   S302      1.0  0.10244  0.30120  0.64148  1.0000
  S   S303      1.0  0.07567  0.30153  0.64867  1.0000
  C   C972      1.0  0.13171  0.25135  0.65689  1.0000
  C   C973      1.0  0.13110  0.27766  0.58548  1.0000
  C   C974      1.0  0.11213  0.24686  0.53074  1.0000
  C   C975      1.0  0.12425  0.25825  0.65034  1.0000
  C   C976      1.0  0.11847  0.25348  0.64561  1.0000
  H   H1683     1.0  0.07293  0.32475  0.69630  1.0000
  H   H1684     1.0  0.07020  0.26324  0.60676  1.0000
  H   H1685     1.0  0.11265  0.25875  0.64059  1.0000
  C   C977      1.0  0.06827  0.33716  0.71407  1.0000
  H   H1686     1.0  0.10695  0.26727  0.62291  1.0000
  C   C978      1.0  0.10486  0.32874  0.68534  1.0000
  C   C979      1.0  0.10941  0.31864  0.68168  1.0000
  C   C980      1.0  0.10359  0.31464  0.67611  1.0000
  C   C981      1.0  0.09315  0.32079  0.67394  1.0000
  C   C982      1.0  0.08866  0.33093  0.67751  1.0000
  C   C983      1.0  0.09443  0.33487  0.68316  1.0000
  H   H1687     1.0  0.11751  0.31385  0.68321  1.0000
  H   H1688     1.0  0.10723  0.30686  0.67341  1.0000
  H   H1689     1.0  0.08066  0.33583  0.67581  1.0000
  H   H1690     1.0  0.09087  0.34274  0.68570  1.0000
  C   C984      1.0  0.07109  0.30905  0.48714  1.0000
  C   C985      1.0  0.06776  0.30082  0.57894  1.0000
  H   H1691     1.0  0.07058  0.30669  0.58204  1.0000
  S   S304      1.0  0.11116  0.41587  0.72998  1.0000
  H   H1692     1.0  0.07515  0.24125  0.64957  1.0000
  C   C986      1.0  0.10221  0.39535  0.71037  1.0000
  C   C987      1.0  0.10007  0.40704  0.70714  1.0000
  C   C988      1.0  0.10259  0.41349  0.71315  1.0000
  C   C989      1.0  0.10743  0.40826  0.72235  1.0000
  C   C990      1.0  0.10975  0.39657  0.72542  1.0000
  C   C991      1.0  0.10709  0.39015  0.71954  1.0000
  H   H1693     1.0  0.09636  0.41113  0.70001  1.0000
  H   H1694     1.0  0.10094  0.42248  0.71056  1.0000
  H   H1695     1.0  0.10182  0.31979  0.71320  1.0000
  H   H1696     1.0  0.10889  0.38117  0.72207  1.0000
  C   C992      1.0  0.04545  0.27213  0.63850  1.0000
  C   C993      1.0  0.04958  0.28157  0.63756  1.0000
  C   C994      1.0  0.05722  0.28112  0.64391  1.0000
  C   C995      1.0  0.06053  0.27130  0.65147  1.0000
  C   C996      1.0  0.05660  0.26181  0.65218  1.0000
  C   C997      1.0  0.04924  0.26216  0.64560  1.0000
  H   H1697     1.0  0.04664  0.28933  0.63214  1.0000
  H   H1698     1.0  0.06017  0.28850  0.64333  1.0000
  H   H1699     1.0  0.05899  0.25423  0.65804  1.0000
  H   H1700     1.0  0.04609  0.25483  0.64644  1.0000
  C   C998      1.0  0.04616  0.24523  0.59335  1.0000
  C   C999      1.0  0.09584  0.29213  0.58579  1.0000
  C   C1000     1.0  0.09333  0.28537  0.59644  1.0000
  C   C1001     1.0  0.09078  0.28989  0.60602  1.0000
  C   C1002     1.0  0.09058  0.30120  0.60492  1.0000
  C   C1003     1.0  0.09262  0.30793  0.59428  1.0000
  C   C1004     1.0  0.09542  0.30340  0.58483  1.0000
  H   H1701     1.0  0.09377  0.27661  0.59726  1.0000
  H   H1702     1.0  0.08905  0.28464  0.61420  1.0000
  H   H1703     1.0  0.09244  0.31666  0.59332  1.0000
  H   H1704     1.0  0.09757  0.30863  0.57670  1.0000
  C   C1005     1.0  0.08817  0.27338  0.51776  1.0000
  C   C1006     1.0  0.07747  0.27141  0.52294  1.0000
  C   C1007     1.0  0.07170  0.26725  0.51759  1.0000
  C   C1008     1.0  0.07657  0.26494  0.50703  1.0000
  C   C1009     1.0  0.08728  0.26692  0.50178  1.0000
  C   C1010     1.0  0.09300  0.27128  0.50708  1.0000
  H   H1705     1.0  0.07353  0.27325  0.53103  1.0000
  H   H1706     1.0  0.06338  0.26582  0.52166  1.0000
  H   H1707     1.0  0.10131  0.27273  0.50304  1.0000
  C   C1011     1.0  0.05003  0.26508  0.57844  1.0000
  C   C1012     1.0  0.05846  0.25537  0.57861  1.0000
  H   H1708     1.0  0.02275  0.37058  0.72865  1.0000
  S   S305      1.0  0.09712  0.36229  0.72817  1.0000
  C   C1013     1.0  0.03755  0.25478  0.59282  1.0000
  C   C1014     1.0  0.03945  0.26470  0.58532  1.0000
  H   H1709     1.0  0.06658  0.25548  0.57320  1.0000
  H   H1710     1.0  0.09916  0.24353  0.54498  1.0000
  H   H1711     1.0  0.02941  0.25455  0.59812  1.0000
  H   H1712     1.0  0.03878  0.28670  0.59187  1.0000
  C   C1015     1.0  0.04762  0.41404  0.73036  1.0000
  C   C1016     1.0  0.09850  0.23963  0.51975  1.0000
  N   N73       1.0  0.11043  0.33597  0.64359  1.0000
  H   H1713     1.0  0.05397  0.29310  0.58172  1.0000
  H   H1714     1.0  0.09329  0.33688  0.65307  1.0000
  C   C1017     1.0  0.12526  0.31729  0.64577  1.0000
  C   C1018     1.0  0.05638  0.30890  0.60455  1.0000
  H   H1715     1.0  0.14252  0.25256  0.61208  1.0000
  H   H1716     1.0  0.11202  0.35684  0.64581  1.0000
  H   H1717     1.0  0.00870  0.27634  0.65104  1.0000
  H   H1718     1.0  0.09120  0.26493  0.49376  1.0000
  H   H1719     1.0  0.11155  0.35035  0.63008  1.0000
  C   C1019     1.0  0.09790  0.33982  0.64448  1.0000
  H   H1720     1.0  0.05610  0.31450  0.59630  1.0000
  H   H1721     1.0  0.11358  0.25354  0.53390  1.0000
  H   H1722     1.0  0.04780  0.30940  0.60981  1.0000
  H   H1723     1.0  0.05626  0.38331  0.72576  1.0000
  C   C1020     1.0  0.07146  0.28679  0.48341  1.0000
  H   H1724     1.0  0.12261  0.25656  0.60440  1.0000
  H   H1725     1.0  0.10916  0.33401  0.66111  1.0000
  H   H1726     1.0  0.06179  0.27587  0.59193  1.0000
  H   H1727     1.0  0.05023  0.30566  0.58639  1.0000
  N   N74       1.0  0.12501  0.27176  0.60685  1.0000
  H   H1728     1.0  0.13136  0.31928  0.63788  1.0000
  C   C1021     1.0  0.12998  0.26720  0.61704  1.0000
  H   H1729     1.0  0.13315  0.33623  0.63710  1.0000
  C   C1022     1.0  0.06449  0.27978  0.59727  1.0000
  H   H1730     1.0  0.00858  0.25740  0.60191  1.0000
  C   C1023     1.0  0.13555  0.25467  0.61906  1.0000
  H   H1731     1.0  0.14104  0.27565  0.59744  1.0000
  H   H1732     1.0  0.01942  0.39081  0.71880  1.0000
  H   H1733     1.0  0.09282  0.32714  0.63927  1.0000
  H   H1734     1.0  0.08412  0.34068  0.63700  1.0000
  H   H1735     1.0  0.12360  0.26875  0.62464  1.0000
  H   H1736     1.0  0.13653  0.27165  0.61668  1.0000
  H   H1737     1.0  0.01466  0.26061  0.66477  1.0000
  C   C1024     1.0  0.13445  0.27180  0.59671  1.0000
  H   H1738     1.0  0.09537  0.34908  0.64284  1.0000
  C   C1025     1.0  0.06510  0.27141  0.60846  1.0000
  N   N75       1.0  0.07988  0.31665  0.71640  1.0000
  H   H1739     1.0  0.06639  0.30507  0.57048  1.0000
  C   C1026     1.0  0.05670  0.29778  0.58629  1.0000
  H   H1740     1.0  0.07480  0.42959  0.73023  1.0000
  C   C1027     1.0  0.07590  0.24193  0.68856  1.0000
  H   H1741     1.0  0.09696  0.24881  0.51657  1.0000
  C   C1028     1.0  0.10830  0.26214  0.61682  1.0000
  C   C1029     1.0  0.01942  0.26727  0.66263  1.0000
  C   C1030     1.0  0.11628  0.34162  0.63239  1.0000
  H   H1742     1.0  0.05677  0.26995  0.61334  1.0000
  H   H1743     1.0  0.00388  0.25975  0.68075  1.0000
  H   H1744     1.0  0.05413  0.29690  0.48692  1.0000
  H   H1745     1.0  0.07298  0.24501  0.66815  1.0000
  H   H1746     1.0  0.11867  0.30021  0.60721  1.0000
  H   H1747     1.0  0.08112  0.30262  0.73034  1.0000
  N   N76       1.0  0.06913  0.40906  0.72937  1.0000
  H   H1748     1.0  0.06121  0.31212  0.60857  1.0000
  H   H1749     1.0  0.09753  0.33804  0.62785  1.0000
  C   C1031     1.0  0.07045  0.31405  0.71315  1.0000
  H   H1750     1.0  0.06278  0.31640  0.69912  1.0000
  H   H1751     1.0  0.12217  0.33638  0.65314  1.0000
  H   H1752     1.0  0.11020  0.25322  0.62102  1.0000
  H   H1753     1.0  0.05551  0.28227  0.49200  1.0000
  C   C1032     1.0  0.09299  0.33615  0.63661  1.0000
  C   C1033     1.0  0.03175  0.25689  0.67579  1.0000
  H   H1754     1.0  0.11187  0.25284  0.59226  1.0000
  C   C1034     1.0  0.06228  0.29678  0.60374  1.0000
  H   H1755     1.0  0.07117  0.29679  0.59965  1.0000
  H   H1756     1.0  0.04399  0.27452  0.60173  1.0000
  H   H1757     1.0  0.10895  0.30808  0.70712  1.0000
  C   C1035     1.0  0.07100  0.31650  0.70056  1.0000
  H   H1758     1.0  0.07460  0.29338  0.57802  1.0000
  H   H1759     1.0  0.11321  0.35259  0.66005  1.0000
  H   H1760     1.0  0.12782  0.28986  0.61504  1.0000
  C   C1036     1.0  0.03749  0.27753  0.67605  1.0000
  H   H1761     1.0  0.07314  0.28649  0.49158  1.0000
  H   H1762     1.0  0.10250  0.30574  0.72153  1.0000
  H   H1763     1.0  0.07017  0.30507  0.71642  1.0000
  H   H1764     1.0  0.07614  0.25063  0.68412  1.0000
  H   H1765     1.0  0.06961  0.43736  0.71824  1.0000
  H   H1766     1.0  0.12496  0.27392  0.58378  1.0000
  H   H1767     1.0  0.00954  0.27923  0.67994  1.0000
  H   H1768     1.0  0.03021  0.24526  0.66663  1.0000
  H   H1769     1.0  0.02028  0.24519  0.67977  1.0000
  H   H1770     1.0  0.10955  0.24026  0.67378  1.0000
  H   H1771     1.0  0.02654  0.26497  0.65579  1.0000
  C   C1037     1.0  0.12042  0.24183  0.64717  1.0000
  H   H1772     1.0  0.13867  0.27669  0.57870  1.0000
  H   H1773     1.0  0.01179  0.25478  0.58827  1.0000
  S   S306      1.0  0.02030  0.24767  0.64700  1.0000
  H   H1774     1.0  0.04168  0.28468  0.67216  1.0000
  H   H1775     1.0  0.13793  0.37757  0.73270  1.0000
  C   C1038     1.0  0.02261  0.39223  0.72541  1.0000
  C   C1039     1.0  0.11106  0.24529  0.59057  1.0000
  C   C1040     1.0  0.13317  0.23973  0.65897  1.0000
  H   H1776     1.0  0.11391  0.28677  0.60010  1.0000
  H   H1777     1.0  0.10754  0.31956  0.65223  1.0000
  H   H1778     1.0  0.01804  0.27066  0.68892  1.0000
  C   C1041     1.0  0.10220  0.24733  0.67410  1.0000
  H   H1779     1.0  0.07034  0.36624  0.72218  1.0000
  C   C1042     1.0  0.01182  0.27805  0.65760  1.0000
  H   H1780     1.0  0.03604  0.27630  0.66015  1.0000
  C   C1043     1.0  0.09389  0.24682  0.66752  1.0000
  H   H1781     1.0  0.02594  0.39996  0.72192  1.0000
  C   C1044     1.0  0.07086  0.41955  0.72080  1.0000
  C   C1045     1.0  0.07197  0.39928  0.72386  1.0000
  C   C1046     1.0  0.11750  0.26467  0.60630  1.0000
  C   C1047     1.0  0.10680  0.24593  0.58142  1.0000
  C   C1048     1.0  0.06863  0.43014  0.72532  1.0000
  C   C1049     1.0  0.06858  0.40136  0.71267  1.0000
  H   H1782     1.0  0.05996  0.43210  0.73023  1.0000
  C   C1050     1.0  0.11630  0.48779  0.73070  1.0000
  H   H1783     1.0  0.06238  0.29209  0.61242  1.0000
  H   H1784     1.0  0.06564  0.42157  0.71457  1.0000
  H   H1785     1.0  0.07959  0.41836  0.71585  1.0000
  H   H1786     1.0  0.08117  0.39596  0.72206  1.0000
  H   H1787     1.0  0.03239  0.27895  0.68425  1.0000
  C   C1051     1.0  0.12849  0.34251  0.63122  1.0000
  C   C1052     1.0  0.00686  0.25250  0.59682  1.0000
  H   H1788     1.0  0.06437  0.33742  0.70723  1.0000
  C   C1053     1.0  0.00626  0.26267  0.68697  1.0000
  N   N77       1.0  0.02381  0.26776  0.67227  1.0000
  H   H1789     1.0  0.13623  0.25498  0.66054  1.0000
  C   C1054     1.0  0.02888  0.24603  0.67534  1.0000
  H   H1790     1.0  0.11372  0.24961  0.52158  1.0000
  H   H1791     1.0  0.07388  0.40646  0.70597  1.0000
  H   H1792     1.0  0.05964  0.40527  0.71295  1.0000
  H   H1793     1.0  0.07021  0.39323  0.71027  1.0000
  C   C1055     1.0  0.08256  0.24112  0.65266  1.0000
  H   H1794     1.0  0.08266  0.24017  0.51541  1.0000
  C   C1056     1.0  0.12459  0.29198  0.60733  1.0000
  H   H1795     1.0  0.06951  0.34571  0.71303  1.0000
  C   C1057     1.0  0.07940  0.31191  0.72863  1.0000
  C   C1058     1.0  0.07979  0.32898  0.71357  1.0000
  H   H1796     1.0  0.13880  0.26312  0.59594  1.0000
  H   H1797     1.0  0.13333  0.34156  0.62277  1.0000
  H   H1798     1.0  0.07330  0.28036  0.59320  1.0000
  H   H1799     1.0  0.09189  0.31413  0.70113  1.0000
  H   H1800     1.0  0.13150  0.29302  0.59995  1.0000
  H   H1801     1.0  0.08416  0.33097  0.71900  1.0000
  H   H1802     1.0  0.08472  0.33152  0.70507  1.0000
  C   C1059     1.0  0.09078  0.31066  0.71021  1.0000
  C   C1060     1.0  0.05625  0.37563  0.73193  1.0000
  H   H1803     1.0  0.02987  0.38550  0.72743  1.0000
  H   H1804     1.0  0.06540  0.30442  0.49386  1.0000
  H   H1805     1.0  0.11123  0.28339  0.61469  1.0000
  H   H1806     1.0  0.11176  0.32122  0.63759  1.0000
  H   H1807     1.0  0.11354  0.39239  0.73244  1.0000
  C   C1061     1.0  0.03029  0.27696  0.66831  1.0000
  C   C1062     1.0  0.10937  0.35122  0.65382  1.0000
  C   C1063     1.0  0.11322  0.32348  0.64480  1.0000
  C   C1064     1.0  0.11815  0.28338  0.60721  1.0000
  H   H1808     1.0  0.04535  0.28723  0.61331  1.0000
  C   C1065     1.0  0.04551  0.29049  0.60432  1.0000
  H   H1809     1.0  0.06932  0.27399  0.61357  1.0000
  H   H1810     1.0  0.08566  0.40774  0.73200  1.0000
  H   H1811     1.0  0.10458  0.25393  0.57608  1.0000
  H   H1812     1.0  0.12778  0.31863  0.65285  1.0000
  N   N78       1.0  0.05724  0.29121  0.59792  1.0000
  H   H1813     1.0  0.12569  0.30819  0.64736  1.0000
  H   H1814     1.0  0.11625  0.33744  0.62581  1.0000
  S   S307      1.0  0.09292  0.44836  0.72474  1.0000
  H   H1815     1.0  0.06839  0.39223  0.72957  1.0000
  H   H1816     1.0  0.12776  0.28674  0.58482  1.0000
  H   H1817     1.0  0.06231  0.33539  0.72205  1.0000
  H   H1818     1.0  0.01652  0.28476  0.65341  1.0000
  H   H1819     1.0  0.09450  0.25383  0.53379  1.0000
  H   H1820     1.0  0.02458  0.28530  0.66687  1.0000
  H   H1821     1.0  0.10544  0.25509  0.67032  1.0000
  H   H1822     1.0  0.09076  0.30169  0.71132  1.0000
  C   C1066     1.0  0.10153  0.31117  0.71332  1.0000
  H   H1823     1.0  0.07941  0.30706  0.48928  1.0000
  H   H1824     1.0  0.08445  0.24956  0.64950  1.0000
  H   H1825     1.0  0.12947  0.24930  0.62074  1.0000
  C   C1067     1.0  0.06415  0.36596  0.72988  1.0000
  S   S308      1.0  0.10737  0.47260  0.72612  1.0000
  H   H1826     1.0  0.08701  0.25433  0.66794  1.0000
  H   H1827     1.0  0.03282  0.25600  0.68435  1.0000
  H   H1828     1.0  0.04432  0.27003  0.67714  1.0000
  H   H1829     1.0  0.06754  0.24046  0.68895  1.0000
  H   H1830     1.0  0.01134  0.24191  0.57888  1.0000
  H   H1831     1.0  0.09823  0.24817  0.65864  1.0000
  H   H1832     1.0  0.06216  0.31867  0.71691  1.0000
  H   H1833     1.0  0.04880  0.42069  0.72285  1.0000
  H   H1834     1.0  0.09808  0.24770  0.68284  1.0000
  H   H1835     1.0  0.04026  0.25677  0.67039  1.0000
  C   C1068     1.0  0.05862  0.28872  0.48490  1.0000
  C   C1069     1.0  0.01034  0.23999  0.60192  1.0000
  H   H1836     1.0  0.07676  0.24140  0.69710  1.0000
  C   C1070     1.0  0.01450  0.27056  0.68192  1.0000
  Fe  Fe156     1.0  0.01307  0.24327  0.63489  1.0000
  H   H1837     1.0  0.07928  0.24679  0.53466  1.0000
  H   H1838     1.0  0.00967  0.25539  0.69309  1.0000
  H   H1839     1.0  0.13916  0.25244  0.62656  1.0000
  H   H1840     1.0  0.06756  0.31806  0.48698  1.0000
  H   H1841     1.0  0.04588  0.40687  0.72828  1.0000
  H   H1842     1.0  0.09008  0.29159  0.48366  1.0000
  Fe  Fe157     1.0  0.07463  0.25524  0.48387  1.0000
  H   H1843     1.0  0.14270  0.41169  0.73043  1.0000
  S   S309      1.0  0.04518  0.24218  0.63003  1.0000
  C   C1071     1.0  0.09996  0.24545  0.53585  1.0000
  H   H1844     1.0  0.00676  0.38070  0.72617  1.0000
  H   H1845     1.0  0.33863  0.28968  0.82321  1.0000
  H   H1846     1.0  0.26152  0.38740  0.85578  1.0000
  S   S310      1.0  0.43481  0.27539  0.88179  1.0000
  Fe  Fe158     1.0  0.21730  0.38891  0.96219  1.0000
  S   S311      1.0  0.23580  0.38459  0.95556  1.0000
  Fe  Fe159     1.0  0.21180  0.39223  0.93941  1.0000
  S   S312      1.0  0.22988  0.38834  0.93091  1.0000
  S   S313      1.0  0.19672  0.39758  0.93145  1.0000
  Fe  Fe160     1.0  0.23159  0.37459  0.94595  1.0000
  S   S314      1.0  0.24196  0.35748  0.94518  1.0000
  Fe  Fe161     1.0  0.23244  0.39870  0.94125  1.0000
  S   S315      1.0  0.24449  0.41002  0.93386  1.0000
  S   S316      1.0  0.21325  0.37758  0.95378  1.0000
  S   S317      1.0  0.21419  0.40389  0.94859  1.0000
  Fe  Fe162     1.0  0.24939  0.47152  0.87160  1.0000
  S   S318      1.0  0.23228  0.46830  0.87317  1.0000
  H   H1847     1.0  0.17182  0.38838  0.96635  1.0000
  Fe  Fe163     1.0  0.25937  0.44683  0.87949  1.0000
  S   S319      1.0  0.24331  0.44151  0.88205  1.0000
  S   S320      1.0  0.27558  0.43518  0.88273  1.0000
  Fe  Fe164     1.0  0.24145  0.45329  0.86584  1.0000
  S   S321      1.0  0.23769  0.44646  0.85298  1.0000
  Fe  Fe165     1.0  0.23545  0.45674  0.88921  1.0000
  S   S322      1.0  0.22266  0.45498  0.90514  1.0000
  S   S323      1.0  0.25831  0.45755  0.86266  1.0000
  S   S324      1.0  0.25172  0.46105  0.88820  1.0000
  Fe  Fe166     1.0  0.35603  0.27915  0.89393  1.0000
  S   S325      1.0  0.36830  0.28980  0.88402  1.0000
  S   S326      1.0  0.34918  0.27847  0.91208  1.0000
  Fe  Fe167     1.0  0.35383  0.27253  0.87375  1.0000
  S   S327      1.0  0.36554  0.28294  0.86212  1.0000
  S   S328      1.0  0.34575  0.26263  0.86735  1.0000
  Fe  Fe168     1.0  0.37600  0.27585  0.87496  1.0000
  S   S329      1.0  0.39359  0.26663  0.86970  1.0000
  Fe  Fe169     1.0  0.35655  0.29588  0.87223  1.0000
  S   S330      1.0  0.35163  0.31434  0.86527  1.0000
  S   S331      1.0  0.36476  0.26461  0.88602  1.0000
  S   S332      1.0  0.34380  0.28607  0.88276  1.0000
  Fe  Fe170     1.0  0.28519  0.36171  0.89313  1.0000
  S   S333      1.0  0.29919  0.36274  0.87809  1.0000
  S   S334      1.0  0.28785  0.35898  0.91036  1.0000
  Fe  Fe171     1.0  0.26778  0.36412  0.88001  1.0000
  S   S335      1.0  0.28007  0.36569  0.86367  1.0000
  S   S336      1.0  0.24927  0.36502  0.88414  1.0000
  Fe  Fe172     1.0  0.29161  0.35159  0.87274  1.0000
  S   S337      1.0  0.30007  0.33565  0.86663  1.0000
  Fe  Fe173     1.0  0.28653  0.37670  0.87044  1.0000
  S   S338      1.0  0.29119  0.39299  0.86088  1.0000
  S   S339      1.0  0.27871  0.34930  0.88864  1.0000
  S   S340      1.0  0.27316  0.37644  0.88586  1.0000
  Fe  Fe174     1.0  0.18984  0.39119  0.87451  1.0000
  S   S341      1.0  0.20470  0.39892  0.86668  1.0000
  S   S342      1.0  0.18592  0.38266  0.89268  1.0000
  Fe  Fe175     1.0  0.18136  0.39724  0.85258  1.0000
  S   S343      1.0  0.19573  0.40573  0.84316  1.0000
  S   S344      1.0  0.16617  0.39761  0.84567  1.0000
  Fe  Fe176     1.0  0.20625  0.39092  0.85260  1.0000
  S   S345      1.0  0.22327  0.38165  0.84533  1.0000
  Fe  Fe177     1.0  0.19301  0.41298  0.85814  1.0000
  S   S346      1.0  0.19256  0.43041  0.85965  1.0000
  S   S347      1.0  0.19222  0.38197  0.86105  1.0000
  S   S348      1.0  0.17779  0.40578  0.86691  1.0000
  Fe  Fe178     1.0  0.13988  0.37255  0.80903  1.0000
  S   S349      1.0  0.14709  0.37486  0.79063  1.0000
  S   S350      1.0  0.15268  0.36778  0.82025  1.0000
  Fe  Fe179     1.0  0.11575  0.37978  0.80508  1.0000
  S   S351      1.0  0.12135  0.38344  0.78658  1.0000
  S   S352      1.0  0.09699  0.38300  0.81224  1.0000
  Fe  Fe180     1.0  0.13361  0.36723  0.78917  1.0000
  S   S353      1.0  0.13768  0.35536  0.77742  1.0000
  Fe  Fe181     1.0  0.13422  0.39070  0.78953  1.0000
  S   S354      1.0  0.13950  0.40612  0.77861  1.0000
  S   S355      1.0  0.12760  0.36303  0.80782  1.0000
  S   S356      1.0  0.12745  0.38888  0.80783  1.0000
  C   C1072     1.0  0.35494  0.25243  0.86033  1.0000
  Fe  Fe182     1.0  0.05035  0.38006  0.78323  1.0000
  S   S357      1.0  0.05133  0.39430  0.76844  1.0000
  S   S358      1.0  0.06714  0.37003  0.78698  1.0000
  Fe  Fe183     1.0  0.02499  0.38310  0.78612  1.0000
  S   S359      1.0  0.02419  0.39777  0.77186  1.0000
  S   S360      1.0  0.00793  0.37907  0.79419  1.0000
  Fe  Fe184     1.0  0.03949  0.38754  0.76322  1.0000
  H   H1848     1.0  0.24254  0.35249  0.91816  1.0000
  Fe  Fe185     1.0  0.03592  0.40320  0.77850  1.0000
  S   S361      1.0  0.03239  0.42126  0.77933  1.0000
  S   S362      1.0  0.03976  0.37240  0.77703  1.0000
  S   S363      1.0  0.03550  0.38942  0.79377  1.0000
  H   H1849     1.0  0.22781  0.34387  0.90852  1.0000
  C   C1073     1.0  0.22168  0.34854  0.93684  1.0000
  Fe  Fe186     1.0  0.09444  0.44188  0.75566  1.0000
  H   H1850     1.0  0.21978  0.35610  0.94030  1.0000
  S   S364      1.0  0.09395  0.43937  0.77374  1.0000
  H   H1851     1.0  0.21598  0.34235  0.92584  1.0000
  C   C1074     1.0  0.33414  0.29182  0.83136  1.0000
  H   H1852     1.0  0.19073  0.40838  0.95045  1.0000
  H   H1853     1.0  0.02127  0.37591  0.74960  1.0000
  H   H1854     1.0  0.38316  0.25732  0.91728  1.0000
  C   C1075     1.0  0.00919  0.36543  0.78027  1.0000
  H   H1855     1.0  0.38693  0.26451  0.89652  1.0000
  H   H1856     1.0  0.01811  0.36315  0.77998  1.0000
  H   H1857     1.0  0.00992  0.35437  0.76990  1.0000
  C   C1076     1.0  0.04013  0.42961  0.76826  1.0000
  C   C1077     1.0  0.05058  0.42500  0.76230  1.0000
  C   C1078     1.0  0.05692  0.43190  0.75396  1.0000
  H   H1858     1.0  0.27964  0.46433  0.85742  1.0000
  C   C1079     1.0  0.12797  0.34865  0.74788  1.0000
  C   C1080     1.0  0.00110  0.38300  0.73381  1.0000
  H   H1859     1.0  0.05398  0.41619  0.76436  1.0000
  H   H1860     1.0  0.30007  0.44455  0.87839  1.0000
  H   H1861     1.0  0.23085  0.34552  0.93461  1.0000
  H   H1862     1.0  0.24669  0.40113  0.83082  1.0000
  H   H1863     1.0  0.11505  0.39848  0.74784  1.0000
  H   H1864     1.0  0.06712  0.32451  0.73701  1.0000
  H   H1865     1.0  0.22505  0.40432  0.97064  1.0000
  H   H1866     1.0  0.25026  0.39091  0.84250  1.0000
  C   C1081     1.0  0.07594  0.36293  0.76085  1.0000
  H   H1867     1.0  0.22721  0.40840  0.85955  1.0000
  C   C1082     1.0  0.39190  0.25722  0.91271  1.0000
  C   C1083     1.0  0.45058  0.29136  0.85304  1.0000
  C   C1084     1.0  0.23006  0.35139  0.90936  1.0000
  C   C1085     1.0  0.05592  0.35562  0.74770  1.0000
  C   C1086     1.0  0.04833  0.36540  0.74992  1.0000
  C   C1087     1.0  0.24109  0.34706  0.91356  1.0000
  H   H1868     1.0  0.05571  0.34787  0.75377  1.0000
  H   H1869     1.0  0.04217  0.36514  0.75762  1.0000
  C   C1088     1.0  0.12719  0.41627  0.77820  1.0000
  C   C1089     1.0  0.12700  0.42596  0.76987  1.0000
  C   C1090     1.0  0.11678  0.43337  0.76874  1.0000
  C   C1091     1.0  0.10684  0.43115  0.77607  1.0000
  C   C1092     1.0  0.10714  0.42179  0.78476  1.0000
  C   C1093     1.0  0.11731  0.41429  0.78576  1.0000
  H   H1870     1.0  0.13465  0.42753  0.76404  1.0000
  H   H1871     1.0  0.11656  0.44077  0.76216  1.0000
  H   H1872     1.0  0.09949  0.42005  0.79043  1.0000
  H   H1873     1.0  0.11739  0.40682  0.79220  1.0000
  C   C1094     1.0  0.08866  0.37930  0.80532  1.0000
  C   C1095     1.0  0.09349  0.37517  0.79568  1.0000
  C   C1096     1.0  0.08676  0.37268  0.79000  1.0000
  C   C1097     1.0  0.07510  0.37423  0.79390  1.0000
  C   C1098     1.0  0.07023  0.37829  0.80361  1.0000
  C   C1099     1.0  0.07700  0.38081  0.80931  1.0000
  H   H1874     1.0  0.10245  0.37376  0.79261  1.0000
  H   H1875     1.0  0.09067  0.36972  0.78246  1.0000
  H   H1876     1.0  0.06129  0.37924  0.80686  1.0000
  H   H1877     1.0  0.07321  0.38389  0.81684  1.0000
  C   C1100     1.0  0.13329  0.35329  0.76616  1.0000
  C   C1101     1.0  0.12375  0.35976  0.76206  1.0000
  C   C1102     1.0  0.12112  0.35746  0.75288  1.0000
  N   N79       1.0  0.13195  0.39645  0.75009  1.0000
  C   C1103     1.0  0.13731  0.34226  0.75215  1.0000
  C   C1104     1.0  0.13994  0.34455  0.76112  1.0000
  H   H1878     1.0  0.11848  0.36647  0.76593  1.0000
  H   H1879     1.0  0.47639  0.30302  0.86093  1.0000
  H   H1880     1.0  0.22617  0.40018  0.87328  1.0000
  H   H1881     1.0  0.14727  0.33946  0.76418  1.0000
  C   C1105     1.0  0.16288  0.38934  0.83822  1.0000
  C   C1106     1.0  0.15205  0.39204  0.83603  1.0000
  C   C1107     1.0  0.14887  0.38567  0.83040  1.0000
  C   C1108     1.0  0.15647  0.37644  0.82688  1.0000
  C   C1109     1.0  0.16730  0.37369  0.82912  1.0000
  C   C1110     1.0  0.17053  0.38016  0.83462  1.0000
  H   H1882     1.0  0.14601  0.39907  0.83880  1.0000
  H   H1883     1.0  0.14045  0.38779  0.82895  1.0000
  H   H1884     1.0  0.17325  0.36653  0.82652  1.0000
  H   H1885     1.0  0.17892  0.37797  0.83615  1.0000
  C   C1111     1.0  0.24237  0.36818  0.87321  1.0000
  C   C1112     1.0  0.23065  0.37098  0.87561  1.0000
  C   C1113     1.0  0.22479  0.37447  0.86706  1.0000
  C   C1114     1.0  0.23060  0.37532  0.85602  1.0000
  C   C1115     1.0  0.24231  0.37185  0.85362  1.0000
  C   C1116     1.0  0.24822  0.36836  0.86222  1.0000
  H   H1886     1.0  0.22608  0.37071  0.88407  1.0000
  H   H1887     1.0  0.21575  0.37654  0.86902  1.0000
  H   H1888     1.0  0.24681  0.37221  0.84509  1.0000
  H   H1889     1.0  0.25727  0.36596  0.86034  1.0000
  C   C1117     1.0  0.33729  0.32027  0.86569  1.0000
  C   C1118     1.0  0.33338  0.33182  0.86474  1.0000
  C   C1119     1.0  0.32197  0.33668  0.86499  1.0000
  C   C1120     1.0  0.31449  0.33004  0.86587  1.0000
  C   C1121     1.0  0.31846  0.31854  0.86658  1.0000
  C   C1122     1.0  0.32976  0.31364  0.86678  1.0000
  H   H1890     1.0  0.33919  0.33700  0.86385  1.0000
  H   H1891     1.0  0.31899  0.34557  0.86435  1.0000
  H   H1892     1.0  0.31269  0.31336  0.86734  1.0000
  H   H1893     1.0  0.33266  0.30476  0.86772  1.0000
  H   H1894     1.0  0.32904  0.28538  0.83551  1.0000
  H   H1895     1.0  0.07874  0.36882  0.76394  1.0000
  H   H1896     1.0  0.16810  0.35627  0.85344  1.0000
  C   C1123     1.0  0.22506  0.44204  0.85512  1.0000
  C   C1124     1.0  0.21549  0.44558  0.86287  1.0000
  C   C1125     1.0  0.20551  0.44213  0.86400  1.0000
  C   C1126     1.0  0.20523  0.43458  0.85794  1.0000
  C   C1127     1.0  0.21484  0.43095  0.85030  1.0000
  C   C1128     1.0  0.22458  0.43499  0.84865  1.0000
  H   H1897     1.0  0.21568  0.45133  0.86763  1.0000
  H   H1898     1.0  0.19794  0.44533  0.86953  1.0000
  H   H1899     1.0  0.21460  0.42544  0.84530  1.0000
  H   H1900     1.0  0.23172  0.43286  0.84217  1.0000
  C   C1129     1.0  0.27944  0.42361  0.87650  1.0000
  C   C1130     1.0  0.27212  0.41647  0.87836  1.0000
  C   C1131     1.0  0.27579  0.40675  0.87401  1.0000
  C   C1132     1.0  0.28659  0.40443  0.86740  1.0000
  C   C1133     1.0  0.29377  0.41168  0.86546  1.0000
  C   C1134     1.0  0.29031  0.42108  0.87019  1.0000
  H   H1901     1.0  0.26375  0.41832  0.88336  1.0000
  H   H1902     1.0  0.27019  0.40120  0.87557  1.0000
  H   H1903     1.0  0.30210  0.40996  0.86033  1.0000
  H   H1904     1.0  0.29602  0.42649  0.86879  1.0000
  C   C1135     1.0  0.25471  0.35818  0.93559  1.0000
  C   C1136     1.0  0.25479  0.36425  0.92472  1.0000
  C   C1137     1.0  0.26492  0.36415  0.91687  1.0000
  C   C1138     1.0  0.27508  0.35862  0.92003  1.0000
  C   C1139     1.0  0.27504  0.35284  0.93100  1.0000
  C   C1140     1.0  0.26484  0.35239  0.93871  1.0000
  H   H1905     1.0  0.24703  0.36877  0.92226  1.0000
  H   H1906     1.0  0.26481  0.36844  0.90841  1.0000
  H   H1907     1.0  0.28286  0.34852  0.93348  1.0000
  H   H1908     1.0  0.26479  0.34769  0.94712  1.0000
  C   C1141     1.0  0.19509  0.39221  0.92073  1.0000
  C   C1142     1.0  0.20225  0.39329  0.91016  1.0000
  C   C1143     1.0  0.19946  0.39071  0.90131  1.0000
  C   C1144     1.0  0.18965  0.38676  0.90310  1.0000
  C   C1145     1.0  0.18280  0.38535  0.91375  1.0000
  C   C1146     1.0  0.18536  0.38827  0.92241  1.0000
  H   H1909     1.0  0.20974  0.39641  0.90873  1.0000
  H   H1910     1.0  0.20491  0.39165  0.89315  1.0000
  H   H1911     1.0  0.17527  0.38223  0.91525  1.0000
  H   H1912     1.0  0.17967  0.38760  0.93044  1.0000
  C   C1147     1.0  0.23832  0.42297  0.92662  1.0000
  C   C1148     1.0  0.24507  0.42896  0.91786  1.0000
  C   C1149     1.0  0.24024  0.43892  0.91146  1.0000
  C   C1150     1.0  0.22869  0.44314  0.91397  1.0000
  C   C1151     1.0  0.22195  0.43741  0.92304  1.0000
  C   C1152     1.0  0.22676  0.42725  0.92928  1.0000
  H   H1913     1.0  0.25400  0.42585  0.91583  1.0000
  H   H1914     1.0  0.24553  0.44327  0.90454  1.0000
  H   H1915     1.0  0.21301  0.44068  0.92504  1.0000
  H   H1916     1.0  0.22155  0.42285  0.93623  1.0000
  Fe  Fe187     1.0  0.07887  0.44792  0.73993  1.0000
  C   C1153     1.0  0.36641  0.24931  0.86040  1.0000
  C   C1154     1.0  0.17780  0.42329  0.95001  1.0000
  S   S365      1.0  0.06034  0.45202  0.74041  1.0000
  H   H1917     1.0  0.06918  0.35953  0.76727  1.0000
  C   C1155     1.0  0.42344  0.27448  0.87697  1.0000
  C   C1156     1.0  0.41272  0.28107  0.87990  1.0000
  C   C1157     1.0  0.40345  0.27912  0.87725  1.0000
  C   C1158     1.0  0.40493  0.27053  0.87179  1.0000
  C   C1159     1.0  0.41571  0.26447  0.86830  1.0000
  C   C1160     1.0  0.42494  0.26657  0.87072  1.0000
  H   H1918     1.0  0.41157  0.28745  0.88444  1.0000
  H   H1919     1.0  0.39515  0.28409  0.87957  1.0000
  H   H1920     1.0  0.41695  0.25806  0.86375  1.0000
  H   H1921     1.0  0.43322  0.26198  0.86774  1.0000
  H   H1922     1.0  0.16442  0.33957  0.88780  1.0000
  C   C1161     1.0  0.14325  0.41180  0.73891  1.0000
  C   C1162     1.0  0.36144  0.25706  0.91733  1.0000
  C   C1163     1.0  0.35221  0.26528  0.92071  1.0000
  C   C1164     1.0  0.34540  0.26310  0.93128  1.0000
  C   C1165     1.0  0.34768  0.25271  0.93843  1.0000
  H   H1923     1.0  0.36671  0.25874  0.90917  1.0000
  H   H1924     1.0  0.33824  0.26941  0.93392  1.0000
  C   C1166     1.0  0.11308  0.40331  0.76310  1.0000
  H   H1925     1.0  0.44150  0.29124  0.85583  1.0000
  H   H1926     1.0  0.35733  0.24603  0.88353  1.0000
  H   H1927     1.0  0.01014  0.38528  0.76263  1.0000
  H   H1928     1.0  0.15322  0.36859  0.85112  1.0000
  Fe  Fe188     1.0  0.47359  0.25148  0.87107  1.0000
  H   H1929     1.0  0.25171  0.48436  0.88957  1.0000
  C   C1167     1.0  0.37339  0.24084  0.85498  1.0000
  H   H1930     1.0  0.16301  0.38787  0.88341  1.0000
  H   H1931     1.0  0.46778  0.30694  0.84219  1.0000
  C   C1168     1.0  0.01348  0.39386  0.73590  1.0000
  H   H1932     1.0  0.18360  0.42808  0.95071  1.0000
  H   H1933     1.0  0.24650  0.39539  0.87168  1.0000
  H   H1934     1.0  0.29155  0.47519  0.88652  1.0000
  C   C1169     1.0  0.32602  0.30317  0.82866  1.0000
  H   H1935     1.0  0.23987  0.41487  0.84491  1.0000
  H   H1936     1.0  0.06899  0.31084  0.74520  1.0000
  H   H1937     1.0  0.14265  0.33543  0.74845  1.0000
  H   H1938     1.0  0.18200  0.35815  0.85098  1.0000
  H   H1939     1.0  0.14471  0.36053  0.86266  1.0000
  H   H1940     1.0  0.33048  0.30947  0.82268  1.0000
  C   C1170     1.0  0.24333  0.39862  0.86384  1.0000
  H   H1941     1.0  0.32128  0.30648  0.83613  1.0000
  H   H1942     1.0  0.15270  0.39047  0.87537  1.0000
  H   H1943     1.0  0.31976  0.30211  0.82464  1.0000
  H   H1944     1.0  0.00505  0.41722  0.77397  1.0000
  H   H1945     1.0  0.23102  0.41277  0.87014  1.0000
  C   C1171     1.0  0.00691  0.40924  0.79629  1.0000
  H   H1946     1.0  0.16742  0.38641  0.86931  1.0000
  H   H1947     1.0  0.17799  0.42478  0.94101  1.0000
  C   C1172     1.0  0.26176  0.42049  0.85176  1.0000
  S   S366      1.0  0.07455  0.34422  0.73580  1.0000
  N   N80       1.0  0.09035  0.34483  0.76630  1.0000
  C   C1173     1.0  0.09411  0.35069  0.77298  1.0000
  C   C1174     1.0  0.08589  0.35371  0.75712  1.0000
  C   C1175     1.0  0.10055  0.33701  0.76131  1.0000
  C   C1176     1.0  0.08168  0.33857  0.77398  1.0000
  C   C1177     1.0  0.10074  0.34321  0.78176  1.0000
  C   C1178     1.0  0.09886  0.33043  0.75368  1.0000
  C   C1179     1.0  0.07356  0.33569  0.76860  1.0000
  H   H1948     1.0  0.09939  0.35659  0.76746  1.0000
  H   H1949     1.0  0.08674  0.35584  0.77755  1.0000
  H   H1950     1.0  0.08322  0.35023  0.75152  1.0000
  H   H1951     1.0  0.09269  0.35793  0.75170  1.0000
  H   H1952     1.0  0.10719  0.34169  0.75644  1.0000
  H   H1953     1.0  0.10427  0.33057  0.76787  1.0000
  H   H1954     1.0  0.08582  0.33066  0.77891  1.0000
  H   H1955     1.0  0.07621  0.34350  0.78019  1.0000
  H   H1956     1.0  0.10947  0.33965  0.77783  1.0000
  H   H1957     1.0  0.10141  0.34838  0.78718  1.0000
  H   H1958     1.0  0.09655  0.33648  0.78718  1.0000
  H   H1959     1.0  0.10720  0.32578  0.74998  1.0000
  H   H1960     1.0  0.09522  0.33586  0.74664  1.0000
  H   H1961     1.0  0.09381  0.32413  0.75841  1.0000
  H   H1962     1.0  0.07209  0.32722  0.77287  1.0000
  H   H1963     1.0  0.07647  0.33563  0.75968  1.0000
  H   H1964     1.0  0.06522  0.34141  0.76997  1.0000
  N   N81       1.0  0.31263  0.32362  0.90385  1.0000
  C   C1180     1.0  0.32232  0.32944  0.90071  1.0000
  C   C1181     1.0  0.31569  0.31290  0.91203  1.0000
  C   C1182     1.0  0.30246  0.33111  0.90933  1.0000
  C   C1183     1.0  0.31074  0.32176  0.89343  1.0000
  C   C1184     1.0  0.32044  0.34134  0.89346  1.0000
  C   C1185     1.0  0.32652  0.30477  0.90778  1.0000
  C   C1186     1.0  0.29160  0.32668  0.91384  1.0000
  C   C1187     1.0  0.30457  0.31240  0.89469  1.0000
  H   H1965     1.0  0.32470  0.32999  0.90827  1.0000
  H   H1966     1.0  0.32993  0.32461  0.89598  1.0000
  H   H1967     1.0  0.30896  0.30814  0.91501  1.0000
  H   H1968     1.0  0.31671  0.31472  0.91969  1.0000
  H   H1969     1.0  0.30433  0.33346  0.91631  1.0000
  H   H1970     1.0  0.30015  0.33904  0.90337  1.0000
  H   H1971     1.0  0.30607  0.32959  0.88888  1.0000
  H   H1972     1.0  0.31896  0.31964  0.88770  1.0000
  H   H1973     1.0  0.32858  0.34400  0.89028  1.0000
  H   H1974     1.0  0.31715  0.34180  0.88615  1.0000
  H   H1975     1.0  0.31475  0.34746  0.89833  1.0000
  H   H1976     1.0  0.32700  0.29654  0.91367  1.0000
  H   H1977     1.0  0.32682  0.30336  0.89954  1.0000
  H   H1978     1.0  0.33413  0.30768  0.90740  1.0000
  H   H1979     1.0  0.29254  0.31873  0.92004  1.0000
  H   H1980     1.0  0.28818  0.32602  0.90700  1.0000
  H   H1981     1.0  0.28513  0.33286  0.91813  1.0000
  H   H1982     1.0  0.29890  0.31528  0.88874  1.0000
  H   H1983     1.0  0.29932  0.30990  0.90296  1.0000
  H   H1984     1.0  0.31063  0.30494  0.89219  1.0000
  N   N82       1.0  0.39617  0.26667  0.91397  1.0000
  C   C1188     1.0  0.40850  0.26482  0.90859  1.0000
  C   C1189     1.0  0.11632  0.47684  0.75273  1.0000
  C   C1190     1.0  0.39492  0.26654  0.92610  1.0000
  C   C1191     1.0  0.39040  0.27785  0.90824  1.0000
  C   C1192     1.0  0.41498  0.27294  0.90976  1.0000
  H   H1985     1.0  0.19491  0.41141  0.96729  1.0000
  C   C1193     1.0  0.38482  0.26233  0.93442  1.0000
  C   C1194     1.0  0.37761  0.28113  0.91228  1.0000
  H   H1986     1.0  0.00533  0.39982  0.75646  1.0000
  H   H1987     1.0  0.40987  0.26539  0.89954  1.0000
  C   C1195     1.0  0.99864  0.38814  0.75136  1.0000
  H   H1988     1.0  0.01786  0.39538  0.74159  1.0000
  C   C1196     1.0  0.16744  0.40888  0.97173  1.0000
  H   H1989     1.0  0.39457  0.27498  0.92725  1.0000
  H   H1990     1.0  0.39371  0.28463  0.90932  1.0000
  H   H1991     1.0  0.39237  0.27880  0.89911  1.0000
  H   H1992     1.0  0.41431  0.27313  0.91851  1.0000
  H   H1993     1.0  0.42403  0.27010  0.90621  1.0000
  C   C1197     1.0  0.25865  0.39452  0.91082  1.0000
  C   C1198     1.0  0.11967  0.48709  0.74870  1.0000
  H   H1994     1.0  0.28092  0.48460  0.88006  1.0000
  H   H1995     1.0  0.16880  0.40750  0.81891  1.0000
  H   H1996     1.0  0.26982  0.37956  0.92986  1.0000
  H   H1997     1.0  0.28657  0.38004  0.91695  1.0000
  H   H1998     1.0  0.37670  0.26671  0.93213  1.0000
  H   H1999     1.0  0.37540  0.28450  0.91991  1.0000
  H   H2000     1.0  0.37340  0.27419  0.91375  1.0000
  H   H2001     1.0  0.37399  0.28758  0.90569  1.0000
  N   N83       1.0  0.34235  0.29145  0.83808  1.0000
  C   C1199     1.0  0.34981  0.29946  0.83154  1.0000
  C   C1200     1.0  0.34904  0.27966  0.84056  1.0000
  C   C1201     1.0  0.33638  0.29482  0.84896  1.0000
  C   C1202     1.0  0.35940  0.29949  0.83677  1.0000
  C   C1203     1.0  0.35709  0.27521  0.83056  1.0000
  C   C1204     1.0  0.32662  0.28909  0.85576  1.0000
  H   H2002     1.0  0.35353  0.29798  0.82301  1.0000
  H   H2003     1.0  0.34485  0.30819  0.83038  1.0000
  H   H2004     1.0  0.35409  0.27862  0.84678  1.0000
  H   H2005     1.0  0.34337  0.27372  0.84447  1.0000
  H   H2006     1.0  0.34237  0.29299  0.85449  1.0000
  H   H2007     1.0  0.33305  0.30399  0.84771  1.0000
  H   H2008     1.0  0.35616  0.30222  0.84478  1.0000
  H   H2009     1.0  0.36530  0.29129  0.83790  1.0000
  H   H2010     1.0  0.36435  0.30559  0.83115  1.0000
  H   H2011     1.0  0.36371  0.28003  0.82644  1.0000
  H   H2012     1.0  0.35258  0.27483  0.82442  1.0000
  H   H2013     1.0  0.36145  0.26651  0.83361  1.0000
  H   H2014     1.0  0.31932  0.29186  0.85177  1.0000
  H   H2015     1.0  0.32369  0.29139  0.86400  1.0000
  H   H2016     1.0  0.32917  0.27989  0.85734  1.0000
  N   N84       1.0  0.07001  0.41753  0.78747  1.0000
  C   C1205     1.0  0.07150  0.42593  0.77663  1.0000
  C   C1206     1.0  0.07834  0.40686  0.78567  1.0000
  C   C1207     1.0  0.07253  0.42199  0.79612  1.0000
  C   C1208     1.0  0.05806  0.41615  0.79048  1.0000
  C   C1209     1.0  0.06496  0.43804  0.77678  1.0000
  C   C1210     1.0  0.07686  0.40140  0.77693  1.0000
  C   C1211     1.0  0.07664  0.41341  0.80606  1.0000
  C   C1212     1.0  0.05462  0.40776  0.80122  1.0000
  H   H2017     1.0  0.08050  0.42615  0.77338  1.0000
  H   H2018     1.0  0.06896  0.42348  0.77020  1.0000
  H   H2019     1.0  0.07821  0.40036  0.79338  1.0000
  H   H2020     1.0  0.08705  0.40831  0.78323  1.0000
  H   H2021     1.0  0.07925  0.42684  0.79231  1.0000
  H   H2022     1.0  0.06506  0.42799  0.79955  1.0000
  H   H2023     1.0  0.05214  0.42419  0.79152  1.0000
  H   H2024     1.0  0.05575  0.41408  0.78363  1.0000
  H   H2025     1.0  0.06723  0.44331  0.76839  1.0000
  H   H2026     1.0  0.05577  0.43880  0.77853  1.0000
  H   H2027     1.0  0.06719  0.44166  0.78263  1.0000
  H   H2028     1.0  0.06875  0.39874  0.77938  1.0000
  H   H2029     1.0  0.07785  0.40676  0.76848  1.0000
  H   H2030     1.0  0.08356  0.39377  0.77635  1.0000
  H   H2031     1.0  0.08521  0.40848  0.80344  1.0000
  H   H2032     1.0  0.07096  0.40768  0.81057  1.0000
  H   H2033     1.0  0.07724  0.41793  0.81210  1.0000
  H   H2034     1.0  0.05209  0.41168  0.80853  1.0000
  H   H2035     1.0  0.06124  0.40025  0.80260  1.0000
  H   H2036     1.0  0.04746  0.40470  0.80059  1.0000
  N   N85       1.0  0.46746  0.29043  0.86153  1.0000
  C   C1213     1.0  0.47183  0.28368  0.87174  1.0000
  C   C1214     1.0  0.47474  0.28545  0.85187  1.0000
  C   C1215     1.0  0.45548  0.28936  0.86336  1.0000
  C   C1216     1.0  0.46804  0.30237  0.86021  1.0000
  C   C1217     1.0  0.46470  0.28623  0.88298  1.0000
  C   C1218     1.0  0.05741  0.41028  0.73642  1.0000
  H   H2037     1.0  0.15341  0.39509  0.75786  1.0000
  C   C1219     1.0  0.46513  0.31062  0.84960  1.0000
  H   H2038     1.0  0.47266  0.27462  0.87238  1.0000
  H   H2039     1.0  0.48037  0.28477  0.87128  1.0000
  H   H2040     1.0  0.47147  0.28909  0.84418  1.0000
  H   H2041     1.0  0.47473  0.27641  0.85355  1.0000
  H   H2042     1.0  0.45457  0.28081  0.86797  1.0000
  H   H2043     1.0  0.44967  0.29500  0.86874  1.0000
  H   H2044     1.0  0.46218  0.30590  0.86721  1.0000
  H   H2045     1.0  0.19461  0.39336  0.96552  1.0000
  H   H2046     1.0  0.46403  0.29491  0.88354  1.0000
  H   H2047     1.0  0.10984  0.46447  0.74913  1.0000
  H   H2048     1.0  0.11634  0.47253  0.76125  1.0000
  S   S367      1.0  0.20978  0.38922  0.98029  1.0000
  C   C1220     1.0  0.39206  0.25684  0.90071  1.0000
  H   H2049     1.0  0.17732  0.40650  0.95083  1.0000
  H   H2050     1.0  0.38828  0.24986  0.90097  1.0000
  H   H2051     1.0  0.13445  0.48542  0.80481  1.0000
  C   C1221     1.0  0.28940  0.47916  0.87828  1.0000
  S   S368      1.0  0.49059  0.25627  0.86481  1.0000
  H   H2052     1.0  0.14009  0.37391  0.74654  1.0000
  H   H2053     1.0  0.14330  0.42053  0.73880  1.0000
  N   N86       1.0  0.20470  0.42921  0.89839  1.0000
  C   C1222     1.0  0.21603  0.43060  0.89879  1.0000
  C   C1223     1.0  0.19825  0.44070  0.89406  1.0000
  C   C1224     1.0  0.20667  0.42188  0.89029  1.0000
  C   C1225     1.0  0.19916  0.42394  0.90988  1.0000
  C   C1226     1.0  0.22459  0.41984  0.90232  1.0000
  C   C1227     1.0  0.19492  0.44897  0.90182  1.0000
  C   C1228     1.0  0.19626  0.41978  0.88787  1.0000
  C   C1229     1.0  0.18639  0.42459  0.91218  1.0000
  H   H2054     1.0  0.22015  0.43510  0.89059  1.0000
  H   H2055     1.0  0.21508  0.43585  0.90472  1.0000
  H   H2056     1.0  0.19044  0.44052  0.89192  1.0000
  H   H2057     1.0  0.20322  0.44466  0.88610  1.0000
  H   H2058     1.0  0.21181  0.42534  0.88216  1.0000
  H   H2059     1.0  0.21157  0.41344  0.89326  1.0000
  H   H2060     1.0  0.20323  0.41500  0.91200  1.0000
  H   H2061     1.0  0.20060  0.42761  0.91622  1.0000
  H   H2062     1.0  0.22131  0.41482  0.91051  1.0000
  H   H2063     1.0  0.22763  0.41470  0.89595  1.0000
  H   H2064     1.0  0.23208  0.42222  0.90318  1.0000
  H   H2065     1.0  0.20230  0.45145  0.90268  1.0000
  H   H2066     1.0  0.18950  0.45674  0.89811  1.0000
  H   H2067     1.0  0.19010  0.44573  0.91014  1.0000
  H   H2068     1.0  0.19071  0.42747  0.88430  1.0000
  H   H2069     1.0  0.19147  0.41486  0.89520  1.0000
  H   H2070     1.0  0.19912  0.41465  0.88148  1.0000
  H   H2071     1.0  0.18472  0.41605  0.91453  1.0000
  H   H2072     1.0  0.18230  0.42919  0.90520  1.0000
  H   H2073     1.0  0.18202  0.42856  0.91935  1.0000
  H   H2074     1.0  0.21837  0.34201  0.94369  1.0000
  H   H2075     1.0  0.24829  0.34679  0.90632  1.0000
  C   C1230     1.0  0.24760  0.40829  0.84414  1.0000
  H   H2076     1.0  0.16321  0.35110  0.89374  1.0000
  H   H2077     1.0  0.26084  0.42800  0.85503  1.0000
  H   H2078     1.0  0.17778  0.36541  0.86797  1.0000
  C   C1231     1.0  0.14818  0.48109  0.79166  1.0000
  H   H2079     1.0  0.13911  0.37442  0.85631  1.0000
  C   C1232     1.0  0.25238  0.41438  0.85862  1.0000
  C   C1233     1.0  0.03594  0.44113  0.76561  1.0000
  C   C1234     1.0  0.24495  0.39921  0.84003  1.0000
  H   H2080     1.0  0.24248  0.39109  0.86165  1.0000
  H   H2081     1.0  0.26123  0.42349  0.84292  1.0000
  H   H2082     1.0  0.17694  0.34855  0.86305  1.0000
  C   C1235     1.0  0.06406  0.35600  0.73784  1.0000
  H   H2083     1.0  0.23601  0.39868  0.84328  1.0000
  H   H2084     1.0  0.17080  0.37423  0.85764  1.0000
  H   H2085     1.0  0.27017  0.41530  0.85260  1.0000
  H   H2086     1.0  0.49159  0.28221  0.85547  1.0000
  H   H2087     1.0  0.26709  0.39604  0.86040  1.0000
  C   C1236     1.0  0.18109  0.38690  0.96443  1.0000
  H   H2088     1.0  0.07226  0.36786  0.75360  1.0000
  H   H2089     1.0  0.17424  0.34852  0.88182  1.0000
  H   H2090     1.0  0.03998  0.41780  0.73592  1.0000
  S   S369      1.0  0.46274  0.25336  0.88777  1.0000
  H   H2091     1.0  0.38443  0.26369  0.94273  1.0000
  N   N87       1.0  0.22035  0.35803  0.91629  1.0000
  C   C1237     1.0  0.21102  0.36264  0.90998  1.0000
  C   C1238     1.0  0.22331  0.36788  0.91835  1.0000
  C   C1239     1.0  0.21584  0.35068  0.92713  1.0000
  C   C1240     1.0  0.20613  0.35401  0.90742  1.0000
  C   C1241     1.0  0.22931  0.37528  0.90802  1.0000
  H   H2092     1.0  0.20387  0.36805  0.91461  1.0000
  H   H2093     1.0  0.21374  0.36804  0.90182  1.0000
  H   H2094     1.0  0.22889  0.36533  0.92431  1.0000
  H   H2095     1.0  0.21565  0.37328  0.92238  1.0000
  H   H2096     1.0  0.20687  0.35429  0.93041  1.0000
  H   H2097     1.0  0.23198  0.35611  0.90064  1.0000
  H   H2098     1.0  0.19907  0.35854  0.90323  1.0000
  H   H2099     1.0  0.21236  0.34919  0.90157  1.0000
  H   H2100     1.0  0.20268  0.34830  0.91502  1.0000
  H   H2101     1.0  0.23789  0.37078  0.90486  1.0000
  H   H2102     1.0  0.22469  0.37846  0.90123  1.0000
  H   H2103     1.0  0.23024  0.38268  0.91034  1.0000
  N   N88       1.0  0.15970  0.36694  0.87229  1.0000
  C   C1242     1.0  0.16013  0.37269  0.88099  1.0000
  C   C1243     1.0  0.15731  0.35560  0.87815  1.0000
  C   C1244     1.0  0.15009  0.37382  0.86688  1.0000
  C   C1245     1.0  0.17075  0.36630  0.86394  1.0000
  C   C1246     1.0  0.16084  0.38506  0.87691  1.0000
  C   C1247     1.0  0.16534  0.34836  0.88577  1.0000
  C   C1248     1.0  0.14678  0.36882  0.85888  1.0000
  C   C1249     1.0  0.17446  0.35675  0.85759  1.0000
  H   H2104     1.0  0.15265  0.37224  0.88796  1.0000
  H   H2105     1.0  0.16756  0.36849  0.88478  1.0000
  H   H2106     1.0  0.15750  0.35064  0.87218  1.0000
  H   H2107     1.0  0.14863  0.35645  0.88336  1.0000
  H   H2108     1.0  0.14238  0.37573  0.87335  1.0000
  H   H2109     1.0  0.15190  0.38203  0.86199  1.0000
  C   C1250     1.0  0.23131  0.40556  0.86674  1.0000
  H   H2110     1.0  0.25352  0.41257  0.83733  1.0000
  H   H2111     1.0  0.24145  0.33853  0.91883  1.0000
  H   H2112     1.0  0.25346  0.41196  0.86736  1.0000
  N   N89       1.0  0.25161  0.40443  0.85485  1.0000
  H   H2113     1.0  0.06508  0.42835  0.74962  1.0000
  H   H2114     1.0  0.24447  0.42084  0.85855  1.0000
  C   C1251     1.0  0.26273  0.39611  0.85393  1.0000
  N   N90       1.0  0.17990  0.40667  0.96688  1.0000
  H   H2115     1.0  0.02788  0.44478  0.77018  1.0000
  H   H2116     1.0  0.27414  0.38331  0.90554  1.0000
  S   S370      1.0  0.44968  0.23989  0.85102  1.0000
  C   C1252     1.0  0.27111  0.39742  0.84262  1.0000
  H   H2117     1.0  0.27272  0.40590  0.83928  1.0000
  H   H2118     1.0  0.25176  0.45347  0.98111  1.0000
  C   C1253     1.0  0.49145  0.26336  0.88321  1.0000
  H   H2119     1.0  0.07070  0.39301  0.74971  1.0000
  C   C1254     1.0  0.35055  0.24727  0.85464  1.0000
  H   H2120     1.0  0.30881  0.44730  0.86507  1.0000
  H   H2121     1.0  0.29389  0.48086  0.85606  1.0000
  H   H2122     1.0  0.29412  0.45000  0.86621  1.0000
  H   H2123     1.0  0.27929  0.39171  0.84362  1.0000
  H   H2124     1.0  0.26833  0.39495  0.83632  1.0000
  H   H2125     1.0  0.36488  0.23979  0.90455  1.0000
  H   H2126     1.0  0.15592  0.47851  0.79502  1.0000
  H   H2127     1.0  0.15985  0.39494  0.98236  1.0000
  H   H2128     1.0  0.17159  0.38749  0.78940  1.0000
  H   H2129     1.0  0.12074  0.48204  0.78174  1.0000
  C   C1255     1.0  0.16801  0.38676  0.79841  1.0000
  H   H2130     1.0  0.14689  0.40183  0.79874  1.0000
  H   H2131     1.0  0.14822  0.40185  0.81199  1.0000
  H   H2132     1.0  0.17297  0.37900  0.80271  1.0000
  H   H2133     1.0  0.15930  0.38558  0.80036  1.0000
  H   H2134     1.0  0.13356  0.41749  0.79942  1.0000
  H   H2135     1.0  0.13525  0.39292  0.76644  1.0000
  H   H2136     1.0  0.06095  0.31410  0.73492  1.0000
  H   H2137     1.0  0.33867  0.24180  0.90439  1.0000
  C   C1256     1.0  0.27339  0.40799  0.91175  1.0000
  H   H2138     1.0  0.27723  0.46614  0.89627  1.0000
  N   N91       1.0  0.27898  0.39666  0.90923  1.0000
  C   C1257     1.0  0.14925  0.40678  0.80333  1.0000
  H   H2139     1.0  0.23203  0.41578  0.97902  1.0000
  C   C1258     1.0  0.28050  0.41360  0.91569  1.0000
  C   C1259     1.0  0.04209  0.44796  0.75696  1.0000
  C   C1260     1.0  0.14014  0.41767  0.80356  1.0000
  H   H2140     1.0  0.16689  0.39418  0.81179  1.0000
  H   H2141     1.0  0.16142  0.40425  0.78311  1.0000
  C   C1261     1.0  0.01525  0.37398  0.74584  1.0000
  H   H2142     1.0  0.25427  0.39010  0.90750  1.0000
  H   H2143     1.0  0.00127  0.43119  0.78496  1.0000
  H   H2144     1.0  0.28765  0.41592  0.90901  1.0000
  H   H2145     1.0  0.48359  0.26085  0.88723  1.0000
  H   H2146     1.0  0.49220  0.26963  0.89701  1.0000
  N   N92       1.0  0.16130  0.40781  0.79875  1.0000
  C   C1262     1.0  0.16878  0.39673  0.80259  1.0000
  H   H2147     1.0  0.13587  0.41817  0.81227  1.0000
  H   H2148     1.0  0.16093  0.42880  0.78204  1.0000
  H   H2149     1.0  0.05591  0.41593  0.74217  1.0000
  H   H2150     1.0  0.45622  0.28443  0.88482  1.0000
  S   S371      1.0  0.44432  0.24394  0.88098  1.0000
  C   C1263     1.0  0.13825  0.38939  0.75890  1.0000
  S   S372      1.0  0.04039  0.38794  0.74544  1.0000
  H   H2151     1.0  0.45129  0.29947  0.84735  1.0000
  H   H2152     1.0  0.14302  0.42549  0.79947  1.0000
  H   H2153     1.0  0.41238  0.28149  0.90495  1.0000
  C   C1264     1.0  0.16397  0.41031  0.78623  1.0000
  H   H2154     1.0  0.17776  0.39735  0.80017  1.0000
  H   H2155     1.0  0.16135  0.42246  0.77116  1.0000
  H   H2156     1.0  0.27518  0.42150  0.91792  1.0000
  C   C1265     1.0  0.16251  0.41462  0.81553  1.0000
  C   C1266     1.0  0.49638  0.26826  0.88878  1.0000
  S   S373      1.0  0.45965  0.25983  0.86192  1.0000
  C   C1267     1.0  0.48708  0.28656  0.84871  1.0000
  H   H2157     1.0  0.27065  0.41383  0.90428  1.0000
  C   C1268     1.0  0.11264  0.47225  0.74586  1.0000
  H   H2158     1.0  0.14924  0.42311  0.78193  1.0000
  C   C1269     1.0  0.15847  0.42190  0.78025  1.0000
  H   H2159     1.0  0.17320  0.40934  0.78300  1.0000
  H   H2160     1.0  0.16364  0.42209  0.81761  1.0000
  H   H2161     1.0  0.18435  0.37805  0.96813  1.0000
  H   H2162     1.0  0.27812  0.38340  0.93701  1.0000
  C   C1270     1.0  0.30058  0.45051  0.87023  1.0000
  Fe  Fe189     1.0  0.44861  0.26039  0.87874  1.0000
  C   C1271     1.0  0.28707  0.47646  0.86099  1.0000
  H   H2163     1.0  0.34171  0.24965  0.85455  1.0000
  H   H2164     1.0  0.34874  0.25008  0.90315  1.0000
  H   H2165     1.0  0.15395  0.41343  0.81986  1.0000
  C   C1272     1.0  0.16434  0.41641  0.80281  1.0000
  H   H2166     1.0  0.38586  0.25320  0.93539  1.0000
  S   S374      1.0  0.12546  0.34470  0.73656  1.0000
  C   C1273     1.0  0.12124  0.48609  0.78820  1.0000
  H   H2167     1.0  0.27867  0.45855  0.87521  1.0000
  H   H2168     1.0  0.42958  0.25075  0.92186  1.0000
  C   C1274     1.0  0.27397  0.38620  0.92984  1.0000
  H   H2169     1.0  0.15477  0.38017  0.76140  1.0000
  H   H2170     1.0  0.17333  0.41677  0.79925  1.0000
  H   H2171     1.0  0.15971  0.42495  0.79993  1.0000
  H   H2172     1.0  0.33953  0.25409  0.89389  1.0000
  H   H2173     1.0  0.12475  0.47945  0.79472  1.0000
  C   C1275     1.0  0.29763  0.48693  0.87225  1.0000
  H   H2174     1.0  0.30674  0.46581  0.86450  1.0000
  H   H2175     1.0  0.28346  0.40836  0.92321  1.0000
  H   H2176     1.0  0.01074  0.40067  0.79484  1.0000
  C   C1276     1.0  0.35705  0.24459  0.93521  1.0000
  H   H2177     1.0  0.13635  0.38091  0.76197  1.0000
  C   C1277     1.0  0.30040  0.46231  0.87151  1.0000
  H   H2178     1.0  0.14482  0.47342  0.79365  1.0000
  C   C1278     1.0  0.22217  0.40428  0.97941  1.0000
  H   H2179     1.0  0.28995  0.39043  0.92106  1.0000
  H   H2180     1.0  0.30365  0.46094  0.87913  1.0000
  H   H2181     1.0  0.34225  0.25100  0.94653  1.0000
  C   C1279     1.0  0.27955  0.46506  0.87892  1.0000
  C   C1280     1.0  0.36401  0.24678  0.92468  1.0000
  H   H2182     1.0  0.10519  0.40048  0.76761  1.0000
  S   S375      1.0  0.08519  0.45818  0.74757  1.0000
  H   H2183     1.0  0.13278  0.41097  0.75531  1.0000
  H   H2184     1.0  0.03874  0.45683  0.75485  1.0000
  C   C1281     1.0  0.05267  0.44337  0.75120  1.0000
  H   H2185     1.0  0.15503  0.38712  0.74753  1.0000
  H   H2186     1.0  0.45600  0.31435  0.85089  1.0000
  N   N93       1.0  0.28922  0.47047  0.87234  1.0000
  C   C1282     1.0  0.18577  0.41297  0.97113  1.0000
  C   C1283     1.0  0.00298  0.39160  0.75981  1.0000
  C   C1284     1.0  0.43169  0.24237  0.92046  1.0000
  H   H2187     1.0  0.27149  0.47128  0.87879  1.0000
  C   C1285     1.0  0.28286  0.38836  0.91904  1.0000
  H   H2188     1.0  0.27390  0.45406  0.89461  1.0000
  C   C1286     1.0  0.18172  0.41067  0.95441  1.0000
  C   C1287     1.0  0.15107  0.38805  0.75613  1.0000
  C   C1288     1.0  0.27990  0.45970  0.89120  1.0000
  H   H2189     1.0  0.28828  0.45462  0.89227  1.0000
  C   C1289     1.0  0.18545  0.39446  0.96911  1.0000
  H   H2190     1.0  0.40068  0.25527  0.89559  1.0000
  H   H2191     1.0  0.25711  0.39136  0.91989  1.0000
  S   S376      1.0  0.08697  0.43153  0.74923  1.0000
  H   H2192     1.0  0.00620  0.41774  0.80952  1.0000
  H   H2193     1.0  0.36992  0.25337  0.86464  1.0000
  H   H2194     1.0  0.30622  0.48227  0.86932  1.0000
  H   H2195     1.0  0.11782  0.40288  0.76932  1.0000
  C   C1290     1.0  0.04871  0.37545  0.74216  1.0000
  C   C1291     1.0  0.11971  0.39597  0.75462  1.0000
  H   H2196     1.0  0.26561  0.40774  0.91821  1.0000
  H   H2197     1.0  0.11876  0.38728  0.75870  1.0000
  H   H2198     1.0  0.01113  0.41466  0.78899  1.0000
  H   H2199     1.0  0.29575  0.40003  0.90302  1.0000
  H   H2200     1.0  0.28971  0.38612  0.89009  1.0000
  C   C1292     1.0  0.13486  0.37991  0.74092  1.0000
  H   H2201     1.0  0.46888  0.28071  0.88970  1.0000
  C   C1293     1.0  0.29510  0.38797  0.89456  1.0000
  H   H2202     1.0  0.29805  0.38038  0.90058  1.0000
  H   H2203     1.0  0.25460  0.40351  0.90894  1.0000
  H   H2204     1.0  0.11387  0.36249  0.74967  1.0000
  H   H2205     1.0  0.27135  0.39631  0.89619  1.0000
  C   C1294     1.0  0.27120  0.39242  0.90509  1.0000
  H   H2206     1.0  0.45444  0.28452  0.84848  1.0000
  C   C1295     1.0  0.13296  0.40847  0.74759  1.0000
  H   H2207     1.0  0.16428  0.41778  0.97233  1.0000
  H   H2208     1.0  0.16287  0.40755  0.96606  1.0000
  H   H2209     1.0  0.01880  0.35891  0.73922  1.0000
  H   H2210     1.0  0.28704  0.40526  0.89320  1.0000
  H   H2211     1.0  0.11065  0.41217  0.75890  1.0000
  H   H2212     1.0  0.03088  0.36360  0.73879  1.0000
  H   H2213     1.0  0.30260  0.39001  0.88821  1.0000
  H   H2214     1.0  0.26754  0.39369  0.93154  1.0000
  C   C1296     1.0  0.28921  0.39806  0.90002  1.0000
  H   H2215     1.0  0.46976  0.31743  0.84748  1.0000
  Fe  Fe190     1.0  0.45615  0.24281  0.86464  1.0000
  H   H2216     1.0  0.01044  0.36852  0.75267  1.0000
  C   C1297     1.0  0.01071  0.41007  0.80644  1.0000
  C   C1298     1.0  0.34465  0.24673  0.89855  1.0000
  C   C1299     1.0  0.00227  0.37301  0.78665  1.0000
  H   H2217     1.0  0.01979  0.41020  0.80406  1.0000
  H   H2218     1.0  0.07460  0.41293  0.74231  1.0000
  H   H2219     1.0  0.41288  0.25623  0.91199  1.0000
  C   C1300     1.0  0.00453  0.36046  0.77456  1.0000
  H   H2220     1.0  0.16910  0.42661  0.95413  1.0000
  C   C1301     1.0  0.13578  0.39201  0.73960  1.0000
  H   H2221     1.0  0.14462  0.39237  0.73558  1.0000
  H   H2222     1.0  0.40240  0.26124  0.92922  1.0000
  C   C1302     1.0  0.07718  0.40677  0.73693  1.0000
  H   H2223     1.0  0.27923  0.48303  0.86172  1.0000
  S   S377      1.0  0.25454  0.48832  0.86547  1.0000
  H   H2224     1.0  0.09344  0.48602  0.76256  1.0000
  H   H2225     1.0  0.18258  0.42210  0.96879  1.0000
  H   H2226     1.0  0.09034  0.48581  0.74580  1.0000
  H   H2227     1.0  0.40055  0.24248  0.86847  1.0000
  H   H2228     1.0  0.39358  0.25568  0.97829  1.0000
  H   H2229     1.0  0.08345  0.38849  0.74010  1.0000
  C   C1303     1.0  0.06838  0.31568  0.73668  1.0000
  H   H2230     1.0  0.18427  0.38794  0.95532  1.0000
  H   H2231     1.0  0.18497  0.39081  0.97806  1.0000
  H   H2232     1.0  0.48784  0.29539  0.84607  1.0000
  H   H2233     1.0  0.49151  0.28254  0.84158  1.0000
  C   C1304     1.0  0.11256  0.47774  0.73482  1.0000
  H   H2234     1.0  0.12605  0.37894  0.74382  1.0000
  C   C1305     1.0  0.07874  0.39512  0.74474  1.0000
  H   H2235     1.0  0.23569  0.45148  0.97858  1.0000
  H   H2236     1.0  0.08309  0.48257  0.73298  1.0000
  H   H2237     1.0  0.07673  0.48558  0.75414  1.0000
  C   C1306     1.0  0.28615  0.46929  0.85351  1.0000
  H   H2238     1.0  0.44730  0.24447  0.90903  1.0000
  H   H2239     1.0  0.08381  0.39496  0.75064  1.0000
  C   C1307     1.0  0.02214  0.36655  0.73750  1.0000
  H   H2240     1.0  0.29435  0.46387  0.85075  1.0000
  H   H2241     1.0  0.28361  0.47490  0.84590  1.0000
  H   H2242     1.0  0.15130  0.40658  0.74073  1.0000
  H   H2243     1.0  0.39678  0.24906  0.91653  1.0000
  H   H2244     1.0  0.12565  0.41413  0.74432  1.0000
  S   S378      1.0  0.10991  0.44120  0.74212  1.0000
  Fe  Fe191     1.0  0.10150  0.43240  0.73465  1.0000
  N   N94       1.0  0.00735  0.38453  0.74158  1.0000
  H   H2245     1.0  0.06903  0.48698  0.73959  1.0000
  H   H2246     1.0  0.05622  0.40223  0.74216  1.0000
  H   H2247     1.0  0.37119  0.24047  0.92216  1.0000
  C   C1308     1.0  0.49662  0.26192  0.87241  1.0000
  H   H2248     1.0  0.00973  0.40265  0.81328  1.0000
  H   H2249     1.0  0.15086  0.48370  0.78258  1.0000
  Fe  Fe192     1.0  0.10015  0.45710  0.73352  1.0000
  H   H2250     1.0  0.39354  0.24103  0.97051  1.0000
  H   H2251     1.0  0.37934  0.25495  0.98157  1.0000
  C   C1309     1.0  0.35294  0.24008  0.89016  1.0000
  H   H2252     1.0  0.99897  0.43503  0.79807  1.0000
  H   H2253     1.0  0.00740  0.40179  0.73363  1.0000
  H   H2254     1.0  0.99840  0.36611  0.74272  1.0000
  S   S379      1.0  0.41217  0.23955  0.93529  1.0000
  H   H2255     1.0  0.13091  0.39739  0.73330  1.0000
  C   C1310     1.0  0.07725  0.48948  0.73670  1.0000
  Fe  Fe193     1.0  0.25346  0.55357  0.10665  1.0000
  S   S380      1.0  0.27142  0.54582  0.10079  1.0000
  S   S381      1.0  0.24092  0.56057  0.09577  1.0000
  Fe  Fe194     1.0  0.25540  0.54835  0.13055  1.0000
  S   S382      1.0  0.27361  0.53989  0.12668  1.0000
  S   S383      1.0  0.24584  0.54873  0.14809  1.0000
  Fe  Fe195     1.0  0.27485  0.55454  0.11221  1.0000
  S   S384      1.0  0.28804  0.56497  0.10540  1.0000
  Fe  Fe196     1.0  0.26835  0.53200  0.11564  1.0000
  S   S385      1.0  0.27425  0.51379  0.11438  1.0000
  S   S386      1.0  0.25705  0.56343  0.11686  1.0000
  S   S387      1.0  0.25009  0.53929  0.12078  1.0000
  Fe  Fe197     1.0  0.24884  0.60375  0.04536  1.0000
  S   S388      1.0  0.23271  0.60648  0.04003  1.0000
  S   S389      1.0  0.26021  0.58693  0.04828  1.0000
  Fe  Fe198     1.0  0.24627  0.62782  0.04594  1.0000
  S   S390      1.0  0.23010  0.63279  0.04005  1.0000
  S   S391      1.0  0.25085  0.64071  0.05209  1.0000
  Fe  Fe199     1.0  0.22576  0.61759  0.05231  1.0000
  S   S392      1.0  0.20831  0.62002  0.06296  1.0000
  Fe  Fe200     1.0  0.23827  0.62139  0.02812  1.0000
  S   S393      1.0  0.23549  0.62653  0.01045  1.0000
  S   S394      1.0  0.24136  0.61326  0.05896  1.0000
  S   S395      1.0  0.25506  0.61798  0.03268  1.0000
  H   H2256     1.0  0.18550  0.56345  0.12670  1.0000
  H   H2257     1.0  0.33748  0.65493  0.16082  1.0000
  Fe  Fe201     1.0  0.34888  0.70637  0.13597  1.0000
  S   S396      1.0  0.35704  0.68813  0.13663  1.0000
  S   S397      1.0  0.34877  0.71456  0.14990  1.0000
  Fe  Fe202     1.0  0.34535  0.70920  0.11268  1.0000
  S   S398      1.0  0.35368  0.69156  0.11142  1.0000
  S   S399      1.0  0.33965  0.72214  0.09843  1.0000
  Fe  Fe203     1.0  0.34335  0.68734  0.12861  1.0000
  S   S400      1.0  0.33286  0.67374  0.13440  1.0000
  Fe  Fe204     1.0  0.36650  0.69402  0.11934  1.0000
  S   S401      1.0  0.38531  0.69063  0.11209  1.0000
  S   S402      1.0  0.33443  0.70512  0.12956  1.0000
  S   S403      1.0  0.35882  0.71198  0.11913  1.0000
  H   H2258     1.0  0.29354  0.69163  0.10291  1.0000
  S   S404      1.0  0.11845  0.61894  0.20622  1.0000
  H   H2259     1.0  0.19000  0.57488  0.12847  1.0000
  H   H2260     1.0  0.30380  0.67942  0.12331  1.0000
  H   H2261     1.0  0.03952  0.61078  0.21858  1.0000
  Fe  Fe205     1.0  0.13169  0.62353  0.21168  1.0000
  S   S405      1.0  0.14665  0.63005  0.20022  1.0000
  H   H2262     1.0  0.29460  0.69312  0.12214  1.0000
  Fe  Fe206     1.0  0.28823  0.62120  0.11623  1.0000
  S   S406      1.0  0.27526  0.62802  0.10587  1.0000
  S   S407      1.0  0.28641  0.60451  0.12756  1.0000
  Fe  Fe207     1.0  0.29901  0.64185  0.10760  1.0000
  S   S408      1.0  0.28694  0.64969  0.09605  1.0000
  S   S409      1.0  0.31147  0.65275  0.10649  1.0000
  Fe  Fe208     1.0  0.27374  0.64405  0.11060  1.0000
  S   S410      1.0  0.25781  0.65652  0.11501  1.0000
  Fe  Fe209     1.0  0.28957  0.63288  0.09234  1.0000
  S   S411      1.0  0.29196  0.62860  0.07568  1.0000
  S   S412      1.0  0.28545  0.63700  0.12233  1.0000
  S   S413      1.0  0.30283  0.62525  0.10249  1.0000
  Fe  Fe210     1.0  0.20965  0.60591  0.14878  1.0000
  S   S414      1.0  0.19709  0.60025  0.14361  1.0000
  S   S415      1.0  0.21814  0.59397  0.16187  1.0000
  Fe  Fe211     1.0  0.20547  0.62866  0.13390  1.0000
  S   S416      1.0  0.19233  0.62497  0.12743  1.0000
  S   S417      1.0  0.20943  0.64569  0.12802  1.0000
  Fe  Fe212     1.0  0.18610  0.61699  0.14527  1.0000
  S   S418      1.0  0.16795  0.61668  0.15354  1.0000
  Fe  Fe213     1.0  0.20443  0.60865  0.12643  1.0000
  S   S419      1.0  0.21004  0.59867  0.11322  1.0000
  S   S420      1.0  0.19819  0.62208  0.15184  1.0000
  S   S421      1.0  0.21806  0.61293  0.13150  1.0000
  S   S422      1.0  0.38538  0.72873  0.06574  1.0000
  C   C1311     1.0  0.39205  0.71916  0.15500  1.0000
  Fe  Fe214     1.0  0.45903  0.71371  0.11741  1.0000
  S   S423      1.0  0.47641  0.70721  0.12128  1.0000
  Fe  Fe215     1.0  0.43422  0.71279  0.12089  1.0000
  S   S424      1.0  0.49587  0.72719  0.15078  1.0000
  S   S425      1.0  0.41958  0.70483  0.13131  1.0000
  Fe  Fe216     1.0  0.44755  0.71977  0.09774  1.0000
  S   S426      1.0  0.45075  0.71941  0.07967  1.0000
  H   H2263     1.0  0.03781  0.63884  0.21035  1.0000
  S   S427      1.0  0.45025  0.70426  0.11101  1.0000
  S   S428      1.0  0.44325  0.72086  0.12855  1.0000
  H   H2264     1.0  0.18948  0.64027  0.04363  1.0000
  H   H2265     1.0  0.19115  0.57548  0.14702  1.0000
  H   H2266     1.0  0.40839  0.69892  0.08286  1.0000
  N   N95       1.0  0.21197  0.56353  0.13010  1.0000
  C   C1312     1.0  0.19808  0.62271  0.01180  1.0000
  C   C1313     1.0  0.47432  0.71927  0.13712  1.0000
  C   C1314     1.0  0.06762  0.63685  0.22485  1.0000
  C   C1315     1.0  0.09920  0.57455  0.21852  1.0000
  H   H2267     1.0  0.20943  0.60620  0.04697  1.0000
  H   H2268     1.0  0.18306  0.62202  0.02456  1.0000
  H   H2269     1.0  0.02951  0.62704  0.22603  1.0000
  C   C1316     1.0  0.03190  0.61037  0.21616  1.0000
  C   C1317     1.0  0.13023  0.64165  0.16940  1.0000
  C   C1318     1.0  0.48149  0.71290  0.12962  1.0000
  C   C1319     1.0  0.49311  0.71087  0.12872  1.0000
  H   H2270     1.0  0.34619  0.73462  0.13212  1.0000
  H   H2271     1.0  0.19899  0.59211  0.19744  1.0000
  C   C1320     1.0  0.24468  0.65279  0.11883  1.0000
  C   C1321     1.0  0.23509  0.66128  0.12007  1.0000
  C   C1322     1.0  0.22441  0.65889  0.12296  1.0000
  C   C1323     1.0  0.22316  0.64795  0.12480  1.0000
  C   C1324     1.0  0.23272  0.63934  0.12367  1.0000
  C   C1325     1.0  0.24352  0.64177  0.12060  1.0000
  H   H2272     1.0  0.23590  0.66980  0.11869  1.0000
  H   H2273     1.0  0.21707  0.66558  0.12376  1.0000
  H   H2274     1.0  0.23179  0.63090  0.12494  1.0000
  H   H2275     1.0  0.25092  0.63519  0.11958  1.0000
  C   C1326     1.0  0.15259  0.62602  0.18739  1.0000
  C   C1327     1.0  0.14784  0.61940  0.18367  1.0000
  C   C1328     1.0  0.15254  0.61673  0.17319  1.0000
  C   C1329     1.0  0.16215  0.62044  0.16650  1.0000
  C   C1330     1.0  0.16690  0.62704  0.17023  1.0000
  C   C1331     1.0  0.16211  0.62985  0.18063  1.0000
  H   H2276     1.0  0.14053  0.61638  0.18882  1.0000
  H   H2277     1.0  0.14881  0.61164  0.17033  1.0000
  H   H2278     1.0  0.17421  0.63006  0.16506  1.0000
  H   H2279     1.0  0.16577  0.63503  0.18344  1.0000
  C   C1332     1.0  0.31753  0.65818  0.11452  1.0000
  C   C1333     1.0  0.32438  0.66593  0.10897  1.0000
  C   C1334     1.0  0.32910  0.67077  0.11486  1.0000
  C   C1335     1.0  0.32713  0.66786  0.12647  1.0000
  C   C1336     1.0  0.32030  0.66008  0.13203  1.0000
  C   C1337     1.0  0.31552  0.65530  0.12614  1.0000
  H   H2280     1.0  0.32606  0.66824  0.10000  1.0000
  H   H2281     1.0  0.33434  0.67668  0.11039  1.0000
  H   H2282     1.0  0.31873  0.65768  0.14099  1.0000
  H   H2283     1.0  0.31036  0.64931  0.13058  1.0000
  C   C1338     1.0  0.35174  0.72375  0.08817  1.0000
  C   C1339     1.0  0.36083  0.71472  0.08719  1.0000
  C   C1340     1.0  0.37099  0.71623  0.07991  1.0000
  C   C1341     1.0  0.37220  0.72686  0.07383  1.0000
  H   H2284     1.0  0.03507  0.62353  0.19677  1.0000
  H   H2285     1.0  0.09488  0.58487  0.23010  1.0000
  H   H2286     1.0  0.36011  0.70654  0.09213  1.0000
  H   H2287     1.0  0.37804  0.70922  0.07941  1.0000
  H   H2288     1.0  0.14966  0.66645  0.17732  1.0000
  S   S429      1.0  0.08952  0.63882  0.21731  1.0000
  C   C1342     1.0  0.39468  0.69476  0.11747  1.0000
  C   C1343     1.0  0.40534  0.69585  0.11091  1.0000
  C   C1344     1.0  0.41297  0.69921  0.11490  1.0000
  C   C1345     1.0  0.41016  0.70105  0.12568  1.0000
  C   C1346     1.0  0.39966  0.69956  0.13236  1.0000
  C   C1347     1.0  0.39182  0.69676  0.12819  1.0000
  H   H2289     1.0  0.40774  0.69399  0.10276  1.0000
  H   H2290     1.0  0.42118  0.69995  0.10981  1.0000
  H   H2291     1.0  0.39766  0.70033  0.14088  1.0000
  H   H2292     1.0  0.38374  0.69571  0.13342  1.0000
  H   H2293     1.0  0.31724  0.68254  0.15928  1.0000
  H   H2294     1.0  0.21035  0.64197  0.02905  1.0000
  H   H2295     1.0  0.01890  0.60605  0.20436  1.0000
  C   C1348     1.0  0.21809  0.54728  0.14603  1.0000
  Fe  Fe217     1.0  0.12006  0.60420  0.22047  1.0000
  H   H2296     1.0  0.21678  0.55232  0.15228  1.0000
  H   H2297     1.0  0.25664  0.51582  0.05414  1.0000
  H   H2298     1.0  0.20566  0.55232  0.12455  1.0000
  H   H2299     1.0  0.21088  0.54341  0.14738  1.0000
  H   H2300     1.0  0.17869  0.59601  0.16747  1.0000
  H   H2301     1.0  0.40833  0.72420  0.05122  1.0000
  C   C1349     1.0  0.26234  0.63714  0.05860  1.0000
  C   C1350     1.0  0.26129  0.64133  0.06797  1.0000
  C   C1351     1.0  0.27026  0.63870  0.07335  1.0000
  C   C1352     1.0  0.28053  0.63219  0.06911  1.0000
  C   C1353     1.0  0.28173  0.62832  0.05950  1.0000
  C   C1354     1.0  0.27262  0.63069  0.05432  1.0000
  H   H2302     1.0  0.25354  0.64673  0.07098  1.0000
  H   H2303     1.0  0.26933  0.64189  0.08063  1.0000
  H   H2304     1.0  0.28970  0.62341  0.05610  1.0000
  H   H2305     1.0  0.27364  0.62775  0.04687  1.0000
  C   C1355     1.0  0.20852  0.61408  0.07698  1.0000
  C   C1356     1.0  0.20049  0.61875  0.08536  1.0000
  C   C1357     1.0  0.20096  0.61424  0.09657  1.0000
  C   C1358     1.0  0.20927  0.60487  0.09938  1.0000
  C   C1359     1.0  0.21712  0.60011  0.09098  1.0000
  C   C1360     1.0  0.21687  0.60482  0.07982  1.0000
  H   H2306     1.0  0.19403  0.62594  0.08317  1.0000
  H   H2307     1.0  0.19482  0.61788  0.10303  1.0000
  H   H2308     1.0  0.22353  0.59284  0.09309  1.0000
  H   H2309     1.0  0.22303  0.60114  0.07341  1.0000
  C   C1361     1.0  0.22995  0.61841  0.00491  1.0000
  C   C1362     1.0  0.22747  0.62260  0.99432  1.0000
  H   H2310     1.0  0.03514  0.60658  0.20873  1.0000
  H   H2311     1.0  0.24829  0.60688  0.99401  1.0000
  C   C1363     1.0  0.22457  0.60127  0.00570  1.0000
  C   C1364     1.0  0.22844  0.60772  0.01060  1.0000
  H   H2312     1.0  0.10700  0.65565  0.20815  1.0000
  H   H2313     1.0  0.20464  0.58042  0.13211  1.0000
  H   H2314     1.0  0.22347  0.59299  0.01013  1.0000
  H   H2315     1.0  0.23045  0.60431  0.01868  1.0000
  C   C1365     1.0  0.23866  0.56162  0.15153  1.0000
  C   C1366     1.0  0.23684  0.57139  0.14341  1.0000
  C   C1367     1.0  0.23041  0.58137  0.14649  1.0000
  C   C1368     1.0  0.22610  0.58165  0.15772  1.0000
  C   C1369     1.0  0.22817  0.57196  0.16583  1.0000
  C   C1370     1.0  0.23429  0.56195  0.16273  1.0000
  H   H2316     1.0  0.24021  0.57121  0.13477  1.0000
  H   H2317     1.0  0.22886  0.58884  0.14017  1.0000
  H   H2318     1.0  0.22495  0.57215  0.17451  1.0000
  H   H2319     1.0  0.23571  0.55443  0.16904  1.0000
  C   C1371     1.0  0.28725  0.57600  0.11166  1.0000
  C   C1372     1.0  0.28007  0.57716  0.12191  1.0000
  C   C1373     1.0  0.27985  0.58593  0.12673  1.0000
  C   C1374     1.0  0.28644  0.59385  0.12115  1.0000
  C   C1375     1.0  0.29334  0.59288  0.11075  1.0000
  C   C1376     1.0  0.29394  0.58383  0.10618  1.0000
  H   H2320     1.0  0.27495  0.57111  0.12626  1.0000
  H   H2321     1.0  0.27461  0.58653  0.13484  1.0000
  H   H2322     1.0  0.29857  0.59884  0.10644  1.0000
  H   H2323     1.0  0.29969  0.58285  0.09838  1.0000
  H   H2324     1.0  0.19040  0.57556  0.18256  1.0000
  C   C1377     1.0  0.25150  0.50865  0.10019  1.0000
  C   C1378     1.0  0.25677  0.51341  0.10555  1.0000
  C   C1379     1.0  0.26727  0.50793  0.10792  1.0000
  C   C1380     1.0  0.27229  0.49749  0.10518  1.0000
  C   C1381     1.0  0.40621  0.72849  0.15576  1.0000
  H   H2325     1.0  0.24344  0.51301  0.09826  1.0000
  H   H2326     1.0  0.25275  0.52136  0.10778  1.0000
  H   H2327     1.0  0.32522  0.66514  0.15857  1.0000
  C   C1382     1.0  0.24637  0.56781  0.08255  1.0000
  C   C1383     1.0  0.25783  0.56531  0.07783  1.0000
  C   C1384     1.0  0.26202  0.57096  0.06713  1.0000
  C   C1385     1.0  0.25481  0.57940  0.06130  1.0000
  C   C1386     1.0  0.24338  0.58200  0.06605  1.0000
  C   C1387     1.0  0.23913  0.57608  0.07661  1.0000
  H   H2328     1.0  0.26346  0.55893  0.08232  1.0000
  H   H2329     1.0  0.27087  0.56896  0.06346  1.0000
  H   H2330     1.0  0.23778  0.58850  0.06154  1.0000
  H   H2331     1.0  0.23025  0.57803  0.08023  1.0000
  C   C1388     1.0  0.20829  0.57225  0.13704  1.0000
  N   N96       1.0  0.27381  0.59567  0.07958  1.0000
  C   C1389     1.0  0.28601  0.59535  0.07863  1.0000
  C   C1390     1.0  0.26715  0.60709  0.08108  1.0000
  C   C1391     1.0  0.27202  0.59343  0.06931  1.0000
  C   C1392     1.0  0.27012  0.58678  0.08935  1.0000
  C   C1393     1.0  0.29445  0.58506  0.07505  1.0000
  C   C1394     1.0  0.26745  0.61033  0.09174  1.0000
  C   C1395     1.0  0.27547  0.60167  0.05839  1.0000
  C   C1396     1.0  0.25734  0.58718  0.09284  1.0000
  H   H2332     1.0  0.28861  0.60293  0.07287  1.0000
  H   H2333     1.0  0.28748  0.59560  0.08670  1.0000
  H   H2334     1.0  0.25828  0.60821  0.08068  1.0000
  H   H2335     1.0  0.27029  0.61356  0.07410  1.0000
  H   H2336     1.0  0.27644  0.58485  0.06824  1.0000
  H   H2337     1.0  0.26305  0.59360  0.07002  1.0000
  H   H2338     1.0  0.27433  0.57833  0.08773  1.0000
  H   H2339     1.0  0.27288  0.58715  0.09676  1.0000
  H   H2340     1.0  0.30295  0.58542  0.07553  1.0000
  H   H2341     1.0  0.29260  0.57716  0.08062  1.0000
  H   H2342     1.0  0.29486  0.58493  0.06633  1.0000
  H   H2343     1.0  0.26385  0.60477  0.09938  1.0000
  H   H2344     1.0  0.27606  0.61057  0.09198  1.0000
  H   H2345     1.0  0.26244  0.61892  0.09183  1.0000
  H   H2346     1.0  0.26912  0.60960  0.05785  1.0000
  H   H2347     1.0  0.27571  0.59816  0.05127  1.0000
  H   H2348     1.0  0.28388  0.60332  0.05724  1.0000
  H   H2349     1.0  0.25593  0.57861  0.09447  1.0000
  H   H2350     1.0  0.25241  0.59233  0.08662  1.0000
  H   H2351     1.0  0.25377  0.58998  0.10080  1.0000
  C   C1397     1.0  0.21681  0.56885  0.11833  1.0000
  C   C1398     1.0  0.22108  0.55415  0.13417  1.0000
  C   C1399     1.0  0.22726  0.57354  0.11670  1.0000
  H   H2352     1.0  0.21909  0.56282  0.11278  1.0000
  H   H2353     1.0  0.21055  0.57594  0.11483  1.0000
  H   H2354     1.0  0.22429  0.54822  0.12847  1.0000
  H   H2355     1.0  0.22841  0.55734  0.13415  1.0000
  H   H2356     1.0  0.21565  0.57364  0.13918  1.0000
  H   H2357     1.0  0.22914  0.57848  0.10810  1.0000
  H   H2358     1.0  0.22614  0.57917  0.12233  1.0000
  H   H2359     1.0  0.23465  0.56672  0.11763  1.0000
  N   N97       1.0  0.25964  0.53190  0.07105  1.0000
  C   C1400     1.0  0.26932  0.52378  0.07557  1.0000
  C   C1401     1.0  0.25420  0.52538  0.06659  1.0000
  C   C1402     1.0  0.25141  0.53666  0.08047  1.0000
  C   C1403     1.0  0.26431  0.54099  0.06221  1.0000
  C   C1404     1.0  0.27478  0.52803  0.08255  1.0000
  C   C1405     1.0  0.26177  0.51974  0.05713  1.0000
  C   C1406     1.0  0.23913  0.54135  0.07926  1.0000
  C   C1407     1.0  0.25615  0.54977  0.05560  1.0000
  H   H2360     1.0  0.26668  0.51603  0.08086  1.0000
  H   H2361     1.0  0.27622  0.52102  0.06875  1.0000
  H   H2362     1.0  0.24671  0.53059  0.06346  1.0000
  H   H2363     1.0  0.25098  0.51871  0.07342  1.0000
  H   H2364     1.0  0.25089  0.53021  0.08826  1.0000
  H   H2365     1.0  0.25434  0.54334  0.08224  1.0000
  H   H2366     1.0  0.26780  0.54586  0.06595  1.0000
  H   H2367     1.0  0.27173  0.53755  0.05619  1.0000
  H   H2368     1.0  0.27819  0.53550  0.07789  1.0000
  H   H2369     1.0  0.26889  0.52973  0.09033  1.0000
  H   H2370     1.0  0.28192  0.52140  0.08510  1.0000
  H   H2371     1.0  0.26857  0.51292  0.06002  1.0000
  H   H2372     1.0  0.37908  0.71830  0.04940  1.0000
  H   H2373     1.0  0.07446  0.60529  0.22554  1.0000
  H   H2374     1.0  0.23496  0.53460  0.07966  1.0000
  H   H2375     1.0  0.23825  0.54785  0.07168  1.0000
  H   H2376     1.0  0.23439  0.54527  0.08639  1.0000
  H   H2377     1.0  0.25175  0.55668  0.05996  1.0000
  H   H2378     1.0  0.24995  0.54634  0.05369  1.0000
  H   H2379     1.0  0.26098  0.55335  0.04737  1.0000
  C   C1408     1.0  0.20260  0.57511  0.19615  1.0000
  H   H2380     1.0  0.20680  0.58968  0.18426  1.0000
  H   H2381     1.0  0.42663  0.69894  0.05930  1.0000
  H   H2382     1.0  0.20957  0.57367  0.20042  1.0000
  H   H2383     1.0  0.19553  0.57209  0.20243  1.0000
  N   N98       1.0  0.28449  0.67943  0.11435  1.0000
  C   C1409     1.0  0.28302  0.67385  0.10600  1.0000
  C   C1410     1.0  0.28584  0.67053  0.12469  1.0000
  C   C1411     1.0  0.29502  0.68398  0.10948  1.0000
  C   C1412     1.0  0.27429  0.68864  0.11627  1.0000
  C   C1413     1.0  0.28307  0.68097  0.09413  1.0000
  C   C1414     1.0  0.27554  0.66537  0.13074  1.0000
  C   C1415     1.0  0.27290  0.69436  0.12588  1.0000
  H   H2384     1.0  0.28978  0.66628  0.10519  1.0000
  H   H2385     1.0  0.27501  0.67091  0.10874  1.0000
  H   H2386     1.0  0.28808  0.67352  0.13097  1.0000
  H   H2387     1.0  0.29301  0.66357  0.12269  1.0000
  H   H2388     1.0  0.30176  0.67786  0.10529  1.0000
  H   H2389     1.0  0.27414  0.69543  0.10871  1.0000
  H   H2390     1.0  0.26643  0.68572  0.11744  1.0000
  H   H2391     1.0  0.29134  0.68313  0.09001  1.0000
  H   H2392     1.0  0.28153  0.67597  0.08902  1.0000
  H   H2393     1.0  0.27632  0.68859  0.09392  1.0000
  H   H2394     1.0  0.27740  0.65934  0.13842  1.0000
  H   H2395     1.0  0.26800  0.67171  0.13324  1.0000
  H   H2396     1.0  0.27367  0.66058  0.12570  1.0000
  H   H2397     1.0  0.27608  0.70219  0.12275  1.0000
  H   H2398     1.0  0.27695  0.68911  0.13270  1.0000
  H   H2399     1.0  0.26385  0.69655  0.12977  1.0000
  N   N99       1.0  0.22785  0.63751  0.09104  1.0000
  C   C1416     1.0  0.23806  0.63837  0.09445  1.0000
  C   C1417     1.0  0.22577  0.62594  0.09628  1.0000
  C   C1418     1.0  0.21796  0.64607  0.09540  1.0000
  C   C1419     1.0  0.23042  0.63973  0.07854  1.0000
  C   C1420     1.0  0.23989  0.65027  0.09278  1.0000
  C   C1421     1.0  0.23537  0.61627  0.09301  1.0000
  C   C1422     1.0  0.20613  0.64395  0.09709  1.0000
  C   C1423     1.0  0.22148  0.63880  0.07297  1.0000
  H   H2400     1.0  0.23780  0.63441  0.10336  1.0000
  H   H2401     1.0  0.24587  0.63370  0.08985  1.0000
  H   H2402     1.0  0.21827  0.62472  0.09434  1.0000
  H   H2403     1.0  0.22387  0.62464  0.10550  1.0000
  H   H2404     1.0  0.21842  0.64675  0.10375  1.0000
  H   H2405     1.0  0.21816  0.65450  0.08997  1.0000
  H   H2406     1.0  0.23193  0.64829  0.07493  1.0000
  H   H2407     1.0  0.23849  0.63437  0.07521  1.0000
  H   H2408     1.0  0.23949  0.65531  0.08432  1.0000
  H   H2409     1.0  0.23375  0.65482  0.09891  1.0000
  H   H2410     1.0  0.24833  0.64970  0.09414  1.0000
  H   H2411     1.0  0.24304  0.61606  0.09566  1.0000
  H   H2412     1.0  0.23281  0.60827  0.09739  1.0000
  H   H2413     1.0  0.23716  0.61654  0.08399  1.0000
  H   H2414     1.0  0.19981  0.65137  0.09937  1.0000
  H   H2415     1.0  0.20460  0.63683  0.10412  1.0000
  H   H2416     1.0  0.20448  0.64257  0.08960  1.0000
  H   H2417     1.0  0.21519  0.64675  0.07179  1.0000
  H   H2418     1.0  0.21726  0.63188  0.07743  1.0000
  H   H2419     1.0  0.22564  0.63682  0.06470  1.0000
  H   H2420     1.0  0.00556  0.63903  0.22485  1.0000
  C   C1424     1.0  0.42857  0.70077  0.06644  1.0000
  H   H2421     1.0  0.40611  0.71435  0.09292  1.0000
  C   C1425     1.0  0.11842  0.66446  0.17516  1.0000
  H   H2422     1.0  0.39647  0.73888  0.99413  1.0000
  H   H2423     1.0  0.10366  0.58055  0.21201  1.0000
  H   H2424     1.0  0.38387  0.71599  0.14338  1.0000
  H   H2425     1.0  0.13681  0.67472  0.17401  1.0000
  C   C1426     1.0  0.07875  0.63137  0.22156  1.0000
  H   H2426     1.0  0.37308  0.71683  0.03896  1.0000
  H   H2427     1.0  0.08514  0.58808  0.22142  1.0000
  C   C1427     1.0  0.24757  0.49130  0.13033  1.0000
  H   H2428     1.0  0.26531  0.52582  0.04993  1.0000
  H   H2429     1.0  0.07086  0.57722  0.22507  1.0000
  H   H2430     1.0  0.40378  0.72639  0.16497  1.0000
  H   H2431     1.0  0.12196  0.66356  0.19636  1.0000
  H   H2432     1.0  0.10932  0.64499  0.20077  1.0000
  H   H2433     1.0  0.42855  0.73324  0.08488  1.0000
  C   C1428     1.0  0.02187  0.62722  0.22324  1.0000
  H   H2434     1.0  0.27261  0.58654  0.98454  1.0000
  H   H2435     1.0  0.24957  0.49464  0.14572  1.0000
  H   H2436     1.0  0.37638  0.71375  0.15769  1.0000
  H   H2437     1.0  0.01583  0.64399  0.21311  1.0000
  H   H2438     1.0  0.00671  0.61558  0.20059  1.0000
  H   H2439     1.0  0.48572  0.73784  0.12416  1.0000
  H   H2440     1.0  0.11080  0.66160  0.17534  1.0000
  H   H2441     1.0  0.37437  0.72180  0.12629  1.0000
  H   H2442     1.0  0.24902  0.50632  0.13427  1.0000
  C   C1429     1.0  0.04098  0.63235  0.20531  1.0000
  H   H2443     1.0  0.32250  0.70536  0.15734  1.0000
  H   H2444     1.0  0.34511  0.66703  0.16687  1.0000
  H   H2445     1.0  0.41513  0.71102  0.15539  1.0000
  H   H2446     1.0  0.41728  0.71817  0.09590  1.0000
  C   C1430     1.0  0.41670  0.71958  0.15244  1.0000
  C   C1431     1.0  0.35061  0.72839  0.14806  1.0000
  C   C1432     1.0  0.19974  0.60867  0.03418  1.0000
  H   H2447     1.0  0.25779  0.58169  0.98323  1.0000
  H   H2448     1.0  0.25626  0.59326  0.99683  1.0000
  H   H2449     1.0  0.37289  0.72153  0.09916  1.0000
  C   C1433     1.0  0.06153  0.61937  0.22949  1.0000
  C   C1434     1.0  0.25663  0.49832  0.09726  1.0000
  C   C1435     1.0  0.33091  0.67291  0.18687  1.0000
  H   H2450     1.0  0.17227  0.58544  0.17808  1.0000
  C   C1436     1.0  0.37098  0.71933  0.04705  1.0000
  N   N100      1.0  0.19625  0.62121  0.03268  1.0000
  H   H2451     1.0  0.40133  0.71252  0.07737  1.0000
  N   N101      1.0  0.35299  0.73473  0.04422  1.0000
  H   H2452     1.0  0.06567  0.64575  0.22433  1.0000
  H   H2453     1.0  0.21096  0.63875  0.01634  1.0000
  H   H2454     1.0  0.35477  0.72511  0.16403  1.0000
  H   H2455     1.0  0.10342  0.65926  0.19487  1.0000
  S   S430      1.0  0.12107  0.58687  0.21895  1.0000
  H   H2456     1.0  0.03226  0.59367  0.22634  1.0000
  H   H2457     1.0  0.35633  0.67957  0.16194  1.0000
  C   C1437     1.0  0.12730  0.56697  0.23275  1.0000
  C   C1438     1.0  0.44030  0.70363  0.06234  1.0000
  H   H2458     1.0  0.00907  0.62999  0.20818  1.0000
  S   S431      1.0  0.25014  0.49318  0.08969  1.0000
  H   H2459     1.0  0.20619  0.62525  0.00978  1.0000
  C   C1439     1.0  0.33160  0.66228  0.16374  1.0000
  C   C1440     1.0  0.19070  0.62546  0.02285  1.0000
  C   C1441     1.0  0.35058  0.68451  0.16795  1.0000
  H   H2460     1.0  0.38719  0.71576  0.09446  1.0000
  C   C1442     1.0  0.12033  0.57760  0.23189  1.0000
  H   H2461     1.0  0.12736  0.64918  0.19935  1.0000
  C   C1443     1.0  0.49045  0.72157  0.14264  1.0000
  S   S432      1.0  0.45776  0.72834  0.10308  1.0000
  H   H2462     1.0  0.40491  0.70666  0.05882  1.0000
  H   H2463     1.0  0.04581  0.63617  0.19720  1.0000
  H   H2464     1.0  0.04694  0.62537  0.20934  1.0000
  H   H2465     1.0  0.12296  0.66577  0.16632  1.0000
  H   H2466     1.0  0.37884  0.73695  0.01938  1.0000
  H   H2467     1.0  0.19274  0.60510  0.03386  1.0000
  N   N102      1.0  0.41938  0.70941  0.07151  1.0000
  C   C1444     1.0  0.42250  0.71022  0.08179  1.0000
  C   C1445     1.0  0.34879  0.73662  0.13859  1.0000
  H   H2468     1.0  0.32763  0.65935  0.17253  1.0000
  C   C1446     1.0  0.41821  0.72081  0.06390  1.0000
  C   C1447     1.0  0.41370  0.71779  0.08903  1.0000
  C   C1448     1.0  0.25226  0.49718  0.13659  1.0000
  H   H2469     1.0  0.38204  0.71601  0.10875  1.0000
  C   C1449     1.0  0.41725  0.72176  0.05191  1.0000
  C   C1450     1.0  0.14042  0.66725  0.17976  1.0000
  H   H2470     1.0  0.43029  0.71340  0.07963  1.0000
  S   S433      1.0  0.11932  0.63372  0.22342  1.0000
  Fe  Fe218     1.0  0.10629  0.62764  0.21916  1.0000
  H   H2471     1.0  0.35461  0.69138  0.16753  1.0000
  H   H2472     1.0  0.44021  0.71182  0.05649  1.0000
  H   H2473     1.0  0.41064  0.72662  0.06743  1.0000
  H   H2474     1.0  0.42523  0.72473  0.06335  1.0000
  Fe  Fe219     1.0  0.44160  0.73495  0.11379  1.0000
  H   H2475     1.0  0.34687  0.71453  0.05616  1.0000
  H   H2476     1.0  0.01704  0.62232  0.23061  1.0000
  H   H2477     1.0  0.37595  0.73187  0.16815  1.0000
  H   H2478     1.0  0.14095  0.65637  0.16966  1.0000
  N   N103      1.0  0.02472  0.62188  0.21342  1.0000
  H   H2479     1.0  0.42153  0.72840  0.04628  1.0000
  H   H2480     1.0  0.42012  0.72113  0.14339  1.0000
  H   H2481     1.0  0.38733  0.73492  0.08888  1.0000
  H   H2482     1.0  0.44606  0.69725  0.05784  1.0000
  C   C1451     1.0  0.43206  0.73581  0.07618  1.0000
  N   N104      1.0  0.25086  0.60944  0.15085  1.0000
  C   C1452     1.0  0.26259  0.61118  0.14549  1.0000
  C   C1453     1.0  0.24892  0.60094  0.14576  1.0000
  C   C1454     1.0  0.25038  0.60494  0.16313  1.0000
  C   C1455     1.0  0.24288  0.62056  0.14874  1.0000
  C   C1456     1.0  0.26690  0.61879  0.15017  1.0000
  C   C1457     1.0  0.24959  0.60424  0.13312  1.0000
  C   C1458     1.0  0.24108  0.59856  0.16972  1.0000
  C   C1459     1.0  0.23021  0.62073  0.15212  1.0000
  H   H2483     1.0  0.26870  0.60301  0.14612  1.0000
  H   H2484     1.0  0.26339  0.61495  0.13647  1.0000
  H   H2485     1.0  0.24066  0.59874  0.14958  1.0000
  H   H2486     1.0  0.25510  0.59292  0.14743  1.0000
  H   H2487     1.0  0.25839  0.59899  0.16453  1.0000
  H   H2488     1.0  0.24951  0.61178  0.16736  1.0000
  H   H2489     1.0  0.24411  0.62632  0.15324  1.0000
  H   H2490     1.0  0.24481  0.62495  0.13992  1.0000
  H   H2491     1.0  0.26205  0.62751  0.14875  1.0000
  H   H2492     1.0  0.26711  0.61559  0.15908  1.0000
  H   H2493     1.0  0.27569  0.61904  0.14567  1.0000
  H   H2494     1.0  0.24702  0.59779  0.13060  1.0000
  H   H2495     1.0  0.24386  0.61229  0.13069  1.0000
  H   H2496     1.0  0.25828  0.60449  0.12836  1.0000
  H   H2497     1.0  0.23262  0.60350  0.16896  1.0000
  H   H2498     1.0  0.24128  0.59650  0.17867  1.0000
  H   H2499     1.0  0.24246  0.59049  0.16729  1.0000
  H   H2500     1.0  0.22676  0.62166  0.16083  1.0000
  H   H2501     1.0  0.22801  0.61342  0.15093  1.0000
  H   H2502     1.0  0.22575  0.62794  0.14669  1.0000
  H   H2503     1.0  0.39655  0.69929  0.07042  1.0000
  H   H2504     1.0  0.21392  0.62093  0.02614  1.0000
  C   C1460     1.0  0.01393  0.62143  0.21091  1.0000
  H   H2505     1.0  0.10567  0.56857  0.22277  1.0000
  H   H2506     1.0  0.32513  0.66844  0.19368  1.0000
  N   N105      1.0  0.33153  0.68186  0.16596  1.0000
  H   H2507     1.0  0.01687  0.64403  0.22654  1.0000
  H   H2508     1.0  0.39855  0.71203  0.15229  1.0000
  C   C1461     1.0  0.19947  0.58764  0.19092  1.0000
  C   C1462     1.0  0.31694  0.69940  0.15927  1.0000
  H   H2509     1.0  0.16645  0.60031  0.18589  1.0000
  H   H2510     1.0  0.08104  0.56484  0.22459  1.0000
  H   H2511     1.0  0.36382  0.73808  0.09509  1.0000
  H   H2512     1.0  0.31152  0.70253  0.15308  1.0000
  C   C1463     1.0  0.38137  0.72084  0.10029  1.0000
  H   H2513     1.0  0.35428  0.71944  0.03898  1.0000
  H   H2514     1.0  0.31762  0.67579  0.17815  1.0000
  H   H2515     1.0  0.19961  0.61372  0.01181  1.0000
  C   C1464     1.0  0.33911  0.68965  0.16472  1.0000
  H   H2516     1.0  0.31132  0.69959  0.16754  1.0000
  H   H2517     1.0  0.33478  0.69629  0.16951  1.0000
  H   H2518     1.0  0.20577  0.57002  0.18972  1.0000
  H   H2519     1.0  0.25961  0.60475  0.00743  1.0000
  C   C1465     1.0  0.12514  0.64430  0.18103  1.0000
  C   C1466     1.0  0.26383  0.60569  0.99850  1.0000
  S   S434      1.0  0.13422  0.60807  0.22499  1.0000
  H   H2520     1.0  0.36331  0.73283  0.11465  1.0000
  H   H2521     1.0  0.12820  0.63375  0.16928  1.0000
  H   H2522     1.0  0.32025  0.68777  0.18015  1.0000
  C   C1467     1.0  0.40516  0.70084  0.06692  1.0000
  C   C1468     1.0  0.13771  0.65663  0.17859  1.0000
  H   H2523     1.0  0.05052  0.63505  0.23193  1.0000
  H   H2524     1.0  0.12680  0.64822  0.16278  1.0000
  H   H2525     1.0  0.20873  0.62470  0.03917  1.0000
  H   H2526     1.0  0.26419  0.61460  0.99538  1.0000
  H   H2527     1.0  0.39225  0.73349  0.13464  1.0000
  C   C1469     1.0  0.25698  0.60194  0.99245  1.0000
  H   H2528     1.0  0.41069  0.69266  0.06580  1.0000
  H   H2529     1.0  0.19153  0.62033  0.05045  1.0000
  H   H2530     1.0  0.13322  0.56460  0.22549  1.0000
  H   H2531     1.0  0.19646  0.60142  0.05212  1.0000
  H   H2532     1.0  0.13952  0.64019  0.16745  1.0000
  H   H2533     1.0  0.41141  0.72647  0.08439  1.0000
  H   H2534     1.0  0.33656  0.71988  0.06678  1.0000
  H   H2535     1.0  0.34111  0.69416  0.15593  1.0000
  C   C1470     1.0  0.18780  0.62378  0.04298  1.0000
  H   H2536     1.0  0.42132  0.71422  0.04854  1.0000
  H   H2537     1.0  0.34265  0.67309  0.15349  1.0000
  C   C1471     1.0  0.40841  0.70559  0.07516  1.0000
  C   C1472     1.0  0.20653  0.62579  0.03106  1.0000
  C   C1473     1.0  0.20369  0.60223  0.04499  1.0000
  H   H2538     1.0  0.38608  0.72817  0.11930  1.0000
  C   C1474     1.0  0.34500  0.72057  0.06150  1.0000
  C   C1475     1.0  0.07256  0.61403  0.22558  1.0000
  N   N106      1.0  0.12562  0.65559  0.18230  1.0000
  H   H2539     1.0  0.18753  0.63459  0.02126  1.0000
  C   C1476     1.0  0.35358  0.73131  0.15655  1.0000
  C   C1477     1.0  0.32358  0.68750  0.15821  1.0000
  H   H2540     1.0  0.28042  0.49319  0.10699  1.0000
  H   H2541     1.0  0.34995  0.67937  0.17645  1.0000
  H   H2542     1.0  0.20826  0.59365  0.04411  1.0000
  C   C1478     1.0  0.20246  0.55881  0.12965  1.0000
  H   H2543     1.0  0.22538  0.54034  0.14752  1.0000
  H   H2544     1.0  0.19767  0.58490  0.17187  1.0000
  H   H2545     1.0  0.18636  0.62029  0.18251  1.0000
  H   H2546     1.0  0.20674  0.60627  0.02726  1.0000
  H   H2547     1.0  0.39047  0.71667  0.16422  1.0000
  C   C1479     1.0  0.19949  0.57012  0.14799  1.0000
  H   H2548     1.0  0.20182  0.57276  0.15450  1.0000
  C   C1480     1.0  0.30035  0.68694  0.11750  1.0000
  H   H2549     1.0  0.19557  0.60408  0.17323  1.0000
  C   C1481     1.0  0.19281  0.56736  0.12486  1.0000
  H   H2550     1.0  0.19524  0.56992  0.11569  1.0000
  H   H2551     1.0  0.30763  0.69067  0.11258  1.0000
  N   N107      1.0  0.18883  0.59149  0.18651  1.0000
  C   C1482     1.0  0.18980  0.58449  0.17837  1.0000
  H   H2552     1.0  0.25026  0.62458  0.98495  1.0000
  H   H2553     1.0  0.19862  0.55436  0.13790  1.0000
  H   H2554     1.0  0.19866  0.56139  0.15135  1.0000
  C   C1483     1.0  0.12164  0.65571  0.19449  1.0000
  C   C1484     1.0  0.20606  0.63815  0.02502  1.0000
  H   H2555     1.0  0.33386  0.67845  0.19031  1.0000
  C   C1485     1.0  0.18832  0.60347  0.18042  1.0000
  C   C1486     1.0  0.18825  0.61163  0.18740  1.0000
  H   H2556     1.0  0.17826  0.58110  0.19869  1.0000
  H   H2557     1.0  0.18045  0.59195  0.20355  1.0000
  C   C1487     1.0  0.33826  0.67122  0.16237  1.0000
  C   C1488     1.0  0.10965  0.65382  0.19971  1.0000
  C   C1489     1.0  0.07572  0.57018  0.23036  1.0000
  H   H2558     1.0  0.33805  0.66629  0.18426  1.0000
  C   C1490     1.0  0.17901  0.58998  0.19616  1.0000
  H   H2559     1.0  0.19660  0.61039  0.18927  1.0000
  C   C1491     1.0  0.18011  0.58732  0.17230  1.0000
  H   H2560     1.0  0.18177  0.61103  0.19519  1.0000
  H   H2561     1.0  0.18093  0.60694  0.17664  1.0000
  H   H2562     1.0  0.42342  0.71985  0.15635  1.0000
  C   C1492     1.0  0.08120  0.61994  0.22188  1.0000
  H   H2563     1.0  0.17648  0.63673  0.05104  1.0000
  H   H2564     1.0  0.42939  0.69263  0.07253  1.0000
  C   C1493     1.0  0.16735  0.59717  0.19456  1.0000
  H   H2565     1.0  0.18229  0.58194  0.16619  1.0000
  H   H2566     1.0  0.16088  0.59213  0.19873  1.0000
  H   H2567     1.0  0.16498  0.60427  0.19878  1.0000
  C   C1494     1.0  0.32463  0.67975  0.17761  1.0000
  C   C1495     1.0  0.49758  0.71539  0.13499  1.0000
  C   C1496     1.0  0.18296  0.63617  0.04327  1.0000
  H   H2568     1.0  0.17876  0.64079  0.03633  1.0000
  C   C1497     1.0  0.03129  0.62848  0.20332  1.0000
  H   H2569     1.0  0.18061  0.61972  0.04450  1.0000
  H   H2570     1.0  0.02015  0.61870  0.19380  1.0000
  H   H2571     1.0  0.32822  0.68812  0.14942  1.0000
  H   H2572     1.0  0.19762  0.64349  0.02506  1.0000
  H   H2573     1.0  0.37603  0.72742  0.14961  1.0000
  H   H2574     1.0  0.19370  0.62731  0.00494  1.0000
  H   H2575     1.0  0.46535  0.72082  0.13796  1.0000
  H   H2576     1.0  0.14306  0.64944  0.18319  1.0000
  H   H2577     1.0  0.36636  0.71352  0.05350  1.0000
  H   H2578     1.0  0.39237  0.73045  0.10115  1.0000
  C   C1498     1.0  0.36480  0.73165  0.04610  1.0000
  C   C1499     1.0  0.05904  0.63082  0.22910  1.0000
  C   C1500     1.0  0.22232  0.60536  0.99501  1.0000
  H   H2579     1.0  0.44402  0.70339  0.06932  1.0000
  C   C1501     1.0  0.01461  0.63920  0.22177  1.0000
  H   H2580     1.0  0.12938  0.63752  0.18702  1.0000
  H   H2581     1.0  0.13792  0.66843  0.18841  1.0000
  C   C1502     1.0  0.35218  0.72860  0.03603  1.0000
  H   H2582     1.0  0.11632  0.64326  0.18309  1.0000
  H   H2583     1.0  0.24336  0.58819  0.98765  1.0000
  S   S435      1.0  0.21766  0.59685  0.98914  1.0000
  C   C1503     1.0  0.47879  0.72338  0.14378  1.0000
  C   C1504     1.0  0.38154  0.71912  0.15114  1.0000
  H   H2584     1.0  0.40890  0.73650  0.15376  1.0000
  C   C1505     1.0  0.02632  0.60190  0.22562  1.0000
  H   H2585     1.0  0.09578  0.57037  0.21408  1.0000
  H   H2586     1.0  0.02575  0.63599  0.19933  1.0000
  H   H2587     1.0  0.11439  0.68262  0.17056  1.0000
  H   H2588     1.0  0.08973  0.61569  0.21908  1.0000
  H   H2589     1.0  0.42439  0.70181  0.08728  1.0000
  C   C1506     1.0  0.09015  0.58105  0.22656  1.0000
  H   H2590     1.0  0.10508  0.67711  0.18255  1.0000
  C   C1507     1.0  0.11407  0.67602  0.17829  1.0000
  H   H2591     1.0  0.11880  0.67792  0.18336  1.0000
  H   H2592     1.0  0.38692  0.73591  0.17184  1.0000
  C   C1508     1.0  0.36969  0.73738  0.11449  1.0000
  H   H2593     1.0  0.35106  0.71801  0.06703  1.0000
  S   S436      1.0  0.43109  0.72777  0.10720  1.0000
  C   C1509     1.0  0.44731  0.73382  0.06027  1.0000
  H   H2594     1.0  0.01858  0.60067  0.22411  1.0000
  H   H2595     1.0  0.27242  0.60047  0.99807  1.0000
  H   H2596     1.0  0.40505  0.72402  0.13553  1.0000
  H   H2597     1.0  0.34574  0.73712  0.06096  1.0000
  C   C1510     1.0  0.35269  0.73426  0.08152  1.0000
  C   C1511     1.0  0.26698  0.49267  0.09992  1.0000
  C   C1512     1.0  0.38462  0.73218  0.09805  1.0000
  H   H2598     1.0  0.22852  0.63090  0.98989  1.0000
  H   H2599     1.0  0.33586  0.73658  0.05409  1.0000
  N   N108      1.0  0.39639  0.72974  0.15070  1.0000
  H   H2600     1.0  0.00829  0.61777  0.21851  1.0000
  C   C1513     1.0  0.22377  0.61608  0.98933  1.0000
  C   C1514     1.0  0.01518  0.61504  0.20187  1.0000
  H   H2601     1.0  0.37031  0.73630  0.03919  1.0000
  C   C1515     1.0  0.39974  0.73167  0.13824  1.0000
  C   C1516     1.0  0.36298  0.73584  0.07447  1.0000
  H   H2602     1.0  0.49150  0.73658  0.09528  1.0000
  H   H2603     1.0  0.37537  0.73391  0.12988  1.0000
  H   H2604     1.0  0.23830  0.49429  0.13221  1.0000
  H   H2605     1.0  0.26154  0.49589  0.13417  1.0000
  H   H2606     1.0  0.33386  0.72977  0.04020  1.0000
  C   C1517     1.0  0.38121  0.73814  0.16603  1.0000
  H   H2607     1.0  0.48694  0.72999  0.10931  1.0000
  H   H2608     1.0  0.47320  0.72815  0.14968  1.0000
  H   H2609     1.0  0.34102  0.72591  0.02728  1.0000
  C   C1518     1.0  0.37696  0.72991  0.12276  1.0000
  C   C1519     1.0  0.34069  0.73137  0.03286  1.0000
  C   C1520     1.0  0.44286  0.73050  0.07159  1.0000
  H   H2610     1.0  0.45565  0.72970  0.05666  1.0000
  H   H2611     1.0  0.25036  0.49474  0.12135  1.0000
  H   H2612     1.0  0.35852  0.73033  0.02817  1.0000
  H   H2613     1.0  0.09540  0.55454  0.23070  1.0000
  H   H2614     1.0  0.36504  0.73422  0.05361  1.0000
  C   C1521     1.0  0.49339  0.73456  0.10368  1.0000
  C   C1522     1.0  0.34463  0.73273  0.05507  1.0000
  H   H2615     1.0  0.41424  0.73947  0.13446  1.0000
  Fe  Fe220     1.0  0.10188  0.55270  0.27604  1.0000
  S   S437      1.0  0.09945  0.54659  0.29454  1.0000
  S   S438      1.0  0.11903  0.55313  0.26533  1.0000
  Fe  Fe221     1.0  0.07744  0.55535  0.27632  1.0000
  S   S439      1.0  0.07306  0.54963  0.29470  1.0000
  S   S440      1.0  0.06378  0.55956  0.26700  1.0000
  Fe  Fe222     1.0  0.08416  0.56057  0.29494  1.0000
  S   S441      1.0  0.07698  0.57279  0.30628  1.0000
  Fe  Fe223     1.0  0.08859  0.53635  0.29225  1.0000
  S   S442      1.0  0.08769  0.51845  0.30054  1.0000
  S   S443      1.0  0.08734  0.56735  0.27655  1.0000
  S   S444      1.0  0.09230  0.54144  0.27371  1.0000
  Fe  Fe224     1.0  0.02472  0.61056  0.27171  1.0000
  S   S445      1.0  0.02263  0.60921  0.25537  1.0000
  S   S446      1.0  0.02474  0.59620  0.28627  1.0000
  Fe  Fe225     1.0  0.02833  0.63399  0.26364  1.0000
  S   S447      1.0  0.02629  0.63503  0.24647  1.0000
  S   S448      1.0  0.03333  0.64801  0.26747  1.0000
  Fe  Fe226     1.0  0.01194  0.62637  0.25494  1.0000
  Fe  Fe227     1.0  0.03708  0.61781  0.24813  1.0000
  N   N109      1.0  0.12060  0.58414  0.28153  1.0000
  S   S449      1.0  0.01288  0.62709  0.27205  1.0000
  S   S450      1.0  0.04027  0.61740  0.26459  1.0000
  H   H2616     1.0  0.07470  0.73673  0.37995  1.0000
  Fe  Fe228     1.0  0.08817  0.71239  0.36693  1.0000
  S   S451      1.0  0.09111  0.69419  0.37470  1.0000
  S   S452      1.0  0.07194  0.72164  0.36216  1.0000
  Fe  Fe229     1.0  0.11165  0.71443  0.36577  1.0000
  S   S453      1.0  0.11682  0.69600  0.37264  1.0000
  C   C1523     1.0  0.08958  0.49620  0.25841  1.0000
  Fe  Fe230     1.0  0.10699  0.69317  0.36162  1.0000
  S   S454      1.0  0.11283  0.67982  0.35104  1.0000
  Fe  Fe231     1.0  0.10042  0.69870  0.38501  1.0000
  S   S455      1.0  0.09927  0.69098  0.40339  1.0000
  S   S456      1.0  0.10361  0.71137  0.35348  1.0000
  S   S457      1.0  0.09572  0.71713  0.37852  1.0000
  Fe  Fe232     1.0  0.08472  0.64654  0.32147  1.0000
  S   S458      1.0  0.07560  0.65531  0.30751  1.0000
  S   S459      1.0  0.08297  0.65643  0.33475  1.0000
  Fe  Fe233     1.0  0.09171  0.62449  0.31310  1.0000
  S   S460      1.0  0.08347  0.63194  0.29865  1.0000
  S   S461      1.0  0.10038  0.60620  0.31566  1.0000
  Fe  Fe234     1.0  0.09076  0.64659  0.29683  1.0000
  S   S462      1.0  0.09861  0.65459  0.27957  1.0000
  Fe  Fe235     1.0  0.06918  0.63973  0.31063  1.0000
  S   S463      1.0  0.05210  0.63700  0.31125  1.0000
  S   S464      1.0  0.10030  0.63866  0.31043  1.0000
  S   S465      1.0  0.07697  0.63149  0.32544  1.0000
  H   H2617     1.0  0.06134  0.57090  0.28442  1.0000
  H   H2618     1.0  0.07239  0.60628  0.32632  1.0000
  S   S466      1.0  0.12122  0.61522  0.25425  1.0000
  C   C1524     1.0  0.04292  0.54943  0.29633  1.0000
  C   C1525     1.0  0.08903  0.56552  0.24323  1.0000
  S   S467      1.0  0.04258  0.73067  0.40790  1.0000
  Fe  Fe236     1.0  0.07762  0.72479  0.46524  1.0000
  S   S468      1.0  0.09166  0.70965  0.46667  1.0000
  S   S469      1.0  0.06032  0.72373  0.46474  1.0000
  H   H2619     1.0  0.08482  0.61253  0.25049  1.0000
  S   S470      1.0  0.10846  0.72680  0.46139  1.0000
  Fe  Fe237     1.0  0.10128  0.71944  0.45140  1.0000
  S   S471      1.0  0.11129  0.71511  0.43482  1.0000
  S   S472      1.0  0.08696  0.73401  0.44968  1.0000
  H   H2620     1.0  0.05369  0.63783  0.25493  1.0000
  H   H2621     1.0  0.03504  0.55151  0.31361  1.0000
  C   C1526     1.0  0.01923  0.73406  0.38253  1.0000
  H   H2622     1.0  0.06857  0.57821  0.24925  1.0000
  C   C1527     1.0  0.06900  0.50266  0.28496  1.0000
  H   H2623     1.0  0.06626  0.61280  0.28611  1.0000
  H   H2624     1.0  0.03360  0.53966  0.27848  1.0000
  C   C1528     1.0  0.11267  0.58060  0.24130  1.0000
  C   C1529     1.0  0.10577  0.64394  0.27233  1.0000
  C   C1530     1.0  0.10838  0.64624  0.26069  1.0000
  C   C1531     1.0  0.11314  0.63749  0.25498  1.0000
  C   C1532     1.0  0.11559  0.62649  0.26092  1.0000
  C   C1533     1.0  0.11343  0.62430  0.27252  1.0000
  C   C1534     1.0  0.10846  0.63296  0.27820  1.0000
  H   H2625     1.0  0.10642  0.65473  0.25611  1.0000
  H   H2626     1.0  0.11492  0.63927  0.24602  1.0000
  H   H2627     1.0  0.11552  0.61589  0.27718  1.0000
  H   H2628     1.0  0.10681  0.63113  0.28716  1.0000
  C   C1535     1.0  0.10436  0.67356  0.34642  1.0000
  C   C1536     1.0  0.09270  0.67538  0.35011  1.0000
  C   C1537     1.0  0.08637  0.67003  0.34648  1.0000
  C   C1538     1.0  0.09153  0.66286  0.33903  1.0000
  C   C1539     1.0  0.10320  0.66104  0.33533  1.0000
  C   C1540     1.0  0.10955  0.66632  0.33904  1.0000
  H   H2629     1.0  0.08852  0.68092  0.35575  1.0000
  H   H2630     1.0  0.07736  0.67151  0.34942  1.0000
  H   H2631     1.0  0.10735  0.65548  0.32970  1.0000
  H   H2632     1.0  0.11857  0.66477  0.33618  1.0000
  C   C1541     1.0  0.06240  0.72328  0.37454  1.0000
  C   C1542     1.0  0.15190  0.71794  0.39533  1.0000
  H   H2633     1.0  0.08405  0.65514  0.26176  1.0000
  C   C1543     1.0  0.04938  0.72740  0.39499  1.0000
  C   C1544     1.0  0.05720  0.71737  0.39448  1.0000
  C   C1545     1.0  0.06392  0.71544  0.38429  1.0000
  H   H2634     1.0  0.05058  0.55175  0.29045  1.0000
  C   C1546     1.0  0.04334  0.59013  0.32778  1.0000
  H   H2635     1.0  0.05837  0.71121  0.40192  1.0000
  H   H2636     1.0  0.07035  0.70793  0.38401  1.0000
  C   C1547     1.0  0.10239  0.69796  0.41206  1.0000
  C   C1548     1.0  0.10566  0.69176  0.42196  1.0000
  C   C1549     1.0  0.10789  0.69705  0.42922  1.0000
  C   C1550     1.0  0.10663  0.70865  0.42678  1.0000
  C   C1551     1.0  0.10327  0.71487  0.41691  1.0000
  C   C1552     1.0  0.10119  0.70956  0.40957  1.0000
  H   H2637     1.0  0.10663  0.68280  0.42399  1.0000
  H   H2638     1.0  0.11078  0.69213  0.43663  1.0000
  H   H2639     1.0  0.10236  0.72380  0.41487  1.0000
  H   H2640     1.0  0.09858  0.71445  0.40202  1.0000
  N   N110      1.0  0.08251  0.57454  0.23559  1.0000
  C   C1553     1.0  0.08778  0.61192  0.25806  1.0000
  C   C1554     1.0  0.05387  0.73285  0.37491  1.0000
  H   H2641     1.0  0.11310  0.49441  0.26041  1.0000
  C   C1555     1.0  0.03693  0.60972  0.33919  1.0000
  C   C1556     1.0  0.03872  0.64478  0.27954  1.0000
  C   C1557     1.0  0.04596  0.65098  0.28034  1.0000
  C   C1558     1.0  0.05049  0.64841  0.28985  1.0000
  C   C1559     1.0  0.04731  0.63999  0.29883  1.0000
  C   C1560     1.0  0.03987  0.63398  0.29811  1.0000
  C   C1561     1.0  0.03583  0.63613  0.28839  1.0000
  H   H2642     1.0  0.04811  0.65778  0.27357  1.0000
  H   H2643     1.0  0.05609  0.65320  0.29039  1.0000
  H   H2644     1.0  0.03710  0.62773  0.30513  1.0000
  H   H2645     1.0  0.03014  0.63140  0.28791  1.0000
  C   C1562     1.0  0.01925  0.72612  0.39400  1.0000
  H   H2646     1.0  0.07813  0.63907  0.24440  1.0000
  H   H2647     1.0  0.05729  0.69567  0.43384  1.0000
  H   H2648     1.0  0.09662  0.60719  0.25693  1.0000
  H   H2649     1.0  0.07670  0.65479  0.25183  1.0000
  C   C1563     1.0  0.05116  0.53010  0.30513  1.0000
  H   H2650     1.0  0.04074  0.56285  0.30462  1.0000
  C   C1564     1.0  0.11916  0.56244  0.25244  1.0000
  C   C1565     1.0  0.12690  0.55950  0.24307  1.0000
  H   H2651     1.0  0.08293  0.60693  0.26528  1.0000
  H   H2652     1.0  0.00477  0.61037  0.24247  1.0000
  H   H2653     1.0  0.02025  0.54394  0.31384  1.0000
  C   C1566     1.0  0.11190  0.57292  0.25151  1.0000
  H   H2654     1.0  0.13254  0.55140  0.24376  1.0000
  H   H2655     1.0  0.13291  0.59121  0.25926  1.0000
  H   H2656     1.0  0.10584  0.57514  0.25869  1.0000
  C   C1567     1.0  0.08504  0.58165  0.30722  1.0000
  C   C1568     1.0  0.09265  0.57784  0.31423  1.0000
  C   C1569     1.0  0.09746  0.58542  0.31660  1.0000
  C   C1570     1.0  0.09462  0.59686  0.31207  1.0000
  C   C1571     1.0  0.08722  0.60060  0.30483  1.0000
  C   C1572     1.0  0.08242  0.59304  0.30246  1.0000
  H   H2657     1.0  0.09450  0.56910  0.31819  1.0000
  H   H2658     1.0  0.10316  0.58244  0.32222  1.0000
  H   H2659     1.0  0.08506  0.60934  0.30118  1.0000
  H   H2660     1.0  0.07650  0.59604  0.29709  1.0000
  C   C1573     1.0  0.08076  0.51226  0.29438  1.0000
  H   H2661     1.0  0.04261  0.72883  0.45299  1.0000
  H   H2662     1.0  0.13401  0.72108  0.39921  1.0000
  H   H2663     1.0  0.05783  0.59627  0.30709  1.0000
  C   C1574     1.0  0.07089  0.51342  0.28019  1.0000
  C   C1575     1.0  0.07670  0.51820  0.28488  1.0000
  H   H2664     1.0  0.00168  0.59497  0.27490  1.0000
  H   H2665     1.0  0.06766  0.51817  0.27290  1.0000
  H   H2666     1.0  0.07783  0.52659  0.28125  1.0000
  C   C1576     1.0  0.05302  0.56987  0.27224  1.0000
  C   C1577     1.0  0.04340  0.57391  0.26782  1.0000
  C   C1578     1.0  0.03459  0.58189  0.27227  1.0000
  C   C1579     1.0  0.03534  0.58566  0.28128  1.0000
  C   C1580     1.0  0.04496  0.58160  0.28570  1.0000
  C   C1581     1.0  0.05385  0.57382  0.28109  1.0000
  H   H2667     1.0  0.04275  0.57090  0.26095  1.0000
  H   H2668     1.0  0.02720  0.58512  0.26877  1.0000
  H   H2669     1.0  0.04567  0.58467  0.29250  1.0000
  C   C1582     1.0  0.12857  0.56642  0.29497  1.0000
  H   H2670     1.0  0.10646  0.59620  0.28811  1.0000
  C   C1583     1.0  0.12473  0.57848  0.27183  1.0000
  H   H2671     1.0  0.13535  0.56995  0.29568  1.0000
  H   H2672     1.0  0.04441  0.60868  0.34255  1.0000
  C   C1584     1.0  0.04829  0.53442  0.28632  1.0000
  C   C1585     1.0  0.10454  0.49712  0.27658  1.0000
  H   H2673     1.0  0.06875  0.58896  0.23718  1.0000
  H   H2674     1.0  0.03132  0.61774  0.34077  1.0000
  H   H2675     1.0  0.05918  0.63065  0.27189  1.0000
  H   H2676     1.0  0.05710  0.53555  0.28338  1.0000
  H   H2677     1.0  0.14400  0.71945  0.41819  1.0000
  H   H2678     1.0  0.10116  0.50550  0.27186  1.0000
  H   H2679     1.0  0.08054  0.50025  0.26027  1.0000
  N   N111      1.0  0.07588  0.63097  0.26190  1.0000
  C   C1586     1.0  0.04634  0.71695  0.43621  1.0000
  H   H2680     1.0  0.15343  0.71226  0.40327  1.0000
  H   H2681     1.0  0.01923  0.71783  0.39291  1.0000
  C   C1587     1.0  0.03981  0.61022  0.32659  1.0000
  H   H2682     1.0  0.13191  0.56088  0.28895  1.0000
  H   H2683     1.0  0.06720  0.62634  0.28720  1.0000
  C   C1588     1.0  0.14048  0.72619  0.39688  1.0000
  H   H2684     1.0  0.08374  0.59515  0.24161  1.0000
  H   H2685     1.0  0.03356  0.60999  0.30701  1.0000
  H   H2686     1.0  0.05778  0.51316  0.31322  1.0000
  H   H2687     1.0  0.13946  0.73143  0.38856  1.0000
  C   C1589     1.0  0.07431  0.58259  0.24231  1.0000
  N   N112      1.0  0.04821  0.60038  0.32278  1.0000
  C   C1590     1.0  0.10993  0.59276  0.28049  1.0000
  C   C1591     1.0  0.05904  0.59852  0.32646  1.0000
  H   H2688     1.0  0.03171  0.61129  0.32424  1.0000
  H   H2689     1.0  0.02608  0.54063  0.29619  1.0000
  H   H2690     1.0  0.13785  0.58437  0.28081  1.0000
  H   H2691     1.0  0.03178  0.52642  0.30032  1.0000
  H   H2692     1.0  0.05892  0.61526  0.32853  1.0000
  H   H2693     1.0  0.05880  0.64911  0.25649  1.0000
  H   H2694     1.0  0.07937  0.61673  0.28172  1.0000
  C   C1592     1.0  0.09501  0.55447  0.23941  1.0000
  H   H2695     1.0  0.09299  0.62754  0.25248  1.0000
  H   H2696     1.0  0.04315  0.51576  0.31354  1.0000
  C   C1593     1.0  0.07907  0.50138  0.29908  1.0000
  H   H2697     1.0  0.11226  0.57081  0.29152  1.0000
  C   C1594     1.0  0.13638  0.72594  0.41673  1.0000
  H   H2698     1.0  0.03230  0.60306  0.34388  1.0000
  H   H2699     1.0  0.15196  0.71269  0.38966  1.0000
  Fe  Fe238     1.0  0.12073  0.61781  0.23627  1.0000
  H   H2700     1.0  0.03987  0.71469  0.44374  1.0000
  C   C1595     1.0  0.03176  0.53477  0.30150  1.0000
  H   H2701     1.0  0.10382  0.55221  0.24050  1.0000
  H   H2702     1.0  0.03478  0.59163  0.32622  1.0000
  H   H2703     1.0  0.04600  0.57245  0.32820  1.0000
  H   H2704     1.0  0.06577  0.61272  0.31487  1.0000
  H   H2705     1.0  0.05130  0.58017  0.31484  1.0000
  H   H2706     1.0  0.05933  0.64732  0.24309  1.0000
  H   H2707     1.0  0.12988  0.72122  0.41760  1.0000
  H   H2708     1.0  0.12589  0.56105  0.30318  1.0000
  H   H2709     1.0  0.04374  0.60517  0.29578  1.0000
  C   C1596     1.0  0.04088  0.60327  0.30497  1.0000
  H   H2710     1.0  0.11886  0.57334  0.27195  1.0000
  H   H2711     1.0  0.03812  0.59528  0.30722  1.0000
  N   N113      1.0  0.04335  0.53719  0.29763  1.0000
  H   H2712     1.0  0.05652  0.71108  0.44852  1.0000
  C   C1597     1.0  0.05033  0.57941  0.32386  1.0000
  H   H2713     1.0  0.05341  0.51370  0.30101  1.0000
  C   C1598     1.0  0.07927  0.70119  0.44822  1.0000
  H   H2714     1.0  0.13010  0.58104  0.25388  1.0000
  H   H2715     1.0  0.06570  0.61835  0.26735  1.0000
  C   C1599     1.0  0.05067  0.60268  0.31028  1.0000
  C   C1600     1.0  0.99842  0.73084  0.40165  1.0000
  H   H2716     1.0  0.04609  0.71243  0.43009  1.0000
  N   N114      1.0  0.10868  0.65873  0.38400  1.0000
  C   C1601     1.0  0.11962  0.65808  0.37549  1.0000
  C   C1602     1.0  0.10838  0.66702  0.39059  1.0000
  C   C1603     1.0  0.09931  0.66308  0.37776  1.0000
  C   C1604     1.0  0.10815  0.64721  0.39105  1.0000
  C   C1605     1.0  0.12138  0.65077  0.36707  1.0000
  C   C1606     1.0  0.11816  0.66429  0.39655  1.0000
  C   C1607     1.0  0.08726  0.66497  0.38470  1.0000
  C   C1608     1.0  0.10038  0.64648  0.40274  1.0000
  H   H2717     1.0  0.12065  0.66657  0.37063  1.0000
  H   H2718     1.0  0.12689  0.65467  0.37958  1.0000
  H   H2719     1.0  0.10055  0.66825  0.39697  1.0000
  H   H2720     1.0  0.10836  0.67543  0.38509  1.0000
  H   H2721     1.0  0.10037  0.67113  0.37194  1.0000
  H   H2722     1.0  0.09951  0.65734  0.37253  1.0000
  H   H2723     1.0  0.10561  0.64223  0.38660  1.0000
  H   H2724     1.0  0.11666  0.64264  0.39242  1.0000
  H   H2725     1.0  0.12016  0.64221  0.37116  1.0000
  H   H2726     1.0  0.11591  0.65463  0.36100  1.0000
  H   H2727     1.0  0.13013  0.65004  0.36214  1.0000
  H   H2728     1.0  0.11991  0.65549  0.40104  1.0000
  H   H2729     1.0  0.12589  0.66633  0.39062  1.0000
  H   H2730     1.0  0.11604  0.66960  0.40274  1.0000
  H   H2731     1.0  0.08575  0.67079  0.39024  1.0000
  H   H2732     1.0  0.08490  0.65697  0.38941  1.0000
  H   H2733     1.0  0.08143  0.66888  0.37894  1.0000
  H   H2734     1.0  0.09657  0.63911  0.40474  1.0000
  H   H2735     1.0  0.09336  0.65371  0.40377  1.0000
  H   H2736     1.0  0.10533  0.64493  0.40916  1.0000
  C   C1609     1.0  0.07668  0.64059  0.26615  1.0000
  H   H2737     1.0  0.08138  0.63756  0.27297  1.0000
  H   H2738     1.0  0.02521  0.72983  0.37606  1.0000
  C   C1610     1.0  0.06031  0.64275  0.25156  1.0000
  C   C1611     1.0  0.05285  0.73649  0.45825  1.0000
  H   H2739     1.0  0.04267  0.61810  0.32234  1.0000
  C   C1612     1.0  0.02568  0.53553  0.31354  1.0000
  H   H2740     1.0  0.03135  0.53350  0.31932  1.0000
  H   H2741     1.0  0.05805  0.59499  0.33553  1.0000
  H   H2742     1.0  0.07152  0.62773  0.24802  1.0000
  H   H2743     1.0  0.05005  0.55057  0.30978  1.0000
  H   H2744     1.0  0.02005  0.72181  0.41576  1.0000
  C   C1613     1.0  0.06417  0.60885  0.32383  1.0000
  C   C1614     1.0  0.08738  0.62350  0.25989  1.0000
  H   H2745     1.0  0.15891  0.72232  0.39140  1.0000
  C   C1615     1.0  0.12737  0.59460  0.29233  1.0000
  C   C1616     1.0  0.05782  0.71461  0.43942  1.0000
  C   C1617     1.0  0.10035  0.58877  0.27852  1.0000
  C   C1618     1.0  0.07321  0.49656  0.29437  1.0000
  H   H2746     1.0  0.05874  0.57694  0.32589  1.0000
  H   H2747     1.0  0.02029  0.52930  0.31688  1.0000
  H   H2748     1.0  0.04167  0.55032  0.27552  1.0000
  H   H2749     1.0  0.05338  0.61074  0.30667  1.0000
  H   H2750     1.0  0.13410  0.59906  0.29134  1.0000
  C   C1619     1.0  0.06752  0.62491  0.27041  1.0000
  H   H2751     1.0  0.09273  0.59553  0.27904  1.0000
  H   H2752     1.0  0.07960  0.69214  0.44988  1.0000
  C   C1620     1.0  0.04210  0.54127  0.27697  1.0000
  H   H2753     1.0  0.08739  0.70199  0.44928  1.0000
  H   H2754     1.0  0.04925  0.53271  0.31311  1.0000
  H   H2755     1.0  0.11153  0.60003  0.27365  1.0000
  H   H2756     1.0  0.04864  0.52555  0.28659  1.0000
  H   H2757     1.0  0.06562  0.59215  0.32252  1.0000
  C   C1621     1.0  0.04210  0.55361  0.30680  1.0000
  H   H2758     1.0  0.04689  0.53868  0.26909  1.0000
  S   S473      1.0  0.06063  0.49764  0.27934  1.0000
  H   H2759     1.0  0.05994  0.53109  0.30128  1.0000
  H   H2760     1.0  0.05994  0.72278  0.43845  1.0000
  C   C1622     1.0  0.07198  0.63490  0.25110  1.0000
  C   C1623     1.0  0.11831  0.57544  0.29201  1.0000
  H   H2761     1.0  0.04225  0.58808  0.33696  1.0000
  H   H2762     1.0  0.01791  0.70570  0.40866  1.0000
  S   S474      1.0  0.08242  0.73285  0.47628  1.0000
  H   H2763     1.0  0.08216  0.49673  0.30647  1.0000
  H   H2764     1.0  0.11932  0.60074  0.29362  1.0000
  H   H2765     1.0  0.13287  0.57251  0.27239  1.0000
  H   H2766     1.0  0.11423  0.57940  0.29924  1.0000
  H   H2767     1.0  0.09813  0.58143  0.28486  1.0000
  H   H2768     1.0  0.10230  0.58700  0.27016  1.0000
  H   H2769     1.0  0.09170  0.62214  0.26678  1.0000
  H   H2770     1.0  0.13004  0.59720  0.27471  1.0000
  C   C1624     1.0  0.12937  0.58994  0.28184  1.0000
  H   H2771     1.0  0.03577  0.55471  0.29254  1.0000
  H   H2772     1.0  0.08348  0.56322  0.25145  1.0000
  C   C1625     1.0  0.13270  0.73193  0.42653  1.0000
  H   H2773     1.0  0.11879  0.59181  0.25827  1.0000
  H   H2774     1.0  0.12771  0.58794  0.29994  1.0000
  H   H2775     1.0  0.06830  0.64495  0.27006  1.0000
  N   N115      1.0  0.06738  0.70717  0.43323  1.0000
  C   C1626     1.0  0.07802  0.70717  0.43630  1.0000
  C   C1627     1.0  0.06872  0.71128  0.42085  1.0000
  C   C1628     1.0  0.06503  0.69563  0.43637  1.0000
  C   C1629     1.0  0.06958  0.72356  0.41631  1.0000
  C   C1630     1.0  0.07435  0.68668  0.43124  1.0000
  H   H2776     1.0  0.08537  0.70332  0.43063  1.0000
  H   H2777     1.0  0.07901  0.71583  0.43522  1.0000
  H   H2778     1.0  0.06174  0.71005  0.41802  1.0000
  H   H2779     1.0  0.07641  0.70633  0.41636  1.0000
  H   H2780     1.0  0.06318  0.69263  0.44554  1.0000
  H   H2781     1.0  0.06190  0.72934  0.41962  1.0000
  H   H2782     1.0  0.07710  0.72515  0.41791  1.0000
  H   H2783     1.0  0.07047  0.72552  0.40716  1.0000
  H   H2784     1.0  0.08254  0.68585  0.43324  1.0000
  H   H2785     1.0  0.07538  0.68834  0.42210  1.0000
  H   H2786     1.0  0.07198  0.67846  0.43465  1.0000
  H   H2787     1.0  0.04360  0.72602  0.43286  1.0000
  N   N116      1.0  0.09673  0.68448  0.30236  1.0000
  C   C1631     1.0  0.10421  0.67893  0.29310  1.0000
  C   C1632     1.0  0.09140  0.69609  0.29704  1.0000
  C   C1633     1.0  0.08781  0.67783  0.30830  1.0000
  C   C1634     1.0  0.10390  0.68441  0.31005  1.0000
  C   C1635     1.0  0.10932  0.66639  0.29653  1.0000
  C   C1636     1.0  0.09956  0.70386  0.29068  1.0000
  C   C1637     1.0  0.07702  0.68364  0.31534  1.0000
  C   C1638     1.0  0.09859  0.69130  0.31911  1.0000
  H   H2788     1.0  0.09955  0.67977  0.28658  1.0000
  H   H2789     1.0  0.11144  0.68299  0.28887  1.0000
  H   H2790     1.0  0.08512  0.70050  0.30317  1.0000
  H   H2791     1.0  0.08653  0.69569  0.29116  1.0000
  H   H2792     1.0  0.08492  0.67509  0.30219  1.0000
  H   H2793     1.0  0.09130  0.67004  0.31385  1.0000
  H   H2794     1.0  0.10674  0.67576  0.31459  1.0000
  H   H2795     1.0  0.11191  0.68694  0.30538  1.0000
  H   H2796     1.0  0.11460  0.66462  0.30268  1.0000
  H   H2797     1.0  0.10277  0.66140  0.29972  1.0000
  H   H2798     1.0  0.11480  0.66340  0.28907  1.0000
  H   H2799     1.0  0.09462  0.71233  0.28787  1.0000
  H   H2800     1.0  0.10476  0.70468  0.29600  1.0000
  H   H2801     1.0  0.10501  0.70113  0.28311  1.0000
  H   H2802     1.0  0.07176  0.69013  0.31004  1.0000
  H   H2803     1.0  0.07862  0.68721  0.32154  1.0000
  H   H2804     1.0  0.07190  0.67736  0.32004  1.0000
  H   H2805     1.0  0.09438  0.68626  0.32679  1.0000
  H   H2806     1.0  0.09267  0.69914  0.31659  1.0000
  H   H2807     1.0  0.10531  0.69392  0.32119  1.0000
  H   H2808     1.0  0.07259  0.70499  0.45453  1.0000
  C   C1639     1.0  0.07031  0.62000  0.28199  1.0000
  C   C1640     1.0  0.05126  0.51751  0.30829  1.0000
  H   H2809     1.0  0.00532  0.72437  0.42128  1.0000
  C   C1641     1.0  0.04492  0.73651  0.45247  1.0000
  H   H2810     1.0  0.02759  0.72507  0.39588  1.0000
  C   C1642     1.0  0.12667  0.58621  0.26025  1.0000
  N   N117      1.0  0.13854  0.73323  0.40527  1.0000
  C   C1643     1.0  0.08231  0.64953  0.25744  1.0000
  H   H2811     1.0  0.10717  0.58875  0.24068  1.0000
  H   H2812     1.0  0.06019  0.56871  0.24316  1.0000
  H   H2813     1.0  0.07139  0.55639  0.24433  1.0000
  H   H2814     1.0  0.09444  0.50256  0.25737  1.0000
  Fe  Fe239     1.0  0.09740  0.71858  0.47649  1.0000
  S   S475      1.0  0.12395  0.72598  0.36004  1.0000
  H   H2815     1.0  0.08514  0.58315  0.25304  1.0000
  H   H2816     1.0  0.00306  0.70866  0.41534  1.0000
  C   C1644     1.0  0.01157  0.70953  0.41517  1.0000
  H   H2817     1.0  0.14162  0.73718  0.35048  1.0000
  H   H2818     1.0  0.09034  0.64583  0.25242  1.0000
  N   N118      1.0  0.01002  0.72973  0.40340  1.0000
  C   C1645     1.0  0.01184  0.72175  0.41415  1.0000
  H   H2819     1.0  0.00286  0.71406  0.39704  1.0000
  H   H2820     1.0  0.09549  0.56874  0.24500  1.0000
  H   H2821     1.0  0.08268  0.73926  0.34322  1.0000
  H   H2822     1.0  0.11788  0.73358  0.40022  1.0000
  H   H2823     1.0  0.01360  0.70460  0.42323  1.0000
  H   H2824     1.0  0.09116  0.49353  0.25048  1.0000
  H   H2825     1.0  0.13139  0.72564  0.43442  1.0000
  C   C1646     1.0  0.07941  0.58888  0.24779  1.0000
  C   C1647     1.0  0.04741  0.73494  0.38517  1.0000
  H   H2826     1.0  0.07248  0.59357  0.25330  1.0000
  H   H2827     1.0  0.15590  0.73150  0.40611  1.0000
  H   H2828     1.0  0.01087  0.73647  0.38039  1.0000
  H   H2829     1.0  0.09103  0.54755  0.24485  1.0000
  H   H2830     1.0  0.11068  0.49843  0.28059  1.0000
  H   H2831     1.0  0.09780  0.49428  0.28337  1.0000
  H   H2832     1.0  0.13916  0.73607  0.42693  1.0000
  C   C1648     1.0  0.06732  0.56340  0.23848  1.0000
  H   H2833     1.0  0.11438  0.73567  0.41431  1.0000
  H   H2834     1.0  0.08984  0.73612  0.36038  1.0000
  S   S476      1.0  0.05099  0.61158  0.23458  1.0000
  C   C1649     1.0  0.12724  0.73684  0.36402  1.0000
  H   H2835     1.0  0.08113  0.73839  0.42898  1.0000
  H   H2836     1.0  0.02454  0.60423  0.23373  1.0000
  C   C1650     1.0  0.14856  0.73805  0.40390  1.0000
  H   H2837     1.0  0.12459  0.73801  0.42644  1.0000
  H   H2838     1.0  0.11356  0.73879  0.37814  1.0000
  S   S477      1.0  0.10679  0.61249  0.23288  1.0000
  H   H2839     1.0  0.05259  0.73886  0.36733  1.0000
  H   H2840     1.0  0.06367  0.55973  0.23370  1.0000
  C   C1651     1.0  0.11744  0.73937  0.40546  1.0000
  H   H2841     1.0  0.11632  0.72723  0.48262  1.0000
  C   C1652     1.0  0.05767  0.60264  0.72131  1.0000
  S   S478      1.0  0.09875  0.62695  0.71750  1.0000
  S   S479      1.0  0.12454  0.61273  0.71123  1.0000
  Fe  Fe240     1.0  0.11490  0.63019  0.70596  1.0000
  S   S480      1.0  0.11357  0.63850  0.68822  1.0000
  Fe  Fe241     1.0  0.10880  0.61011  0.72377  1.0000
  H   H2842     1.0  0.17974  0.59056  0.72772  1.0000
  S   S481      1.0  0.11983  0.63710  0.71782  1.0000
  Fe  Fe242     1.0  0.12031  0.70391  0.62772  1.0000
  S   S482      1.0  0.10500  0.71762  0.62734  1.0000
  S   S483      1.0  0.13253  0.69838  0.61291  1.0000
  Fe  Fe243     1.0  0.11614  0.69785  0.65285  1.0000
  S   S484      1.0  0.10047  0.71118  0.65480  1.0000
  S   S485      1.0  0.12338  0.68686  0.66744  1.0000
  Fe  Fe244     1.0  0.09658  0.70572  0.64133  1.0000
  S   S486      1.0  0.07932  0.70314  0.64328  1.0000
  Fe  Fe245     1.0  0.11009  0.72206  0.64075  1.0000
  H   H2843     1.0  0.07493  0.68022  0.70674  1.0000
  S   S487      1.0  0.11140  0.69148  0.64050  1.0000
  S   S488      1.0  0.12625  0.70930  0.63997  1.0000
  C   C1653     1.0  0.12754  0.56969  0.72497  1.0000
  H   H2844     1.0  0.09796  0.67402  0.72540  1.0000
  S   S489      1.0  0.11385  0.71353  0.56898  1.0000
  H   H2845     1.0  0.15429  0.72434  0.60589  1.0000
  C   C1654     1.0  0.08426  0.70524  0.61196  1.0000
  H   H2846     1.0  0.08279  0.61000  0.71806  1.0000
  Fe  Fe246     1.0  0.12302  0.73743  0.53044  1.0000
  C   C1655     1.0  0.10940  0.71782  0.49850  1.0000
  H   H2847     1.0  0.06983  0.60508  0.68870  1.0000
  H   H2848     1.0  0.11639  0.49202  0.72214  1.0000
  C   C1656     1.0  0.06992  0.71607  0.64165  1.0000
  C   C1657     1.0  0.05899  0.71727  0.64806  1.0000
  C   C1658     1.0  0.07670  0.59082  0.72049  1.0000
  H   H2849     1.0  0.15142  0.63984  0.66184  1.0000
  H   H2850     1.0  0.04757  0.61774  0.72705  1.0000
  C   C1659     1.0  0.07336  0.72525  0.63397  1.0000
  H   H2851     1.0  0.05632  0.71018  0.65406  1.0000
  C   C1660     1.0  0.05167  0.72776  0.64706  1.0000
  H   H2852     1.0  0.08180  0.72440  0.62915  1.0000
  C   C1661     1.0  0.12791  0.70327  0.60033  1.0000
  C   C1662     1.0  0.13118  0.69638  0.59269  1.0000
  C   C1663     1.0  0.12721  0.69981  0.58283  1.0000
  C   C1664     1.0  0.12039  0.71038  0.58027  1.0000
  C   C1665     1.0  0.11745  0.71749  0.58771  1.0000
  C   C1666     1.0  0.12104  0.71385  0.59784  1.0000
  H   H2853     1.0  0.13648  0.68820  0.59454  1.0000
  H   H2854     1.0  0.12934  0.69420  0.57722  1.0000
  H   H2855     1.0  0.11199  0.72557  0.58587  1.0000
  H   H2856     1.0  0.11848  0.71920  0.60373  1.0000
  Fe  Fe247     1.0  0.12798  0.61937  0.72428  1.0000
  C   C1667     1.0  0.13971  0.73867  0.60566  1.0000
  H   H2857     1.0  0.07716  0.73813  0.59289  1.0000
  C   C1668     1.0  0.11690  0.65167  0.68219  1.0000
  C   C1669     1.0  0.12312  0.65600  0.68683  1.0000
  C   C1670     1.0  0.12527  0.66672  0.68205  1.0000
  C   C1671     1.0  0.12103  0.67324  0.67276  1.0000
  C   C1672     1.0  0.11494  0.66885  0.66802  1.0000
  C   C1673     1.0  0.11299  0.65804  0.67265  1.0000
  H   H2858     1.0  0.12629  0.65110  0.69409  1.0000
  H   H2859     1.0  0.13006  0.67005  0.68570  1.0000
  H   H2860     1.0  0.11156  0.67381  0.66090  1.0000
  H   H2861     1.0  0.10817  0.65472  0.66903  1.0000
  H   H2862     1.0  0.13888  0.68162  0.63504  1.0000
  C   C1674     1.0  0.06305  0.72398  0.61063  1.0000
  C   C1675     1.0  0.12093  0.58056  0.72430  1.0000
  H   H2863     1.0  0.12485  0.58765  0.72187  1.0000
  H   H2864     1.0  0.14443  0.72462  0.61876  1.0000
  H   H2865     1.0  0.05366  0.62035  0.71224  1.0000
  H   H2866     1.0  0.07770  0.70154  0.58899  1.0000
  H   H2867     1.0  0.09191  0.69785  0.58181  1.0000
  H   H2868     1.0  0.08372  0.72644  0.61050  1.0000
  H   H2869     1.0  0.16232  0.64633  0.65257  1.0000
  H   H2870     1.0  0.17213  0.57499  0.73043  1.0000
  H   H2871     1.0  0.08774  0.72576  0.53346  1.0000
  H   H2872     1.0  0.07262  0.67896  0.72824  1.0000
  H   H2873     1.0  0.06956  0.61907  0.71840  1.0000
  H   H2874     1.0  0.11414  0.71876  0.52325  1.0000
  H   H2875     1.0  0.02380  0.72218  0.61377  1.0000
  H   H2876     1.0  0.14090  0.72057  0.60814  1.0000
  H   H2877     1.0  0.10500  0.66040  0.72220  1.0000
  H   H2878     1.0  0.16073  0.68421  0.64029  1.0000
  H   H2879     1.0  0.06313  0.71862  0.61902  1.0000
  H   H2880     1.0  0.08508  0.72697  0.52017  1.0000
  C   C1676     1.0  0.15076  0.67249  0.65189  1.0000
  H   H2881     1.0  0.07953  0.69880  0.61269  1.0000
  C   C1677     1.0  0.11579  0.72539  0.49147  1.0000
  N   N119      1.0  0.06999  0.60236  0.71681  1.0000
  H   H2882     1.0  0.04336  0.72879  0.65234  1.0000
  C   C1678     1.0  0.07702  0.67254  0.72325  1.0000
  H   H2883     1.0  0.09663  0.72123  0.60230  1.0000
  C   C1679     1.0  0.07365  0.61025  0.72136  1.0000
  H   H2884     1.0  0.10065  0.69437  0.60631  1.0000
  H   H2885     1.0  0.15588  0.67183  0.61818  1.0000
  H   H2886     1.0  0.01170  0.72471  0.59291  1.0000
  H   H2887     1.0  0.08812  0.71692  0.58384  1.0000
  H   H2888     1.0  0.13928  0.72722  0.59058  1.0000
  H   H2889     1.0  0.07972  0.58254  0.70667  1.0000
  H   H2890     1.0  0.07051  0.66819  0.72333  1.0000
  C   C1680     1.0  0.02897  0.72034  0.60577  1.0000
  H   H2891     1.0  0.13658  0.56837  0.72307  1.0000
  H   H2892     1.0  0.13075  0.67562  0.64748  1.0000
  C   C1681     1.0  0.07295  0.60596  0.70429  1.0000
  S   S490      1.0  0.12815  0.73516  0.51263  1.0000
  S   S491      1.0  0.10708  0.73360  0.54176  1.0000
  H   H2893     1.0  0.03376  0.72730  0.58866  1.0000
  S   S492      1.0  0.10202  0.71111  0.49328  1.0000
  S   S493      1.0  0.13064  0.54695  0.73133  1.0000
  C   C1682     1.0  0.12099  0.72825  0.50739  1.0000
  H   H2894     1.0  0.02010  0.73899  0.61649  1.0000
  H   H2895     1.0  0.16843  0.67275  0.62106  1.0000
  H   H2896     1.0  0.00768  0.72735  0.60646  1.0000
  H   H2897     1.0  0.13711  0.65751  0.65810  1.0000
  H   H2898     1.0  0.15847  0.66767  0.65492  1.0000
  H   H2899     1.0  0.02594  0.71392  0.60370  1.0000
  H   H2900     1.0  0.14570  0.69011  0.64344  1.0000
  H   H2901     1.0  0.14113  0.73555  0.57186  1.0000
  H   H2902     1.0  0.05427  0.72604  0.60953  1.0000
  C   C1683     1.0  0.14501  0.65582  0.65177  1.0000
  C   C1684     1.0  0.14522  0.72633  0.60964  1.0000
  H   H2903     1.0  0.08827  0.69256  0.59640  1.0000
  H   H2904     1.0  0.10407  0.70951  0.51544  1.0000
  H   H2905     1.0  0.14332  0.65080  0.64676  1.0000
  Fe  Fe248     1.0  0.11640  0.72881  0.55557  1.0000
  N   N120      1.0  0.14795  0.66661  0.64457  1.0000
  H   H2906     1.0  0.03472  0.73555  0.59734  1.0000
  H   H2907     1.0  0.05473  0.59710  0.71789  1.0000
  Fe  Fe249     1.0  0.10441  0.63251  0.72975  1.0000
  H   H2908     1.0  0.16583  0.66148  0.63833  1.0000
  H   H2909     1.0  0.14397  0.67305  0.65946  1.0000
  H   H2910     1.0  0.15791  0.57688  0.72311  1.0000
  C   C1685     1.0  0.06583  0.60329  0.69767  1.0000
  H   H2911     1.0  0.09868  0.73825  0.52054  1.0000
  H   H2912     1.0  0.06508  0.59450  0.69996  1.0000
  C   C1686     1.0  0.06583  0.73555  0.63247  1.0000
  S   S494      1.0  0.10072  0.59550  0.72769  1.0000
  H   H2913     1.0  0.13973  0.66374  0.62770  1.0000
  H   H2914     1.0  0.06678  0.58087  0.71696  1.0000
  H   H2915     1.0  0.06718  0.71078  0.60200  1.0000
  C   C1687     1.0  0.11075  0.56220  0.73092  1.0000
  C   C1688     1.0  0.08752  0.72387  0.60246  1.0000
  C   C1689     1.0  0.15286  0.68431  0.64671  1.0000
  H   H2916     1.0  0.07477  0.73354  0.57457  1.0000
  H   H2917     1.0  0.12814  0.66176  0.63945  1.0000
  H   H2918     1.0  0.15576  0.68188  0.62580  1.0000
  C   C1690     1.0  0.15933  0.67325  0.62466  1.0000
  C   C1691     1.0  0.08942  0.71032  0.59136  1.0000
  H   H2919     1.0  0.09857  0.70838  0.59100  1.0000
  H   H2920     1.0  0.15394  0.68782  0.65331  1.0000
  H   H2921     1.0  0.08579  0.59084  0.71838  1.0000
  H   H2922     1.0  0.06513  0.73199  0.61018  1.0000
  H   H2923     1.0  0.08049  0.70862  0.61959  1.0000
  H   H2924     1.0  0.12621  0.73715  0.57662  1.0000
  C   C1692     1.0  0.05507  0.73690  0.63923  1.0000
  C   C1693     1.0  0.07073  0.71804  0.60139  1.0000
  C   C1694     1.0  0.13762  0.67346  0.64039  1.0000
  C   C1695     1.0  0.13303  0.66787  0.63377  1.0000
  H   H2925     1.0  0.15732  0.65663  0.63252  1.0000
  N   N121      1.0  0.08298  0.71437  0.60178  1.0000
  H   H2926     1.0  0.12723  0.67430  0.62899  1.0000
  H   H2927     1.0  0.08195  0.60242  0.70104  1.0000
  C   C1696     1.0  0.15393  0.64798  0.65810  1.0000
  C   C1697     1.0  0.09639  0.69913  0.61290  1.0000
  C   C1698     1.0  0.08653  0.69997  0.58971  1.0000
  H   H2928     1.0  0.15440  0.65127  0.66510  1.0000
  C   C1699     1.0  0.15788  0.66397  0.63531  1.0000
  C   C1700     1.0  0.10890  0.71544  0.50997  1.0000
  H   H2929     1.0  0.05730  0.60869  0.69862  1.0000
  H   H2930     1.0  0.13103  0.73136  0.63752  1.0000
  C   C1701     1.0  0.11459  0.72068  0.51441  1.0000
  H   H2931     1.0  0.10158  0.70485  0.61285  1.0000
  S   S495      1.0  0.14518  0.61503  0.72793  1.0000
  H   H2932     1.0  0.04202  0.61368  0.71782  1.0000
  N   N122      1.0  0.09246  0.67213  0.70506  1.0000
  C   C1702     1.0  0.09301  0.67646  0.69276  1.0000
  C   C1703     1.0  0.09302  0.65976  0.70745  1.0000
  C   C1704     1.0  0.10266  0.67407  0.70755  1.0000
  C   C1705     1.0  0.08179  0.67841  0.71129  1.0000
  C   C1706     1.0  0.09423  0.68867  0.68806  1.0000
  C   C1707     1.0  0.08403  0.65639  0.70376  1.0000
  C   C1708     1.0  0.10445  0.66949  0.71949  1.0000
  H   H2933     1.0  0.03766  0.71658  0.60697  1.0000
  H   H2934     1.0  0.10011  0.67124  0.68796  1.0000
  H   H2935     1.0  0.08538  0.67587  0.69045  1.0000
  H   H2936     1.0  0.09242  0.65587  0.71636  1.0000
  H   H2937     1.0  0.10135  0.65540  0.70333  1.0000
  H   H2938     1.0  0.11040  0.67042  0.70200  1.0000
  H   H2939     1.0  0.10251  0.68313  0.70585  1.0000
  H   H2940     1.0  0.08287  0.68668  0.71163  1.0000
  H   H2941     1.0  0.07679  0.49689  0.72984  1.0000
  H   H2942     1.0  0.08786  0.69450  0.69281  1.0000
  H   H2943     1.0  0.10279  0.68961  0.68765  1.0000
  H   H2944     1.0  0.09307  0.69121  0.67936  1.0000
  H   H2945     1.0  0.08621  0.65690  0.69466  1.0000
  H   H2946     1.0  0.08373  0.64756  0.70777  1.0000
  H   H2947     1.0  0.07554  0.66151  0.70613  1.0000
  H   H2948     1.0  0.14401  0.58474  0.72342  1.0000
  H   H2949     1.0  0.11260  0.67090  0.71984  1.0000
  H   H2950     1.0  0.05611  0.59915  0.73038  1.0000
  C   C1709     1.0  0.00901  0.73155  0.59756  1.0000
  C   C1710     1.0  0.12168  0.73046  0.49589  1.0000
  C   C1711     1.0  0.04997  0.61435  0.71941  1.0000
  H   H2951     1.0  0.09614  0.69303  0.62097  1.0000
  C   C1712     1.0  0.08607  0.73445  0.59318  1.0000
  H   H2952     1.0  0.15466  0.59195  0.72120  1.0000
  C   C1713     1.0  0.07559  0.58153  0.71559  1.0000
  N   N123      1.0  0.01799  0.73824  0.59443  1.0000
  S   S496      1.0  0.13284  0.73105  0.54400  1.0000
  H   H2953     1.0  0.07230  0.61515  0.70159  1.0000
  C   C1714     1.0  0.10925  0.58222  0.72703  1.0000
  H   H2954     1.0  0.06956  0.72358  0.59327  1.0000
  C   C1715     1.0  0.15189  0.58412  0.72594  1.0000
  H   H2955     1.0  0.08329  0.66671  0.72777  1.0000
  H   H2956     1.0  0.07449  0.58793  0.72964  1.0000
  H   H2957     1.0  0.09088  0.73291  0.58492  1.0000
  H   H2958     1.0  0.08009  0.57341  0.71985  1.0000
  C   C1716     1.0  0.09215  0.50845  0.72849  1.0000
  H   H2959     1.0  0.09430  0.50033  0.72599  1.0000
  C   C1717     1.0  0.02916  0.73073  0.59617  1.0000
  C   C1718     1.0  0.12244  0.56049  0.72854  1.0000
  H   H2960     1.0  0.07224  0.73930  0.66372  1.0000
  C   C1719     1.0  0.10418  0.57304  0.73011  1.0000
  H   H2961     1.0  0.09951  0.51235  0.72449  1.0000
  C   C1720     1.0  0.08385  0.73163  0.52670  1.0000
  H   H2962     1.0  0.15637  0.73207  0.58702  1.0000
  C   C1721     1.0  0.13480  0.73611  0.58952  1.0000
  H   H2963     1.0  0.01990  0.73731  0.57734  1.0000
  H   H2964     1.0  0.16508  0.59647  0.73121  1.0000
  H   H2965     1.0  0.12634  0.73573  0.59489  1.0000
  H   H2966     1.0  0.07478  0.73414  0.53029  1.0000
  H   H2967     1.0  0.12667  0.73624  0.49039  1.0000
  H   H2968     1.0  0.08498  0.51411  0.72510  1.0000
  H   H2969     1.0  0.08702  0.73772  0.50324  1.0000
  H   H2970     1.0  0.09514  0.57424  0.73227  1.0000
  H   H2971     1.0  0.00552  0.73941  0.61687  1.0000
  Fe  Fe250     1.0  0.21819  0.60024  0.97064  1.0000
  S   S497      1.0  0.23439  0.60234  0.95865  1.0000
  Fe  Fe251     1.0  0.20668  0.60162  0.95184  1.0000
  S   S498      1.0  0.22195  0.60406  0.93870  1.0000
  S   S499      1.0  0.19100  0.60096  0.94712  1.0000
  Fe  Fe252     1.0  0.23119  0.59055  0.95028  1.0000
  S   S500      1.0  0.24476  0.57615  0.94520  1.0000
  Fe  Fe253     1.0  0.22347  0.61554  0.94838  1.0000
  S   S501      1.0  0.22796  0.63174  0.93884  1.0000
  S   S502      1.0  0.21576  0.58728  0.96303  1.0000
  S   S503      1.0  0.20737  0.61431  0.96080  1.0000
  Fe  Fe254     1.0  0.27250  0.54870  0.87136  1.0000
  S   S504      1.0  0.28614  0.53540  0.87801  1.0000
  S   S505      1.0  0.27128  0.55492  0.85356  1.0000
  Fe  Fe255     1.0  0.25909  0.55207  0.89402  1.0000
  S   S506      1.0  0.27139  0.53895  0.90276  1.0000
  S   S507      1.0  0.24367  0.56365  0.90110  1.0000
  Fe  Fe256     1.0  0.28436  0.54682  0.88943  1.0000
  S   S508      1.0  0.29860  0.55124  0.89363  1.0000
  Fe  Fe257     1.0  0.27188  0.52881  0.89057  1.0000
  S   S509      1.0  0.26978  0.51082  0.89609  1.0000
  S   S510      1.0  0.27197  0.56052  0.88160  1.0000
  S   S511      1.0  0.25841  0.54141  0.88306  1.0000
  Fe  Fe258     1.0  0.27703  0.63112  0.88510  1.0000
  S   S512      1.0  0.29476  0.63080  0.87510  1.0000
  S   S513      1.0  0.26192  0.63679  0.87689  1.0000
  Fe  Fe259     1.0  0.28516  0.62302  0.90661  1.0000
  S   S514      1.0  0.30333  0.62143  0.89850  1.0000
  S   S515      1.0  0.28044  0.61866  0.92514  1.0000
  Fe  Fe260     1.0  0.29782  0.63820  0.88797  1.0000
  S   S516      1.0  0.30701  0.65258  0.88404  1.0000
  Fe  Fe261     1.0  0.29877  0.61417  0.88658  1.0000
  S   S517      1.0  0.31043  0.59914  0.88068  1.0000
  S   S518      1.0  0.27970  0.64020  0.89676  1.0000
  S   S519      1.0  0.28106  0.61413  0.89579  1.0000
  Fe  Fe262     1.0  0.21260  0.60861  0.86740  1.0000
  S   S520      1.0  0.19378  0.61322  0.87340  1.0000
  S   S521      1.0  0.22375  0.62102  0.86460  1.0000
  Fe  Fe263     1.0  0.21136  0.58582  0.86524  1.0000
  S   S522      1.0  0.19288  0.58826  0.87200  1.0000
  S   S523      1.0  0.21945  0.57099  0.85750  1.0000
  Fe  Fe264     1.0  0.19191  0.60500  0.86050  1.0000
  S   S524      1.0  0.17978  0.61118  0.84840  1.0000
  Fe  Fe265     1.0  0.19630  0.59603  0.88426  1.0000
  S   S525      1.0  0.18703  0.59204  0.90212  1.0000
  S   S526      1.0  0.21051  0.60234  0.85335  1.0000
  S   S527      1.0  0.21505  0.59167  0.87869  1.0000
  H   H2972     1.0  0.23370  0.58342  0.90961  1.0000
  H   H2973     1.0  0.09487  0.60000  0.83578  1.0000
  H   H2974     1.0  0.27719  0.66751  0.89547  1.0000
  H   H2975     1.0  0.19218  0.60879  0.82397  1.0000
  Fe  Fe266     1.0  0.14708  0.58744  0.81431  1.0000
  S   S528      1.0  0.15618  0.58446  0.79726  1.0000
  S   S529      1.0  0.15575  0.58435  0.82895  1.0000
  Fe  Fe267     1.0  0.12426  0.59324  0.80775  1.0000
  S   S530      1.0  0.13153  0.59100  0.79037  1.0000
  S   S531      1.0  0.10572  0.60041  0.81225  1.0000
  Fe  Fe268     1.0  0.14275  0.57562  0.79795  1.0000
  S   S532      1.0  0.14799  0.56114  0.78916  1.0000
  Fe  Fe269     1.0  0.14427  0.59988  0.79077  1.0000
  S   S533      1.0  0.15047  0.61279  0.77626  1.0000
  S   S534      1.0  0.13449  0.57712  0.81560  1.0000
  S   S535      1.0  0.13609  0.60362  0.80761  1.0000
  Fe  Fe270     1.0  0.34497  0.69811  0.92260  1.0000
  S   S536      1.0  0.35477  0.68119  0.91975  1.0000
  S   S537      1.0  0.34031  0.70332  0.93919  1.0000
  Fe  Fe271     1.0  0.34273  0.70628  0.89862  1.0000
  S   S538      1.0  0.35285  0.69026  0.89372  1.0000
  S   S539      1.0  0.33383  0.72002  0.88682  1.0000
  Fe  Fe272     1.0  0.34250  0.68183  0.90941  1.0000
  S   S540      1.0  0.33487  0.66660  0.91139  1.0000
  Fe  Fe273     1.0  0.36410  0.69102  0.90436  1.0000
  S   S541      1.0  0.38311  0.68761  0.89937  1.0000
  S   S542      1.0  0.33186  0.69793  0.91382  1.0000
  S   S543      1.0  0.35481  0.70782  0.90771  1.0000
  S   S544      1.0  0.48811  0.71728  0.94164  1.0000
  C   C1722     1.0  0.45096  0.73515  0.95048  1.0000
  H   H2976     1.0  0.34987  0.62656  0.85825  1.0000
  C   C1723     1.0  0.06908  0.55410  0.74430  1.0000
  S   S545      1.0  0.37402  0.71503  0.96060  1.0000
  H   H2977     1.0  0.13820  0.60706  0.83894  1.0000
  Fe  Fe274     1.0  0.43629  0.73414  0.91047  1.0000
  H   H2978     1.0  0.07324  0.49766  0.76577  1.0000
  H   H2979     1.0  0.27849  0.57617  0.84289  1.0000
  Fe  Fe275     1.0  0.42549  0.71516  0.91163  1.0000
  H   H2980     1.0  0.40049  0.66094  0.95996  1.0000
  S   S546      1.0  0.40947  0.70930  0.92061  1.0000
  Fe  Fe276     1.0  0.45105  0.71203  0.90688  1.0000
  H   H2981     1.0  0.12130  0.56202  0.74904  1.0000
  S   S547      1.0  0.46791  0.70160  0.90985  1.0000
  H   H2982     1.0  0.08423  0.58027  0.76350  1.0000
  H   H2983     1.0  0.40948  0.73293  0.86463  1.0000
  Fe  Fe277     1.0  0.43765  0.72647  0.88969  1.0000
  H   H2984     1.0  0.07879  0.50991  0.76175  1.0000
  S   S548      1.0  0.43733  0.71694  0.92101  1.0000
  S   S549      1.0  0.43933  0.70844  0.89842  1.0000
  Fe  Fe278     1.0  0.05074  0.61097  0.77610  1.0000
  S   S550      1.0  0.04526  0.60168  0.79356  1.0000
  H   H2985     1.0  0.08712  0.56143  0.77442  1.0000
  Fe  Fe279     1.0  0.05550  0.59067  0.76646  1.0000
  S   S551      1.0  0.05090  0.57958  0.78301  1.0000
  C   C1724     1.0  0.25900  0.60268  0.85481  1.0000
  Fe  Fe280     1.0  0.03619  0.59368  0.78596  1.0000
  S   S552      1.0  0.01873  0.59030  0.79326  1.0000
  Fe  Fe281     1.0  0.06042  0.58852  0.78897  1.0000
  S   S553      1.0  0.07282  0.57852  0.79967  1.0000
  S   S554      1.0  0.04026  0.60430  0.76899  1.0000
  S   S555      1.0  0.06648  0.59830  0.77198  1.0000
  H   H2986     1.0  0.10675  0.59036  0.76422  1.0000
  H   H2987     1.0  0.24166  0.60319  0.85474  1.0000
  H   H2988     1.0  0.25056  0.58606  0.88695  1.0000
  C   C1725     1.0  0.09088  0.58308  0.75660  1.0000
  S   S556      1.0  0.10424  0.51747  0.76942  1.0000
  Fe  Fe282     1.0  0.09793  0.53014  0.75540  1.0000
  S   S557      1.0  0.08004  0.53373  0.75384  1.0000
  C   C1726     1.0  0.27561  0.61084  0.86253  1.0000
  H   H2989     1.0  0.25444  0.60952  0.85924  1.0000
  H   H2990     1.0  0.32190  0.73625  0.91401  1.0000
  H   H2991     1.0  0.33747  0.62887  0.90007  1.0000
  H   H2992     1.0  0.34810  0.64611  0.85157  1.0000
  C   C1727     1.0  0.01264  0.58564  0.78499  1.0000
  C   C1728     1.0  0.01729  0.58627  0.77368  1.0000
  C   C1729     1.0  0.01237  0.58245  0.76724  1.0000
  C   C1730     1.0  0.25262  0.58755  0.87774  1.0000
  S   S558      1.0  0.45064  0.72939  0.89683  1.0000
  H   H2993     1.0  0.02473  0.58964  0.76991  1.0000
  H   H2994     1.0  0.01605  0.58298  0.75850  1.0000
  C   C1731     1.0  0.34051  0.65098  0.85616  1.0000
  C   C1732     1.0  0.06504  0.57074  0.75161  1.0000
  H   H2995     1.0  0.24938  0.58927  0.85743  1.0000
  H   H2996     1.0  0.06785  0.61883  0.75594  1.0000
  C   C1733     1.0  0.07455  0.54801  0.75288  1.0000
  C   C1734     1.0  0.07526  0.55328  0.76085  1.0000
  C   C1735     1.0  0.07033  0.56463  0.76031  1.0000
  H   H2997     1.0  0.35863  0.63500  0.87364  1.0000
  C   C1736     1.0  0.05113  0.53650  0.77680  1.0000
  H   H2998     1.0  0.07937  0.54853  0.76758  1.0000
  H   H2999     1.0  0.07063  0.56866  0.76659  1.0000
  H   H3000     1.0  0.12359  0.50194  0.77762  1.0000
  H   H3001     1.0  0.34961  0.61749  0.87147  1.0000
  H   H3002     1.0  0.34383  0.64776  0.87237  1.0000
  H   H3003     1.0  0.01197  0.54735  0.77587  1.0000
  H   H3004     1.0  0.07619  0.60012  0.73790  1.0000
  Fe  Fe283     1.0  0.12075  0.53541  0.74442  1.0000
  H   H3005     1.0  0.02821  0.54736  0.78646  1.0000
  H   H3006     1.0  0.12011  0.58295  0.77631  1.0000
  H   H3007     1.0  0.21052  0.62979  0.88610  1.0000
  H   H3008     1.0  0.41641  0.71388  0.86759  1.0000
  C   C1737     1.0  0.48363  0.71379  0.93138  1.0000
  C   C1738     1.0  0.48953  0.70463  0.92666  1.0000
  C   C1739     1.0  0.48479  0.70105  0.91983  1.0000
  C   C1740     1.0  0.47420  0.70668  0.91762  1.0000
  C   C1741     1.0  0.46857  0.71612  0.92195  1.0000
  C   C1742     1.0  0.47321  0.71955  0.92890  1.0000
  C   C1743     1.0  0.08146  0.49046  0.74660  1.0000
  C   C1744     1.0  0.15661  0.58162  0.75505  1.0000
  H   H3009     1.0  0.46050  0.72063  0.92013  1.0000
  H   H3010     1.0  0.46866  0.72667  0.93245  1.0000
  H   H3011     1.0  0.04565  0.55414  0.74491  1.0000
  H   H3012     1.0  0.23385  0.58831  0.92692  1.0000
  H   H3013     1.0  0.28498  0.67627  0.89735  1.0000
  H   H3014     1.0  0.03085  0.53389  0.77633  1.0000
  C   C1745     1.0  0.34921  0.70819  0.94451  1.0000
  C   C1746     1.0  0.35892  0.71170  0.93788  1.0000
  C   C1747     1.0  0.36596  0.71502  0.94267  1.0000
  C   C1748     1.0  0.36347  0.71468  0.95411  1.0000
  C   C1749     1.0  0.35357  0.71153  0.96061  1.0000
  C   C1750     1.0  0.34643  0.70844  0.95582  1.0000
  H   H3015     1.0  0.36113  0.71164  0.92914  1.0000
  H   H3016     1.0  0.37362  0.71738  0.93761  1.0000
  H   H3017     1.0  0.35167  0.71098  0.96947  1.0000
  H   H3018     1.0  0.33893  0.70580  0.96102  1.0000
  C   C1751     1.0  0.39043  0.69382  0.90515  1.0000
  C   C1752     1.0  0.40219  0.69180  0.90223  1.0000
  C   C1753     1.0  0.40817  0.69687  0.90653  1.0000
  C   C1754     1.0  0.40240  0.70393  0.91385  1.0000
  C   C1755     1.0  0.39066  0.70603  0.91665  1.0000
  C   C1756     1.0  0.38470  0.70097  0.91237  1.0000
  H   H3019     1.0  0.40670  0.68627  0.89664  1.0000
  H   H3020     1.0  0.41724  0.69510  0.90440  1.0000
  H   H3021     1.0  0.38617  0.71154  0.92223  1.0000
  H   H3022     1.0  0.37567  0.70257  0.91472  1.0000
  H   H3023     1.0  0.14690  0.59236  0.73945  1.0000
  H   H3024     1.0  0.99923  0.58089  0.79849  1.0000
  H   H3025     1.0  0.11602  0.58944  0.86828  1.0000
  H   H3026     1.0  0.15205  0.56168  0.73539  1.0000
  H   H3027     1.0  0.35152  0.72991  0.88864  1.0000
  H   H3028     1.0  0.34352  0.72474  0.92294  1.0000
  C   C1757     1.0  0.12002  0.56946  0.76314  1.0000
  H   H3029     1.0  0.26846  0.61719  0.85973  1.0000
  H   H3030     1.0  0.05705  0.50836  0.76118  1.0000
  C   C1758     1.0  0.13845  0.55376  0.78817  1.0000
  C   C1759     1.0  0.14142  0.54768  0.77977  1.0000
  C   C1760     1.0  0.13413  0.54157  0.77882  1.0000
  C   C1761     1.0  0.12389  0.54130  0.78642  1.0000
  C   C1762     1.0  0.12106  0.54714  0.79499  1.0000
  C   C1763     1.0  0.12818  0.55356  0.79572  1.0000
  H   H3031     1.0  0.14941  0.54770  0.77399  1.0000
  H   H3032     1.0  0.13648  0.53699  0.77228  1.0000
  H   H3033     1.0  0.11319  0.54692  0.80096  1.0000
  H   H3034     1.0  0.12584  0.55813  0.80228  1.0000
  C   C1764     1.0  0.09685  0.59441  0.80825  1.0000
  C   C1765     1.0  0.09972  0.58314  0.80779  1.0000
  C   C1766     1.0  0.09227  0.57839  0.80512  1.0000
  C   C1767     1.0  0.08211  0.58493  0.80250  1.0000
  C   C1768     1.0  0.07939  0.59629  0.80263  1.0000
  C   C1769     1.0  0.08664  0.60095  0.80574  1.0000
  H   H3035     1.0  0.10753  0.57801  0.80978  1.0000
  H   H3036     1.0  0.09437  0.56958  0.80510  1.0000
  H   H3037     1.0  0.07150  0.60136  0.80076  1.0000
  H   H3038     1.0  0.08430  0.60963  0.80623  1.0000
  H   H3039     1.0  0.12674  0.57931  0.85284  1.0000
  H   H3040     1.0  0.03717  0.56886  0.77485  1.0000
  C   C1770     1.0  0.27271  0.59465  0.97849  1.0000
  H   H3041     1.0  0.25548  0.60115  0.96636  1.0000
  H   H3042     1.0  0.32118  0.61981  0.86428  1.0000
  H   H3043     1.0  0.35002  0.62619  0.89001  1.0000
  C   C1771     1.0  0.14520  0.58131  0.76320  1.0000
  H   H3044     1.0  0.34199  0.65945  0.85504  1.0000
  H   H3045     1.0  0.03426  0.53646  0.76170  1.0000
  C   C1772     1.0  0.14609  0.61449  0.74153  1.0000
  C   C1773     1.0  0.09075  0.56440  0.77975  1.0000
  H   H3046     1.0  0.06958  0.51850  0.74662  1.0000
  H   H3047     1.0  0.27778  0.59980  0.96021  1.0000
  H   H3048     1.0  0.27122  0.67519  0.90621  1.0000
  H   H3049     1.0  0.11853  0.59178  0.83161  1.0000
  H   H3050     1.0  0.48921  0.69374  0.91648  1.0000
  H   H3051     1.0  0.24577  0.62319  0.97318  1.0000
  H   H3052     1.0  0.12333  0.57153  0.84511  1.0000
  H   H3053     1.0  0.22954  0.54658  0.91813  1.0000
  C   C1774     1.0  0.14873  0.61296  0.76305  1.0000
  H   H3054     1.0  0.32559  0.63379  0.88697  1.0000
  H   H3055     1.0  0.33326  0.65208  0.85239  1.0000
  H   H3056     1.0  0.08910  0.55932  0.78833  1.0000
  H   H3057     1.0  0.13336  0.60704  0.76874  1.0000
  H   H3058     1.0  0.11057  0.57541  0.78689  1.0000
  C   C1775     1.0  0.03557  0.56175  0.78182  1.0000
  C   C1776     1.0  0.17263  0.60376  0.84345  1.0000
  C   C1777     1.0  0.17173  0.59272  0.84841  1.0000
  C   C1778     1.0  0.16644  0.58703  0.84393  1.0000
  C   C1779     1.0  0.16196  0.59222  0.83439  1.0000
  C   C1780     1.0  0.16272  0.60331  0.82950  1.0000
  C   C1781     1.0  0.16794  0.60903  0.83404  1.0000
  H   H3059     1.0  0.17513  0.58855  0.85572  1.0000
  H   H3060     1.0  0.16589  0.57849  0.84786  1.0000
  H   H3061     1.0  0.15933  0.60748  0.82219  1.0000
  H   H3062     1.0  0.16850  0.61757  0.83012  1.0000
  C   C1782     1.0  0.31484  0.65626  0.89174  1.0000
  C   C1783     1.0  0.31750  0.64942  0.90165  1.0000
  C   C1784     1.0  0.32372  0.65268  0.90742  1.0000
  C   C1785     1.0  0.32733  0.66285  0.90347  1.0000
  C   C1786     1.0  0.32471  0.66966  0.89352  1.0000
  C   C1787     1.0  0.31856  0.66636  0.88770  1.0000
  H   H3063     1.0  0.31477  0.64161  0.90490  1.0000
  H   H3064     1.0  0.32572  0.64730  0.91506  1.0000
  H   H3065     1.0  0.32740  0.67750  0.89033  1.0000
  H   H3066     1.0  0.31660  0.67175  0.88005  1.0000
  C   C1788     1.0  0.25150  0.63143  0.87424  1.0000
  C   C1789     1.0  0.24568  0.63817  0.86611  1.0000
  C   C1790     1.0  0.23735  0.63471  0.86340  1.0000
  C   C1791     1.0  0.23445  0.62447  0.86884  1.0000
  C   C1792     1.0  0.24010  0.61765  0.87719  1.0000
  C   C1793     1.0  0.24866  0.62111  0.87985  1.0000
  H   H3067     1.0  0.24768  0.64616  0.86175  1.0000
  H   H3068     1.0  0.23308  0.64010  0.85700  1.0000
  H   H3069     1.0  0.23782  0.60981  0.88159  1.0000
  H   H3070     1.0  0.25296  0.61589  0.88627  1.0000
  C   C1794     1.0  0.25714  0.56108  0.85380  1.0000
  C   C1795     1.0  0.25030  0.56451  0.86336  1.0000
  C   C1796     1.0  0.23875  0.56835  0.86419  1.0000
  C   C1797     1.0  0.23398  0.56829  0.85562  1.0000
  C   C1798     1.0  0.24080  0.56509  0.84592  1.0000
  C   C1799     1.0  0.25244  0.56171  0.84491  1.0000
  H   H3071     1.0  0.25385  0.56389  0.87029  1.0000
  H   H3072     1.0  0.23349  0.57072  0.87174  1.0000
  H   H3073     1.0  0.23707  0.56502  0.83929  1.0000
  H   H3074     1.0  0.25772  0.55900  0.83753  1.0000
  C   C1800     1.0  0.30137  0.56482  0.88965  1.0000
  C   C1801     1.0  0.29385  0.57430  0.88534  1.0000
  C   C1802     1.0  0.29628  0.58500  0.88295  1.0000
  C   C1803     1.0  0.30640  0.58617  0.88453  1.0000
  C   C1804     1.0  0.31391  0.57668  0.88865  1.0000
  C   C1805     1.0  0.31133  0.56613  0.89135  1.0000
  H   H3075     1.0  0.28611  0.57340  0.88407  1.0000
  H   H3076     1.0  0.29046  0.59230  0.87972  1.0000
  H   H3077     1.0  0.32179  0.57747  0.88976  1.0000
  H   H3078     1.0  0.31720  0.55888  0.89464  1.0000
  C   C1806     1.0  0.26565  0.50461  0.88749  1.0000
  C   C1807     1.0  0.26824  0.50798  0.87593  1.0000
  C   C1808     1.0  0.26475  0.50293  0.86930  1.0000
  S   S559      1.0  0.42318  0.73298  0.90240  1.0000
  H   H3079     1.0  0.27295  0.51446  0.87210  1.0000
  H   H3080     1.0  0.26678  0.50561  0.86036  1.0000
  C   C1809     1.0  0.24256  0.62913  0.93526  1.0000
  C   C1810     1.0  0.24794  0.63185  0.92414  1.0000
  C   C1811     1.0  0.25959  0.62857  0.92103  1.0000
  C   C1812     1.0  0.26591  0.62293  0.92907  1.0000
  C   C1813     1.0  0.26056  0.62044  0.94023  1.0000
  C   C1814     1.0  0.24886  0.62349  0.94333  1.0000
  H   H3081     1.0  0.24308  0.63613  0.91788  1.0000
  H   H3082     1.0  0.26359  0.63021  0.91238  1.0000
  H   H3083     1.0  0.26545  0.61598  0.94640  1.0000
  H   H3084     1.0  0.24469  0.62152  0.95195  1.0000
  C   C1815     1.0  0.19032  0.59969  0.93392  1.0000
  C   C1816     1.0  0.19932  0.60017  0.92467  1.0000
  C   C1817     1.0  0.19830  0.59860  0.91448  1.0000
  C   C1818     1.0  0.18838  0.59623  0.91369  1.0000
  C   C1819     1.0  0.17945  0.59590  0.92292  1.0000
  C   C1820     1.0  0.18036  0.59775  0.93288  1.0000
  H   H3085     1.0  0.20707  0.60152  0.92545  1.0000
  H   H3086     1.0  0.20532  0.59870  0.90745  1.0000
  H   H3087     1.0  0.17179  0.59404  0.92242  1.0000
  H   H3088     1.0  0.17337  0.59738  0.93994  1.0000
  C   C1821     1.0  0.24449  0.57278  0.93285  1.0000
  C   C1822     1.0  0.25076  0.56254  0.93037  1.0000
  C   C1823     1.0  0.25091  0.55984  0.92042  1.0000
  C   C1824     1.0  0.24466  0.56731  0.91297  1.0000
  C   C1825     1.0  0.23852  0.57760  0.91537  1.0000
  C   C1826     1.0  0.23850  0.58034  0.92524  1.0000
  H   H3089     1.0  0.25544  0.55665  0.93620  1.0000
  H   H3090     1.0  0.25555  0.55182  0.91869  1.0000
  N   N124      1.0  0.20408  0.58696  0.82463  1.0000
  C   C1827     1.0  0.20193  0.58548  0.83707  1.0000
  C   C1828     1.0  0.20858  0.59743  0.81946  1.0000
  C   C1829     1.0  0.21300  0.57708  0.82157  1.0000
  C   C1830     1.0  0.19331  0.58743  0.82142  1.0000
  C   C1831     1.0  0.19797  0.57476  0.84403  1.0000
  C   C1832     1.0  0.21693  0.57689  0.80915  1.0000
  C   C1833     1.0  0.19173  0.59411  0.80974  1.0000
  H   H3091     1.0  0.20956  0.58572  0.83963  1.0000
  H   H3092     1.0  0.19536  0.59245  0.83994  1.0000
  H   H3093     1.0  0.20995  0.59932  0.81029  1.0000
  H   H3094     1.0  0.21700  0.59631  0.82123  1.0000
  H   H3095     1.0  0.22057  0.57633  0.82480  1.0000
  H   H3096     1.0  0.21008  0.56918  0.82553  1.0000
  H   H3097     1.0  0.19213  0.57888  0.82226  1.0000
  H   H3098     1.0  0.18596  0.59120  0.82722  1.0000
  H   H3099     1.0  0.19081  0.57346  0.84150  1.0000
  H   H3100     1.0  0.20493  0.56731  0.84380  1.0000
  H   H3101     1.0  0.19510  0.57546  0.85286  1.0000
  H   H3102     1.0  0.21980  0.58451  0.80402  1.0000
  H   H3103     1.0  0.21035  0.57527  0.80598  1.0000
  H   H3104     1.0  0.22423  0.56982  0.80808  1.0000
  H   H3105     1.0  0.19036  0.60320  0.80906  1.0000
  H   H3106     1.0  0.18402  0.59271  0.80826  1.0000
  H   H3107     1.0  0.19873  0.59160  0.80299  1.0000
  H   H3108     1.0  0.34171  0.64036  0.88998  1.0000
  C   C1834     1.0  0.09030  0.50689  0.74114  1.0000
  C   C1835     1.0  0.42195  0.73930  0.93579  1.0000
  C   C1836     1.0  0.11116  0.58279  0.78000  1.0000
  H   H3109     1.0  0.20373  0.61555  0.81737  1.0000
  N   N125      1.0  0.09878  0.62657  0.77485  1.0000
  C   C1837     1.0  0.09787  0.61962  0.76740  1.0000
  C   C1838     1.0  0.10412  0.63601  0.76751  1.0000
  C   C1839     1.0  0.08706  0.63112  0.78082  1.0000
  C   C1840     1.0  0.10577  0.61902  0.78291  1.0000
  C   C1841     1.0  0.08993  0.61139  0.77262  1.0000
  C   C1842     1.0  0.11609  0.63256  0.76081  1.0000
  C   C1843     1.0  0.08526  0.64159  0.78545  1.0000
  C   C1844     1.0  0.10891  0.62440  0.79073  1.0000
  H   H3110     1.0  0.09499  0.62503  0.75989  1.0000
  H   H3111     1.0  0.10622  0.61459  0.76419  1.0000
  H   H3112     1.0  0.10457  0.64190  0.77224  1.0000
  H   H3113     1.0  0.09883  0.64118  0.76150  1.0000
  H   H3114     1.0  0.08113  0.63354  0.77512  1.0000
  H   H3115     1.0  0.08391  0.62460  0.78784  1.0000
  H   H3116     1.0  0.10139  0.61242  0.78839  1.0000
  H   H3117     1.0  0.11367  0.61417  0.77861  1.0000
  H   H3118     1.0  0.38833  0.72778  0.86190  1.0000
  H   H3119     1.0  0.26079  0.60035  0.87637  1.0000
  C   C1845     1.0  0.38455  0.66994  0.95463  1.0000
  H   H3120     1.0  0.12203  0.62812  0.76633  1.0000
  H   H3121     1.0  0.11643  0.62750  0.75489  1.0000
  H   H3122     1.0  0.11909  0.64018  0.75575  1.0000
  H   H3123     1.0  0.09100  0.64070  0.79088  1.0000
  H   H3124     1.0  0.07658  0.64319  0.79051  1.0000
  H   H3125     1.0  0.08592  0.64908  0.77864  1.0000
  H   H3126     1.0  0.10235  0.62461  0.79849  1.0000
  H   H3127     1.0  0.11059  0.63280  0.78693  1.0000
  H   H3128     1.0  0.11691  0.61932  0.79299  1.0000
  N   N126      1.0  0.39299  0.72135  0.87781  1.0000
  C   C1846     1.0  0.38116  0.72027  0.88378  1.0000
  C   C1847     1.0  0.39819  0.72436  0.88559  1.0000
  C   C1848     1.0  0.39941  0.71021  0.87510  1.0000
  H   H3129     1.0  0.17645  0.57315  0.74283  1.0000
  C   C1849     1.0  0.37487  0.71540  0.87805  1.0000
  C   C1850     1.0  0.40338  0.73292  0.85993  1.0000
  C   C1851     1.0  0.41228  0.70751  0.87379  1.0000
  H   H3130     1.0  0.36545  0.68905  0.93400  1.0000
  H   H3131     1.0  0.38110  0.71491  0.89223  1.0000
  H   H3132     1.0  0.37577  0.72850  0.88501  1.0000
  H   H3133     1.0  0.42366  0.71984  0.96804  1.0000
  H   H3134     1.0  0.39862  0.71756  0.89312  1.0000
  H   H3135     1.0  0.39653  0.70326  0.88172  1.0000
  H   H3136     1.0  0.39770  0.70923  0.86737  1.0000
  H   H3137     1.0  0.08982  0.51512  0.74288  1.0000
  C   C1852     1.0  0.16998  0.57831  0.73805  1.0000
  H   H3138     1.0  0.36657  0.71456  0.88351  1.0000
  H   H3139     1.0  0.37321  0.72096  0.87011  1.0000
  H   H3140     1.0  0.37923  0.70691  0.87676  1.0000
  C   C1853     1.0  0.06404  0.64406  0.76208  1.0000
  C   C1854     1.0  0.13810  0.61078  0.75082  1.0000
  C   C1855     1.0  0.21605  0.64875  0.89300  1.0000
  H   H3141     1.0  0.41584  0.69951  0.87099  1.0000
  H   H3142     1.0  0.41464  0.70626  0.88184  1.0000
  C   C1856     1.0  0.33781  0.73287  0.88061  1.0000
  S   S560      1.0  0.12366  0.49297  0.75770  1.0000
  H   H3143     1.0  0.19005  0.54898  0.93528  1.0000
  Fe  Fe284     1.0  0.37439  0.73037  0.96617  1.0000
  H   H3144     1.0  0.38377  0.68964  0.96044  1.0000
  H   H3145     1.0  0.36940  0.67539  0.94187  1.0000
  H   H3146     1.0  0.22196  0.61936  0.98114  1.0000
  H   H3147     1.0  0.13807  0.58607  0.75925  1.0000
  H   H3148     1.0  0.46210  0.70192  0.95955  1.0000
  C   C1857     1.0  0.33799  0.73900  0.94317  1.0000
  C   C1858     1.0  0.09478  0.60818  0.83729  1.0000
  H   H3149     1.0  0.42361  0.70611  0.97624  1.0000
  C   C1859     1.0  0.15543  0.61724  0.74305  1.0000
  H   H3150     1.0  0.14716  0.50244  0.76898  1.0000
  H   H3151     1.0  0.33002  0.72881  0.93089  1.0000
  H   H3152     1.0  0.08627  0.57293  0.78049  1.0000
  H   H3153     1.0  0.14457  0.49380  0.80115  1.0000
  H   H3154     1.0  0.44388  0.69962  0.96923  1.0000
  H   H3155     1.0  0.13356  0.59958  0.83175  1.0000
  H   H3156     1.0  0.10187  0.56724  0.75489  1.0000
  C   C1860     1.0  0.12522  0.57966  0.84467  1.0000
  H   H3157     1.0  0.16328  0.57707  0.75981  1.0000
  H   H3158     1.0  0.32473  0.73829  0.87139  1.0000
  C   C1861     1.0  0.07344  0.64758  0.75474  1.0000
  C   C1862     1.0  0.46273  0.71287  0.96915  1.0000
  H   H3159     1.0  0.21923  0.65205  0.88405  1.0000
  N   N127      1.0  0.28033  0.58247  0.92140  1.0000
  C   C1863     1.0  0.29217  0.58115  0.92262  1.0000
  C   C1864     1.0  0.27540  0.57355  0.93024  1.0000
  C   C1865     1.0  0.27382  0.59375  0.92353  1.0000
  C   C1866     1.0  0.28074  0.58150  0.90981  1.0000
  C   C1867     1.0  0.29860  0.59009  0.91499  1.0000
  C   C1868     1.0  0.28158  0.56143  0.92967  1.0000
  C   C1869     1.0  0.26151  0.59711  0.92243  1.0000
  C   C1870     1.0  0.27064  0.57820  0.90787  1.0000
  H   H3160     1.0  0.29228  0.58101  0.93133  1.0000
  H   H3161     1.0  0.29746  0.57305  0.92084  1.0000
  H   H3162     1.0  0.26660  0.57416  0.93018  1.0000
  H   H3163     1.0  0.27504  0.57470  0.93866  1.0000
  H   H3164     1.0  0.27398  0.59448  0.93196  1.0000
  H   H3165     1.0  0.27773  0.60045  0.91763  1.0000
  H   H3166     1.0  0.28192  0.58943  0.90380  1.0000
  H   H3167     1.0  0.28820  0.57505  0.90723  1.0000
  H   H3168     1.0  0.29566  0.59807  0.91784  1.0000
  H   H3169     1.0  0.30762  0.58721  0.91531  1.0000
  H   H3170     1.0  0.29814  0.59157  0.90620  1.0000
  H   H3171     1.0  0.27626  0.55567  0.93533  1.0000
  H   H3172     1.0  0.28328  0.55977  0.92125  1.0000
  H   H3173     1.0  0.28955  0.55922  0.93255  1.0000
  H   H3174     1.0  0.26087  0.59840  0.91370  1.0000
  H   H3175     1.0  0.25764  0.60523  0.92490  1.0000
  H   H3176     1.0  0.25644  0.59117  0.92797  1.0000
  H   H3177     1.0  0.26894  0.58294  0.89963  1.0000
  H   H3178     1.0  0.26271  0.57989  0.91395  1.0000
  H   H3179     1.0  0.27273  0.56929  0.90737  1.0000
  N   N128      1.0  0.38813  0.68042  0.94739  1.0000
  C   C1871     1.0  0.39123  0.68672  0.95413  1.0000
  N   N129      1.0  0.08040  0.50206  0.74815  1.0000
  C   C1872     1.0  0.39739  0.67785  0.93760  1.0000
  H   H3180     1.0  0.45107  0.71827  0.94049  1.0000
  C   C1873     1.0  0.39220  0.73524  0.88961  1.0000
  C   C1874     1.0  0.40899  0.67157  0.94000  1.0000
  H   H3181     1.0  0.38033  0.69550  0.93719  1.0000
  H   H3182     1.0  0.16468  0.56041  0.75336  1.0000
  H   H3183     1.0  0.39508  0.67272  0.93316  1.0000
  H   H3184     1.0  0.39853  0.68555  0.93117  1.0000
  H   H3185     1.0  0.38452  0.66422  0.94944  1.0000
  H   H3186     1.0  0.37574  0.67196  0.95940  1.0000
  C   C1875     1.0  0.44919  0.70138  0.94619  1.0000
  H   H3187     1.0  0.03031  0.56526  0.78907  1.0000
  H   H3188     1.0  0.27022  0.61615  0.97647  1.0000
  H   H3189     1.0  0.17362  0.59291  0.74137  1.0000
  H   H3190     1.0  0.40988  0.66242  0.94136  1.0000
  H   H3191     1.0  0.41091  0.67352  0.94708  1.0000
  H   H3192     1.0  0.41558  0.67420  0.93274  1.0000
  C   C1876     1.0  0.37811  0.68785  0.94298  1.0000
  H   H3193     1.0  0.39062  0.70327  0.94257  1.0000
  S   S561      1.0  0.12912  0.52272  0.75735  1.0000
  H   H3194     1.0  0.15952  0.54973  0.74329  1.0000
  H   H3195     1.0  0.03237  0.55039  0.74656  1.0000
  H   H3196     1.0  0.14100  0.51193  0.79006  1.0000
  C   C1877     1.0  0.20751  0.62377  0.89366  1.0000
  H   H3197     1.0  0.33142  0.63421  0.85731  1.0000
  N   N130      1.0  0.26150  0.60264  0.98020  1.0000
  H   H3198     1.0  0.36221  0.73691  0.91305  1.0000
  H   H3199     1.0  0.37851  0.68062  0.92893  1.0000
  C   C1878     1.0  0.33038  0.73084  0.91372  1.0000
  H   H3200     1.0  0.27206  0.58734  0.96496  1.0000
  H   H3201     1.0  0.12347  0.57676  0.75780  1.0000
  N   N131      1.0  0.11227  0.59923  0.84598  1.0000
  H   H3202     1.0  0.33441  0.73148  0.94536  1.0000
  N   N132      1.0  0.23414  0.53002  0.87109  1.0000
  C   C1879     1.0  0.24129  0.53768  0.86300  1.0000
  C   C1880     1.0  0.22224  0.53658  0.87352  1.0000
  C   C1881     1.0  0.23427  0.52038  0.86634  1.0000
  C   C1882     1.0  0.23872  0.52553  0.88149  1.0000
  C   C1883     1.0  0.25356  0.53216  0.85856  1.0000
  C   C1884     1.0  0.22007  0.54552  0.88036  1.0000
  C   C1885     1.0  0.23152  0.52348  0.85473  1.0000
  C   C1886     1.0  0.23226  0.51769  0.89089  1.0000
  H   H3203     1.0  0.23746  0.54225  0.85575  1.0000
  H   H3204     1.0  0.24180  0.54428  0.86687  1.0000
  H   H3205     1.0  0.21632  0.53096  0.87793  1.0000
  H   H3206     1.0  0.21944  0.54106  0.86565  1.0000
  H   H3207     1.0  0.24248  0.51435  0.86601  1.0000
  H   H3208     1.0  0.22806  0.51544  0.87183  1.0000
  H   H3209     1.0  0.24744  0.52073  0.87963  1.0000
  H   H3210     1.0  0.23922  0.53244  0.88494  1.0000
  H   H3211     1.0  0.25851  0.52963  0.86507  1.0000
  H   H3212     1.0  0.25435  0.52499  0.85490  1.0000
  H   H3213     1.0  0.25757  0.53834  0.85186  1.0000
  H   H3214     1.0  0.21135  0.55047  0.88062  1.0000
  H   H3215     1.0  0.22085  0.54177  0.88907  1.0000
  H   H3216     1.0  0.22565  0.55150  0.87662  1.0000
  H   H3217     1.0  0.22303  0.52882  0.85466  1.0000
  H   H3218     1.0  0.23167  0.51570  0.85231  1.0000
  H   H3219     1.0  0.23782  0.52758  0.84829  1.0000
  H   H3220     1.0  0.22344  0.52180  0.89377  1.0000
  C   C1887     1.0  0.25877  0.49439  0.87415  1.0000
  H   H3221     1.0  0.23251  0.50993  0.88841  1.0000
  N   N133      1.0  0.28732  0.66297  0.91962  1.0000
  C   C1888     1.0  0.29501  0.67114  0.91507  1.0000
  C   C1889     1.0  0.28473  0.66048  0.90984  1.0000
  C   C1890     1.0  0.29343  0.65245  0.92619  1.0000
  C   C1891     1.0  0.27694  0.66834  0.92694  1.0000
  C   C1892     1.0  0.30065  0.67314  0.92344  1.0000
  C   C1893     1.0  0.27920  0.67057  0.90189  1.0000
  C   C1894     1.0  0.28977  0.64151  0.92739  1.0000
  C   C1895     1.0  0.26748  0.66182  0.93200  1.0000
  H   H3222     1.0  0.30189  0.66842  0.90824  1.0000
  H   H3223     1.0  0.29047  0.67949  0.91130  1.0000
  H   H3224     1.0  0.27922  0.65442  0.91243  1.0000
  H   H3225     1.0  0.29256  0.65631  0.90481  1.0000
  H   H3226     1.0  0.30253  0.65076  0.92231  1.0000
  H   H3227     1.0  0.29292  0.65343  0.93470  1.0000
  H   H3228     1.0  0.27914  0.66986  0.93416  1.0000
  H   H3229     1.0  0.27327  0.67687  0.92269  1.0000
  H   H3230     1.0  0.29448  0.67655  0.93031  1.0000
  H   H3231     1.0  0.30647  0.66554  0.92682  1.0000
  H   H3232     1.0  0.30589  0.67940  0.91902  1.0000
  H   H3233     1.0  0.28069  0.64200  0.93063  1.0000
  H   H3234     1.0  0.29414  0.63477  0.93329  1.0000
  H   H3235     1.0  0.29230  0.63878  0.91937  1.0000
  H   H3236     1.0  0.26902  0.65575  0.93977  1.0000
  H   H3237     1.0  0.26606  0.65751  0.92628  1.0000
  H   H3238     1.0  0.25940  0.66779  0.93398  1.0000
  C   C1896     1.0  0.12216  0.60267  0.84749  1.0000
  H   H3239     1.0  0.04359  0.55695  0.78417  1.0000
  H   H3240     1.0  0.19809  0.56436  0.94028  1.0000
  C   C1897     1.0  0.00290  0.58136  0.78975  1.0000
  S   S562      1.0  0.10634  0.54291  0.75663  1.0000
  H   H3241     1.0  0.09116  0.59174  0.75640  1.0000
  C   C1898     1.0  0.15662  0.61669  0.75374  1.0000
  C   C1899     1.0  0.33580  0.73143  0.92291  1.0000
  C   C1900     1.0  0.10248  0.57514  0.75659  1.0000
  C   C1901     1.0  0.34672  0.73575  0.88292  1.0000
  H   H3242     1.0  0.23637  0.51514  0.89809  1.0000
  C   C1902     1.0  0.04720  0.54603  0.76737  1.0000
  Fe  Fe285     1.0  0.11417  0.52966  0.76945  1.0000
  C   C1903     1.0  0.21471  0.56420  0.90238  1.0000
  C   C1904     1.0  0.13951  0.60987  0.76159  1.0000
  H   H3243     1.0  0.15003  0.56372  0.75423  1.0000
  H   H3244     1.0  0.44100  0.71065  0.97610  1.0000
  H   H3245     1.0  0.00054  0.61076  0.76427  1.0000
  H   H3246     1.0  0.23067  0.63814  0.89807  1.0000
  H   H3247     1.0  0.19703  0.63757  0.92227  1.0000
  C   C1905     1.0  0.15810  0.56496  0.74851  1.0000
  H   H3248     1.0  0.25530  0.63183  0.97131  1.0000
  H   H3249     1.0  0.09045  0.60649  0.76648  1.0000
  C   C1906     1.0  0.34146  0.63149  0.89119  1.0000
  H   H3250     1.0  0.33462  0.62055  0.88637  1.0000
  H   H3251     1.0  0.32256  0.61772  0.87814  1.0000
  C   C1907     1.0  0.11566  0.58919  0.84076  1.0000
  C   C1908     1.0  0.33791  0.64572  0.86868  1.0000
  C   C1909     1.0  0.06211  0.63360  0.76270  1.0000
  N   N134      1.0  0.44734  0.71520  0.95841  1.0000
  C   C1910     1.0  0.44593  0.71353  0.94770  1.0000
  C   C1911     1.0  0.44339  0.72743  0.95853  1.0000
  C   C1912     1.0  0.44046  0.70875  0.96830  1.0000
  C   C1913     1.0  0.45949  0.71106  0.95909  1.0000
  H   H3252     1.0  0.37134  0.69073  0.94986  1.0000
  H   H3253     1.0  0.11739  0.49733  0.80369  1.0000
  C   C1914     1.0  0.42785  0.71094  0.96837  1.0000
  S   S563      1.0  0.11292  0.61538  0.73726  1.0000
  H   H3254     1.0  0.11571  0.51181  0.81271  1.0000
  H   H3255     1.0  0.14491  0.58533  0.76996  1.0000
  H   H3256     1.0  0.44198  0.72896  0.96699  1.0000
  C   C1915     1.0  0.35641  0.73861  0.90741  1.0000
  H   H3257     1.0  0.12275  0.55195  0.76175  1.0000
  C   C1916     1.0  0.12379  0.50974  0.80679  1.0000
  H   H3258     1.0  0.40951  0.73337  0.94978  1.0000
  C   C1917     1.0  0.25294  0.62385  0.97615  1.0000
  H   H3259     1.0  0.10733  0.56128  0.78267  1.0000
  H   H3260     1.0  0.12401  0.56658  0.77046  1.0000
  H   H3261     1.0  0.35202  0.73406  0.93048  1.0000
  H   H3262     1.0  0.05881  0.49788  0.75338  1.0000
  H   H3263     1.0  0.42107  0.73419  0.93073  1.0000
  H   H3264     1.0  0.06855  0.55003  0.73813  1.0000
  S   S564      1.0  0.43839  0.73139  0.87134  1.0000
  H   H3265     1.0  0.42639  0.70813  0.96152  1.0000
  C   C1918     1.0  0.06977  0.51003  0.74559  1.0000
  H   H3266     1.0  0.19902  0.62327  0.89325  1.0000
  C   C1919     1.0  0.11976  0.49249  0.73762  1.0000
  H   H3267     1.0  0.07501  0.65556  0.75451  1.0000
  C   C1920     1.0  0.39629  0.69690  0.94747  1.0000
  C   C1921     1.0  0.20123  0.60806  0.82333  1.0000
  H   H3268     1.0  0.20244  0.60830  0.83151  1.0000
  H   H3269     1.0  0.08101  0.61573  0.77459  1.0000
  C   C1922     1.0  0.02936  0.55432  0.77911  1.0000
  H   H3270     1.0  0.45116  0.73542  0.94171  1.0000
  H   H3271     1.0  0.46163  0.70580  0.97636  1.0000
  C   C1923     1.0  0.25982  0.49595  0.89234  1.0000
  C   C1924     1.0  0.35980  0.62970  0.86772  1.0000
  H   H3272     1.0  0.25384  0.57942  0.87566  1.0000
  H   H3273     1.0  0.01423  0.53583  0.76957  1.0000
  C   C1925     1.0  0.10852  0.58810  0.86640  1.0000
  N   N135      1.0  0.33796  0.63342  0.87160  1.0000
  H   H3274     1.0  0.36387  0.63384  0.85936  1.0000
  H   H3275     1.0  0.32960  0.65050  0.87227  1.0000
  H   H3276     1.0  0.03658  0.56644  0.75852  1.0000
  H   H3277     1.0  0.32094  0.63762  0.86898  1.0000
  H   H3278     1.0  0.36603  0.62201  0.87023  1.0000
  H   H3279     1.0  0.28316  0.61452  0.85899  1.0000
  H   H3280     1.0  0.33464  0.61368  0.86750  1.0000
  N   N136      1.0  0.03472  0.55009  0.76855  1.0000
  C   C1926     1.0  0.01710  0.54356  0.76878  1.0000
  H   H3281     1.0  0.05918  0.53746  0.77795  1.0000
  H   H3282     1.0  0.02340  0.56340  0.75992  1.0000
  C   C1927     1.0  0.32691  0.62006  0.86937  1.0000
  C   C1928     1.0  0.34911  0.62640  0.86716  1.0000
  H   H3283     1.0  0.02070  0.55928  0.77886  1.0000
  C   C1929     1.0  0.32914  0.63192  0.86652  1.0000
  C   C1930     1.0  0.33444  0.62965  0.88402  1.0000
  H   H3284     1.0  0.05142  0.55299  0.76617  1.0000
  C   C1931     1.0  0.03250  0.55960  0.75889  1.0000
  C   C1932     1.0  0.02974  0.54056  0.76879  1.0000
  C   C1933     1.0  0.03641  0.55676  0.74729  1.0000
  H   H3285     1.0  0.24520  0.59332  0.87490  1.0000
  H   H3286     1.0  0.05100  0.54276  0.75967  1.0000
  H   H3287     1.0  0.15160  0.51366  0.77097  1.0000
  H   H3288     1.0  0.38373  0.73483  0.89486  1.0000
  C   C1934     1.0  0.26315  0.59254  0.87331  1.0000
  S   S565      1.0  0.11443  0.53377  0.78555  1.0000
  H   H3289     1.0  0.04525  0.53653  0.78494  1.0000
  C   C1935     1.0  0.13068  0.60605  0.83675  1.0000
  H   H3290     1.0  0.45835  0.69797  0.94531  1.0000
  H   H3291     1.0  0.39781  0.70105  0.95334  1.0000
  C   C1936     1.0  0.25007  0.59775  0.85264  1.0000
  N   N137      1.0  0.10742  0.57281  0.76668  1.0000
  H   H3292     1.0  0.26977  0.58695  0.87768  1.0000
  H   H3293     1.0  0.11592  0.51005  0.79371  1.0000
  H   H3294     1.0  0.01525  0.54922  0.76094  1.0000
  H   H3295     1.0  0.16374  0.61912  0.75480  1.0000
  C   C1937     1.0  0.21163  0.57267  0.93528  1.0000
  H   H3296     1.0  0.20720  0.57778  0.91069  1.0000
  C   C1938     1.0  0.12455  0.56002  0.75665  1.0000
  H   H3297     1.0  0.26320  0.60692  0.84652  1.0000
  C   C1939     1.0  0.39228  0.73022  0.86737  1.0000
  H   H3298     1.0  0.25151  0.59784  0.84368  1.0000
  H   H3299     1.0  0.19043  0.57051  0.91689  1.0000
  H   H3300     1.0  0.21858  0.55519  0.90396  1.0000
  C   C1940     1.0  0.26317  0.61421  0.97425  1.0000
  H   H3301     1.0  0.13320  0.57998  0.83843  1.0000
  N   N138      1.0  0.26765  0.59471  0.86093  1.0000
  H   H3302     1.0  0.19600  0.57695  0.93024  1.0000
  H   H3303     1.0  0.20715  0.56576  0.89894  1.0000
  H   H3304     1.0  0.39747  0.68140  0.95901  1.0000
  S   S566      1.0  0.05907  0.58495  0.75056  1.0000
  C   C1941     1.0  0.12852  0.49488  0.78281  1.0000
  H   H3305     1.0  0.27442  0.60937  0.87168  1.0000
  C   C1942     1.0  0.19486  0.56208  0.92067  1.0000
  C   C1943     1.0  0.21197  0.56909  0.91282  1.0000
  H   H3306     1.0  0.14147  0.58021  0.74234  1.0000
  C   C1944     1.0  0.20228  0.56918  0.93235  1.0000
  H   H3307     1.0  0.28544  0.58667  0.84253  1.0000
  H   H3308     1.0  0.19664  0.55692  0.91441  1.0000
  H   H3309     1.0  0.22000  0.56997  0.91390  1.0000
  H   H3310     1.0  0.10190  0.58821  0.87412  1.0000
  H   H3311     1.0  0.20299  0.62148  0.91153  1.0000
  H   H3312     1.0  0.21739  0.56543  0.93925  1.0000
  S   S567      1.0  0.05067  0.62921  0.77257  1.0000
  H   H3313     1.0  0.22745  0.54274  0.93276  1.0000
  C   C1945     1.0  0.27768  0.59991  0.85855  1.0000
  H   H3314     1.0  0.26534  0.57887  0.85946  1.0000
  N   N139      1.0  0.20558  0.56275  0.92324  1.0000
  C   C1946     1.0  0.18627  0.55718  0.93059  1.0000
  H   H3315     1.0  0.22081  0.56849  0.89581  1.0000
  H   H3316     1.0  0.21623  0.57791  0.92810  1.0000
  C   C1947     1.0  0.27191  0.58373  0.85730  1.0000
  C   C1948     1.0  0.10636  0.60897  0.83837  1.0000
  H   H3317     1.0  0.17946  0.55592  0.92744  1.0000
  C   C1949     1.0  0.12195  0.50393  0.79851  1.0000
  C   C1950     1.0  0.41526  0.73897  0.94651  1.0000
  H   H3318     1.0  0.10752  0.59026  0.78367  1.0000
  H   H3319     1.0  0.12702  0.59605  0.85301  1.0000
  H   H3320     1.0  0.10511  0.61690  0.84107  1.0000
  H   H3321     1.0  0.28459  0.59391  0.86225  1.0000
  H   H3322     1.0  0.05248  0.52827  0.77473  1.0000
  H   H3323     1.0  0.05166  0.51192  0.74889  1.0000
  H   H3324     1.0  0.28119  0.60196  0.84947  1.0000
  H   H3325     1.0  0.27843  0.57824  0.86186  1.0000
  H   H3326     1.0  0.20773  0.57793  0.94154  1.0000
  H   H3327     1.0  0.40730  0.72708  0.85424  1.0000
  H   H3328     1.0  0.10624  0.55553  0.77229  1.0000
  H   H3329     1.0  0.40449  0.69441  0.94195  1.0000
  H   H3330     1.0  0.08820  0.60987  0.84471  1.0000
  H   H3331     1.0  0.05835  0.64936  0.76747  1.0000
  H   H3332     1.0  0.26567  0.61483  0.96514  1.0000
  H   H3333     1.0  0.38864  0.65497  0.96708  1.0000
  C   C1951     1.0  0.27710  0.58449  0.84481  1.0000
  H   H3334     1.0  0.13379  0.55873  0.75401  1.0000
  H   H3335     1.0  0.44445  0.69583  0.95292  1.0000
  C   C1952     1.0  0.08089  0.64070  0.74790  1.0000
  Fe  Fe286     1.0  0.11854  0.51169  0.75603  1.0000
  H   H3336     1.0  0.22748  0.55685  0.92617  1.0000
  H   H3337     1.0  0.27157  0.59044  0.83948  1.0000
  H   H3338     1.0  0.21686  0.65441  0.89784  1.0000
  N   N140      1.0  0.13236  0.49911  0.79076  1.0000
  C   C1953     1.0  0.06445  0.56549  0.74359  1.0000
  C   C1954     1.0  0.21200  0.55105  0.92696  1.0000
  H   H3339     1.0  0.13099  0.60843  0.74971  1.0000
  H   H3340     1.0  0.10809  0.57907  0.74912  1.0000
  H   H3341     1.0  0.08821  0.58339  0.74894  1.0000
  H   H3342     1.0  0.08916  0.49338  0.77354  1.0000
  H   H3343     1.0  0.21115  0.54547  0.92203  1.0000
  S   S568      1.0  0.11161  0.52374  0.74192  1.0000
  C   C1955     1.0  0.22475  0.54948  0.92585  1.0000
  H   H3344     1.0  0.33568  0.73279  0.90533  1.0000
  C   C1956     1.0  0.10478  0.58323  0.77114  1.0000
  H   H3345     1.0  0.12727  0.61416  0.83164  1.0000
  C   C1957     1.0  0.06943  0.62681  0.75565  1.0000
  H   H3346     1.0  0.09571  0.58565  0.77479  1.0000
  H   H3347     1.0  0.20837  0.54757  0.93576  1.0000
  H   H3348     1.0  0.16166  0.62003  0.73592  1.0000
  C   C1958     1.0  0.09088  0.49446  0.76438  1.0000
  H   H3349     1.0  0.11923  0.60984  0.85171  1.0000
  H   H3350     1.0  0.24127  0.60826  0.91104  1.0000
  H   H3351     1.0  0.20317  0.64895  0.91310  1.0000
  H   H3352     1.0  0.18221  0.56304  0.93625  1.0000
  H   H3353     1.0  0.22621  0.63329  0.88889  1.0000
  H   H3354     1.0  0.43504  0.73063  0.95637  1.0000
  H   H3355     1.0  0.10086  0.60510  0.86014  1.0000
  H   H3356     1.0  0.21285  0.61534  0.89348  1.0000
  H   H3357     1.0  0.21509  0.62577  0.92401  1.0000
  H   H3358     1.0  0.20474  0.64432  0.92714  1.0000
  H   H3359     1.0  0.09673  0.59476  0.85609  1.0000
  C   C1959     1.0  0.20442  0.64147  0.91979  1.0000
  H   H3360     1.0  0.22241  0.63656  0.91681  1.0000
  H   H3361     1.0  0.10830  0.58551  0.84192  1.0000
  H   H3362     1.0  0.12630  0.51780  0.80259  1.0000
  C   C1960     1.0  0.21536  0.63295  0.91676  1.0000
  H   H3363     1.0  0.15720  0.59052  0.75284  1.0000
  H   H3364     1.0  0.24167  0.62238  0.90434  1.0000
  H   H3365     1.0  0.09216  0.60549  0.78018  1.0000
  C   C1961     1.0  0.10415  0.59724  0.85699  1.0000
  H   H3366     1.0  0.09229  0.61463  0.83008  1.0000
  H   H3367     1.0  0.11007  0.57969  0.86467  1.0000
  H   H3368     1.0  0.47486  0.73056  0.89807  1.0000
  H   H3369     1.0  0.24863  0.58501  0.97405  1.0000
  C   C1962     1.0  0.00281  0.57791  0.77203  1.0000
  C   C1963     1.0  0.10344  0.56331  0.77543  1.0000
  C   C1964     1.0  0.23636  0.61696  0.91053  1.0000
  H   H3370     1.0  0.22105  0.61141  0.91342  1.0000
  H   H3371     1.0  0.11156  0.61017  0.82976  1.0000
  H   H3372     1.0  0.03393  0.56441  0.74107  1.0000
  N   N141      1.0  0.21741  0.62909  0.90608  1.0000
  C   C1965     1.0  0.22529  0.61778  0.90718  1.0000
  H   H3373     1.0  0.23490  0.61880  0.91884  1.0000
  H   H3374     1.0  0.38975  0.66727  0.97036  1.0000
  H   H3375     1.0  0.22777  0.61487  0.89928  1.0000
  C   C1966     1.0  0.14923  0.58355  0.73858  1.0000
  C   C1967     1.0  0.20663  0.62759  0.90437  1.0000
  H   H3376     1.0  0.20004  0.63534  0.90424  1.0000
  C   C1968     1.0  0.22298  0.63692  0.89639  1.0000
  H   H3377     1.0  0.20711  0.64906  0.89371  1.0000
  H   H3378     1.0  0.48035  0.73280  0.88347  1.0000
  H   H3379     1.0  0.27925  0.59788  0.98021  1.0000
  C   C1969     1.0  0.07882  0.63037  0.74821  1.0000
  C   C1970     1.0  0.27723  0.59213  0.96677  1.0000
  H   H3380     1.0  0.44724  0.70115  0.93834  1.0000
  C   C1971     1.0  0.14875  0.50580  0.77539  1.0000
  C   C1972     1.0  0.13822  0.50851  0.78440  1.0000
  H   H3381     1.0  0.46513  0.71448  0.95138  1.0000
  H   H3382     1.0  0.28583  0.58687  0.96628  1.0000
  N   N142      1.0  0.15841  0.57717  0.74476  1.0000
  C   C1973     1.0  0.37273  0.68274  0.93663  1.0000
  C   C1974     1.0  0.39140  0.66300  0.96342  1.0000
  C   C1975     1.0  0.05877  0.50672  0.75274  1.0000
  H   H3383     1.0  0.15577  0.50018  0.77907  1.0000
  H   H3384     1.0  0.14407  0.57275  0.76729  1.0000
  H   H3385     1.0  0.49030  0.72525  0.91015  1.0000
  H   H3386     1.0  0.40701  0.72511  0.88192  1.0000
  H   H3387     1.0  0.13558  0.49124  0.77669  1.0000
  C   C1976     1.0  0.15937  0.55867  0.73940  1.0000
  H   H3388     1.0  0.43718  0.71708  0.94652  1.0000
  H   H3389     1.0  0.32935  0.72218  0.91500  1.0000
  H   H3390     1.0  0.06251  0.60936  0.73812  1.0000
  H   H3391     1.0  0.13230  0.51556  0.78033  1.0000
  H   H3392     1.0  0.34381  0.73752  0.94878  1.0000
  H   H3393     1.0  0.48919  0.72421  0.89260  1.0000
  H   H3394     1.0  0.07466  0.61467  0.73619  1.0000
  H   H3395     1.0  0.35506  0.73069  0.90665  1.0000
  H   H3396     1.0  0.38651  0.73812  0.86909  1.0000
  H   H3397     1.0  0.47167  0.71355  0.96682  1.0000
  H   H3398     1.0  0.45961  0.73288  0.95192  1.0000
  C   C1977     1.0  0.25064  0.58802  0.98049  1.0000
  H   H3399     1.0  0.09820  0.50151  0.74325  1.0000
  H   H3400     1.0  0.00214  0.61539  0.78119  1.0000
  H   H3401     1.0  0.24487  0.60561  0.97712  1.0000
  C   C1978     1.0  0.17209  0.59028  0.73443  1.0000
  C   C1979     1.0  0.25315  0.59980  0.97558  1.0000
  C   C1980     1.0  0.48248  0.73184  0.89158  1.0000
  H   H3402     1.0  0.08460  0.62502  0.74295  1.0000
  H   H3403     1.0  0.45801  0.72072  0.97175  1.0000
  H   H3404     1.0  0.12997  0.50436  0.81172  1.0000
  H   H3405     1.0  0.25787  0.49322  0.90127  1.0000
  H   H3406     1.0  0.29814  0.49170  0.87812  1.0000
  H   H3407     1.0  0.39711  0.73666  0.89490  1.0000
  C   C1981     1.0  0.49496  0.73205  0.90778  1.0000
  H   H3408     1.0  0.06932  0.51136  0.73682  1.0000
  H   H3409     1.0  0.00031  0.60153  0.75231  1.0000
  H   H3410     1.0  0.06028  0.57020  0.73691  1.0000
  C   C1982     1.0  0.08026  0.50141  0.76015  1.0000
  H   H3411     1.0  0.40173  0.73899  0.92145  1.0000
  S   S569      1.0  0.09317  0.64485  0.73967  1.0000
  S   S570      1.0  0.38364  0.72945  0.97926  1.0000
  H   H3412     1.0  0.49636  0.73259  0.91580  1.0000
  H   H3413     1.0  0.09796  0.49880  0.76101  1.0000
  H   H3414     1.0  0.12251  0.50028  0.73436  1.0000
  C   C1983     1.0  0.25635  0.49089  0.88571  1.0000
  H   H3415     1.0  0.47262  0.73845  0.91215  1.0000
  H   H3416     1.0  0.29456  0.49323  0.86525  1.0000
  H   H3417     1.0  0.10676  0.55515  0.73353  1.0000
  C   C1984     1.0  0.07154  0.60833  0.73412  1.0000
  H   H3418     1.0  0.49750  0.70001  0.92866  1.0000
  C   C1985     1.0  0.13974  0.49007  0.79757  1.0000
  H   H3419     1.0  0.11251  0.49005  0.79170  1.0000
  H   H3420     1.0  0.16730  0.55898  0.73312  1.0000
  H   H3421     1.0  0.37111  0.74853  0.08667  1.0000
  H   H3422     1.0  0.44614  0.87152  0.21529  1.0000
  H   H3423     1.0  0.42670  0.77078  0.09867  1.0000
  S   S571      1.0  0.39821  0.91400  0.20674  1.0000
  H   H3424     1.0  0.49767  0.75985  0.08537  1.0000
  H   H3425     1.0  0.40937  0.86715  0.22793  1.0000
  C   C1986     1.0  0.49250  0.74234  0.11945  1.0000
  Fe  Fe287     1.0  0.38503  0.85783  0.21010  1.0000
  C   C1987     1.0  0.38058  0.75101  0.10171  1.0000
  S   S572      1.0  0.37445  0.87529  0.20904  1.0000
  Fe  Fe288     1.0  0.39217  0.83670  0.20029  1.0000
  S   S573      1.0  0.40211  0.82744  0.21351  1.0000
  S   S574      1.0  0.39239  0.83017  0.18499  1.0000
  C   C1988     1.0  0.34979  0.74761  0.13772  1.0000
  Fe  Fe289     1.0  0.40808  0.84323  0.21115  1.0000
  S   S575      1.0  0.42586  0.84527  0.20895  1.0000
  S   S576      1.0  0.37698  0.84342  0.21245  1.0000
  S   S577      1.0  0.39947  0.85194  0.19698  1.0000
  Fe  Fe290     1.0  0.38874  0.77044  0.15277  1.0000
  S   S578      1.0  0.38885  0.78858  0.14665  1.0000
  S   S579      1.0  0.40381  0.75878  0.15837  1.0000
  Fe  Fe291     1.0  0.36558  0.77260  0.14870  1.0000
  S   S580      1.0  0.36364  0.79132  0.14292  1.0000
  S   S581      1.0  0.35314  0.76468  0.14501  1.0000
  Fe  Fe292     1.0  0.38129  0.78725  0.13315  1.0000
  S   S582      1.0  0.38765  0.79365  0.11478  1.0000
  Fe  Fe293     1.0  0.37143  0.79097  0.15707  1.0000
  S   S583      1.0  0.36585  0.80241  0.16965  1.0000
  S   S584      1.0  0.38289  0.76885  0.13840  1.0000
  S   S585      1.0  0.37161  0.77257  0.16379  1.0000
  H   H3426     1.0  0.36487  0.96721  0.21473  1.0000
  C   C1989     1.0  0.37653  0.86261  0.18406  1.0000
  S   S586      1.0  0.37312  0.76142  0.05797  1.0000
  Fe  Fe294     1.0  0.40462  0.76035  0.05303  1.0000
  S   S587      1.0  0.39208  0.77650  0.04984  1.0000
  S   S588      1.0  0.42309  0.75938  0.04988  1.0000
  Fe  Fe295     1.0  0.38179  0.76917  0.06619  1.0000
  S   S589      1.0  0.37128  0.77687  0.08079  1.0000
  Fe  Fe296     1.0  0.38472  0.76703  0.04197  1.0000
  S   S590      1.0  0.37860  0.77348  0.02582  1.0000
  H   H3427     1.0  0.39468  0.98884  0.21041  1.0000
  C   C1990     1.0  0.35997  0.84685  0.19378  1.0000
  S   S591      1.0  0.43793  0.75316  0.11365  1.0000
  C   C1991     1.0  0.37504  0.76442  0.01963  1.0000
  H   H3428     1.0  0.36503  0.88364  0.17695  1.0000
  H   H3429     1.0  0.44105  0.75789  0.09076  1.0000
  H   H3430     1.0  0.41654  0.75705  0.09722  1.0000
  N   N143      1.0  0.36439  0.86615  0.18324  1.0000
  C   C1992     1.0  0.43529  0.91185  0.23040  1.0000
  H   H3431     1.0  0.40750  0.74214  0.12327  1.0000
  H   H3432     1.0  0.41734  0.74828  0.07305  1.0000
  H   H3433     1.0  0.41033  0.74066  0.99220  1.0000
  H   H3434     1.0  0.41817  0.90041  0.21826  1.0000
  C   C1993     1.0  0.36868  0.76897  0.01142  1.0000
  H   H3435     1.0  0.45449  0.84827  0.22662  1.0000
  H   H3436     1.0  0.36756  0.85476  0.16006  1.0000
  H   H3437     1.0  0.35368  0.82435  0.08476  1.0000
  H   H3438     1.0  0.44305  0.77935  0.06906  1.0000
  C   C1994     1.0  0.41441  0.75828  0.14637  1.0000
  C   C1995     1.0  0.41270  0.76580  0.13647  1.0000
  C   C1996     1.0  0.42033  0.76455  0.12650  1.0000
  C   C1997     1.0  0.42959  0.75565  0.12638  1.0000
  H   H3439     1.0  0.39642  0.75730  0.98328  1.0000
  H   H3440     1.0  0.35707  0.74433  0.16218  1.0000
  H   H3441     1.0  0.40535  0.77243  0.13636  1.0000
  H   H3442     1.0  0.41875  0.77022  0.11884  1.0000
  C   C1998     1.0  0.39153  0.97479  0.22375  1.0000
  C   C1999     1.0  0.49114  0.75224  0.12479  1.0000
  C   C2000     1.0  0.38414  0.78762  0.10565  1.0000
  C   C2001     1.0  0.38977  0.78903  0.09445  1.0000
  C   C2002     1.0  0.38631  0.78522  0.08682  1.0000
  C   C2003     1.0  0.37682  0.78054  0.09024  1.0000
  C   C2004     1.0  0.37108  0.77941  0.10138  1.0000
  C   C2005     1.0  0.37505  0.78238  0.10916  1.0000
  H   H3443     1.0  0.39670  0.79322  0.09166  1.0000
  H   H3444     1.0  0.39060  0.78642  0.07820  1.0000
  H   H3445     1.0  0.36350  0.77620  0.10407  1.0000
  H   H3446     1.0  0.37066  0.78116  0.11776  1.0000
  C   C2006     1.0  0.42867  0.97288  0.22609  1.0000
  H   H3447     1.0  0.37922  0.85668  0.16400  1.0000
  H   H3448     1.0  0.41168  0.75232  0.00567  1.0000
  H   H3449     1.0  0.35654  0.84501  0.18754  1.0000
  H   H3450     1.0  0.37542  0.74616  0.16736  1.0000
  C   C2007     1.0  0.38465  0.82265  0.18091  1.0000
  C   C2008     1.0  0.37491  0.81936  0.18772  1.0000
  C   C2009     1.0  0.36922  0.81333  0.18408  1.0000
  C   C2010     1.0  0.37327  0.81028  0.17369  1.0000
  C   C2011     1.0  0.38299  0.81360  0.16687  1.0000
  C   C2012     1.0  0.38856  0.81980  0.17042  1.0000
  H   H3451     1.0  0.37177  0.82140  0.19582  1.0000
  H   H3452     1.0  0.36169  0.81088  0.18944  1.0000
  H   H3453     1.0  0.38617  0.81148  0.15881  1.0000
  H   H3454     1.0  0.39604  0.82232  0.16503  1.0000
  C   C2013     1.0  0.41287  0.76854  0.00629  1.0000
  C   C2014     1.0  0.35035  0.74706  0.03912  1.0000
  C   C2015     1.0  0.42469  0.84290  0.23125  1.0000
  C   C2016     1.0  0.43104  0.84516  0.22048  1.0000
  C   C2017     1.0  0.40653  0.76088  0.00412  1.0000
  C   C2018     1.0  0.40153  0.74360  0.99620  1.0000
  H   H3455     1.0  0.36245  0.87945  0.19164  1.0000
  C   C2019     1.0  0.43753  0.77981  0.07739  1.0000
  H   H3456     1.0  0.38552  0.74794  0.11765  1.0000
  C   C2020     1.0  0.35658  0.75394  0.09889  1.0000
  C   C2021     1.0  0.39156  0.90309  0.20793  1.0000
  C   C2022     1.0  0.38046  0.90325  0.21368  1.0000
  C   C2023     1.0  0.37528  0.89464  0.21406  1.0000
  C   C2024     1.0  0.38129  0.88563  0.20906  1.0000
  C   C2025     1.0  0.39251  0.88530  0.20363  1.0000
  C   C2026     1.0  0.39754  0.89411  0.20287  1.0000
  H   H3457     1.0  0.37576  0.91014  0.21757  1.0000
  C   C2027     1.0  0.47097  0.75009  0.11175  1.0000
  H   H3458     1.0  0.39719  0.87845  0.19966  1.0000
  H   H3459     1.0  0.40605  0.89403  0.19826  1.0000
  H   H3460     1.0  0.34566  0.74127  0.08226  1.0000
  H   H3461     1.0  0.38832  0.75794  0.99675  1.0000
  C   C2028     1.0  0.39709  0.75614  0.99201  1.0000
  H   H3462     1.0  0.43256  0.75318  0.08502  1.0000
  H   H3463     1.0  0.34528  0.83037  0.10042  1.0000
  C   C2029     1.0  0.41897  0.95245  0.22981  1.0000
  H   H3464     1.0  0.34443  0.98814  0.22834  1.0000
  S   S592      1.0  0.37592  0.94067  0.21792  1.0000
  S   S593      1.0  0.39821  0.75160  0.04385  1.0000
  H   H3465     1.0  0.44675  0.84895  0.21051  1.0000
  H   H3466     1.0  0.44062  0.95791  0.22333  1.0000
  C   C2030     1.0  0.42351  0.75505  0.98328  1.0000
  H   H3467     1.0  0.42293  0.97333  0.22074  1.0000
  Fe  Fe297     1.0  0.39048  0.92589  0.21838  1.0000
  C   C2031     1.0  0.42443  0.87921  0.21337  1.0000
  H   H3468     1.0  0.45298  0.87796  0.22150  1.0000
  Fe  Fe298     1.0  0.38708  0.74651  0.06028  1.0000
  H   H3469     1.0  0.43209  0.78833  0.07629  1.0000
  H   H3470     1.0  0.44521  0.75709  0.06605  1.0000
  H   H3471     1.0  0.44481  0.74541  0.04497  1.0000
  C   C2032     1.0  0.36130  0.81822  0.08678  1.0000
  C   C2033     1.0  0.44175  0.84726  0.21884  1.0000
  S   S594      1.0  0.39485  0.75363  0.06972  1.0000
  C   C2034     1.0  0.42406  0.95039  0.21797  1.0000
  C   C2035     1.0  0.38760  0.73968  0.15382  1.0000
  H   H3472     1.0  0.43165  0.95372  0.21374  1.0000
  H   H3473     1.0  0.38384  0.74925  0.02859  1.0000
  H   H3474     1.0  0.49034  0.74910  0.13389  1.0000
  H   H3475     1.0  0.42587  0.94138  0.21798  1.0000
  H   H3476     1.0  0.41532  0.76485  0.01443  1.0000
  S   S595      1.0  0.38831  0.96760  0.21536  1.0000
  H   H3477     1.0  0.34130  0.75007  0.03892  1.0000
  Fe  Fe299     1.0  0.38725  0.83523  0.22537  1.0000
  N   N144      1.0  0.35509  0.81497  0.10822  1.0000
  C   C2036     1.0  0.35866  0.81004  0.09801  1.0000
  C   C2037     1.0  0.35394  0.80554  0.11825  1.0000
  C   C2038     1.0  0.36419  0.82060  0.10823  1.0000
  C   C2039     1.0  0.34413  0.82324  0.10757  1.0000
  H   H3478     1.0  0.36287  0.82933  0.10330  1.0000
  C   C2040     1.0  0.34575  0.79825  0.11896  1.0000
  C   C2041     1.0  0.36595  0.82092  0.11961  1.0000
  C   C2042     1.0  0.33832  0.82843  0.11775  1.0000
  H   H3479     1.0  0.36629  0.80331  0.09852  1.0000
  H   H3480     1.0  0.35213  0.80610  0.09731  1.0000
  H   H3481     1.0  0.35124  0.80859  0.12608  1.0000
  H   H3482     1.0  0.36226  0.79990  0.11869  1.0000
  H   H3483     1.0  0.37257  0.81631  0.10408  1.0000
  C   C2043     1.0  0.41343  0.76508  0.98339  1.0000
  H   H3484     1.0  0.36788  0.82262  0.08638  1.0000
  H   H3485     1.0  0.33801  0.81936  0.10599  1.0000
  C   C2044     1.0  0.42916  0.88683  0.20248  1.0000
  H   H3486     1.0  0.35109  0.97599  0.21472  1.0000
  H   H3487     1.0  0.41788  0.95481  0.21266  1.0000
  H   H3488     1.0  0.33717  0.80320  0.11855  1.0000
  H   H3489     1.0  0.34883  0.79315  0.11255  1.0000
  H   H3490     1.0  0.34514  0.79222  0.12710  1.0000
  H   H3491     1.0  0.37000  0.81254  0.12379  1.0000
  H   H3492     1.0  0.35816  0.82401  0.12532  1.0000
  H   H3493     1.0  0.37179  0.82648  0.11831  1.0000
  H   H3494     1.0  0.33617  0.82211  0.12538  1.0000
  H   H3495     1.0  0.33027  0.83411  0.11623  1.0000
  H   H3496     1.0  0.34337  0.83359  0.11908  1.0000
  H   H3497     1.0  0.43816  0.88656  0.20156  1.0000
  C   C2045     1.0  0.39442  0.98522  0.21912  1.0000
  C   C2046     1.0  0.35574  0.96742  0.21757  1.0000
  H   H3498     1.0  0.35387  0.86409  0.17345  1.0000
  H   H3499     1.0  0.34850  0.86237  0.19325  1.0000
  H   H3500     1.0  0.36579  0.77791  0.00917  1.0000
  C   C2047     1.0  0.36713  0.74513  0.09541  1.0000
  H   H3501     1.0  0.36896  0.84284  0.19299  1.0000
  H   H3502     1.0  0.34487  0.88149  0.17806  1.0000
  C   C2048     1.0  0.36586  0.76203  0.00620  1.0000
  H   H3503     1.0  0.36071  0.76563  0.00008  1.0000
  H   H3504     1.0  0.35876  0.86072  0.20097  1.0000
  H   H3505     1.0  0.34651  0.89253  0.18321  1.0000
  H   H3506     1.0  0.35559  0.84283  0.20205  1.0000
  C   C2049     1.0  0.37055  0.85529  0.16724  1.0000
  H   H3507     1.0  0.34275  0.88052  0.19288  1.0000
  H   H3508     1.0  0.42067  0.76935  0.99992  1.0000
  H   H3509     1.0  0.37091  0.84705  0.17299  1.0000
  H   H3510     1.0  0.35161  0.75095  0.10724  1.0000
  C   C2050     1.0  0.38436  0.86993  0.17572  1.0000
  H   H3511     1.0  0.39319  0.86521  0.17500  1.0000
  H   H3512     1.0  0.37729  0.86266  0.19248  1.0000
  H   H3513     1.0  0.38017  0.85389  0.18314  1.0000
  H   H3514     1.0  0.39234  0.75719  0.10664  1.0000
  H   H3515     1.0  0.41237  0.96020  0.22912  1.0000
  H   H3516     1.0  0.39885  0.76058  0.01085  1.0000
  H   H3517     1.0  0.40043  0.74139  0.00536  1.0000
  C   C2051     1.0  0.41665  0.78345  0.06877  1.0000
  C   C2052     1.0  0.42228  0.77294  0.09174  1.0000
  C   C2053     1.0  0.43768  0.75952  0.08321  1.0000
  H   H3518     1.0  0.33296  0.97735  0.22481  1.0000
  C   C2054     1.0  0.44489  0.77942  0.08536  1.0000
  C   C2055     1.0  0.35501  0.74219  0.15548  1.0000
  H   H3519     1.0  0.47032  0.74181  0.11109  1.0000
  H   H3520     1.0  0.44984  0.78601  0.08165  1.0000
  H   H3521     1.0  0.33869  0.74006  0.02810  1.0000
  H   H3522     1.0  0.38438  0.75423  0.09289  1.0000
  H   H3523     1.0  0.37389  0.75791  0.10440  1.0000
  H   H3524     1.0  0.40992  0.78207  0.06557  1.0000
  H   H3525     1.0  0.40736  0.76845  0.08981  1.0000
  H   H3526     1.0  0.40777  0.76804  0.10371  1.0000
  H   H3527     1.0  0.39681  0.74269  0.10683  1.0000
  C   C2056     1.0  0.44522  0.87496  0.22262  1.0000
  H   H3528     1.0  0.36478  0.74473  0.11805  1.0000
  C   C2057     1.0  0.41302  0.76615  0.09569  1.0000
  H   H3529     1.0  0.34785  0.75400  0.13058  1.0000
  N   N145      1.0  0.37563  0.74122  0.10272  1.0000
  H   H3530     1.0  0.34872  0.75411  0.05368  1.0000
  H   H3531     1.0  0.35851  0.76201  0.09845  1.0000
  C   C2058     1.0  0.38932  0.74933  0.10866  1.0000
  H   H3532     1.0  0.43702  0.89218  0.21758  1.0000
  H   H3533     1.0  0.45402  0.76176  0.07206  1.0000
  N   N146      1.0  0.43052  0.77112  0.08108  1.0000
  H   H3534     1.0  0.41876  0.78988  0.15379  1.0000
  H   H3535     1.0  0.41228  0.78750  0.07582  1.0000
  C   C2059     1.0  0.43503  0.88472  0.22401  1.0000
  C   C2060     1.0  0.44777  0.75657  0.07379  1.0000
  H   H3536     1.0  0.46383  0.75625  0.10866  1.0000
  C   C2061     1.0  0.37600  0.74590  0.01714  1.0000
  H   H3537     1.0  0.41994  0.76543  0.07388  1.0000
  C   C2062     1.0  0.35762  0.85948  0.19308  1.0000
  C   C2063     1.0  0.43452  0.96077  0.23053  1.0000
  H   H3538     1.0  0.36373  0.74402  0.06968  1.0000
  C   C2064     1.0  0.34790  0.88332  0.18456  1.0000
  Fe  Fe300     1.0  0.38664  0.94962  0.22240  1.0000
  H   H3539     1.0  0.43077  0.77085  0.06419  1.0000
  C   C2065     1.0  0.37879  0.75285  0.02240  1.0000
  C   C2066     1.0  0.42461  0.77215  0.07201  1.0000
  S   S596      1.0  0.40168  0.93567  0.22072  1.0000
  H   H3540     1.0  0.42126  0.78928  0.06220  1.0000
  H   H3541     1.0  0.43976  0.78116  0.09346  1.0000
  S   S597      1.0  0.39403  0.85014  0.22404  1.0000
  H   H3542     1.0  0.36456  0.81339  0.08012  1.0000
  C   C2067     1.0  0.43164  0.74841  0.13633  1.0000
  H   H3543     1.0  0.36659  0.89496  0.21825  1.0000
  N   N147      1.0  0.49267  0.74514  0.10722  1.0000
  H   H3544     1.0  0.35103  0.75568  0.09296  1.0000
  H   H3545     1.0  0.42846  0.88383  0.19537  1.0000
  H   H3546     1.0  0.41814  0.78188  0.09132  1.0000
  C   C2068     1.0  0.36261  0.86499  0.17244  1.0000
  H   H3547     1.0  0.45097  0.77136  0.08678  1.0000
  H   H3548     1.0  0.40022  0.78207  0.99168  1.0000
  N   N148      1.0  0.40344  0.76417  0.99293  1.0000
  N   N149      1.0  0.42392  0.88263  0.22390  1.0000
  H   H3549     1.0  0.48199  0.76174  0.10575  1.0000
  H   H3550     1.0  0.34496  0.95991  0.23218  1.0000
  H   H3551     1.0  0.38127  0.74258  0.14853  1.0000
  C   C2069     1.0  0.40594  0.74123  0.13239  1.0000
  H   H3552     1.0  0.44219  0.93704  0.22402  1.0000
  H   H3553     1.0  0.41592  0.87897  0.21275  1.0000
  H   H3554     1.0  0.41317  0.76409  0.17403  1.0000
  H   H3555     1.0  0.35039  0.76365  0.04056  1.0000
  H   H3556     1.0  0.40729  0.75772  0.18808  1.0000
  H   H3557     1.0  0.42935  0.87054  0.21335  1.0000
  H   H3558     1.0  0.40099  0.74931  0.13433  1.0000
  C   C2070     1.0  0.42569  0.74431  0.06945  1.0000
  C   C2071     1.0  0.35265  0.96324  0.23027  1.0000
  C   C2072     1.0  0.36944  0.75045  0.00910  1.0000
  H   H3559     1.0  0.43872  0.91292  0.22157  1.0000
  H   H3560     1.0  0.43513  0.97761  0.22092  1.0000
  H   H3561     1.0  0.46972  0.75024  0.12062  1.0000
  C   C2073     1.0  0.44116  0.74266  0.05365  1.0000
  C   C2074     1.0  0.35307  0.75045  0.14605  1.0000
  C   C2075     1.0  0.43033  0.74791  0.05820  1.0000
  S   S598      1.0  0.36477  0.74153  0.00376  1.0000
  H   H3562     1.0  0.42158  0.75850  0.18407  1.0000
  H   H3563     1.0  0.42435  0.89557  0.20173  1.0000
  H   H3564     1.0  0.38337  0.77464  0.98334  1.0000
  H   H3565     1.0  0.35487  0.74879  0.03029  1.0000
  H   H3566     1.0  0.45086  0.94124  0.23063  1.0000
  H   H3567     1.0  0.38379  0.87749  0.17875  1.0000
  H   H3568     1.0  0.38250  0.87248  0.16732  1.0000
  C   C2076     1.0  0.36049  0.87823  0.18413  1.0000
  C   C2077     1.0  0.42411  0.74982  0.14638  1.0000
  H   H3569     1.0  0.36345  0.87269  0.16590  1.0000
  N   N150      1.0  0.40277  0.78407  0.18099  1.0000
  C   C2078     1.0  0.39728  0.79204  0.18871  1.0000
  C   C2079     1.0  0.39350  0.78085  0.17807  1.0000
  C   C2080     1.0  0.40936  0.79027  0.17060  1.0000
  C   C2081     1.0  0.41037  0.77424  0.18680  1.0000
  C   C2082     1.0  0.40508  0.79793  0.19137  1.0000
  C   C2083     1.0  0.38493  0.77595  0.18800  1.0000
  C   C2084     1.0  0.41512  0.78400  0.16115  1.0000
  C   C2085     1.0  0.41308  0.76319  0.18285  1.0000
  H   H3570     1.0  0.39062  0.79866  0.18533  1.0000
  H   H3571     1.0  0.39292  0.78774  0.19686  1.0000
  H   H3572     1.0  0.39674  0.77473  0.17267  1.0000
  H   H3573     1.0  0.38868  0.78821  0.17305  1.0000
  H   H3574     1.0  0.40384  0.79810  0.16707  1.0000
  H   H3575     1.0  0.41621  0.79286  0.17248  1.0000
  H   H3576     1.0  0.41847  0.77638  0.18629  1.0000
  H   H3577     1.0  0.40650  0.77218  0.19582  1.0000
  H   H3578     1.0  0.41248  0.79200  0.19412  1.0000
  H   H3579     1.0  0.40778  0.80450  0.18419  1.0000
  H   H3580     1.0  0.40033  0.80229  0.19820  1.0000
  H   H3581     1.0  0.37903  0.78262  0.19203  1.0000
  H   H3582     1.0  0.37978  0.77211  0.18497  1.0000
  H   H3583     1.0  0.38904  0.76943  0.19421  1.0000
  H   H3584     1.0  0.40925  0.78081  0.15842  1.0000
  H   H3585     1.0  0.42224  0.77720  0.16337  1.0000
  H   H3586     1.0  0.40747  0.77688  0.00694  1.0000
  C   C2086     1.0  0.48209  0.75331  0.10477  1.0000
  H   H3587     1.0  0.44490  0.86824  0.23021  1.0000
  H   H3588     1.0  0.40740  0.89287  0.22247  1.0000
  H   H3589     1.0  0.48172  0.75446  0.09594  1.0000
  C   C2087     1.0  0.44612  0.84694  0.22795  1.0000
  Fe  Fe301     1.0  0.36938  0.74289  0.98505  1.0000
  H   H3590     1.0  0.38900  0.77579  0.00001  1.0000
  H   H3591     1.0  0.42554  0.74406  0.15404  1.0000
  H   H3592     1.0  0.42470  0.75013  0.99155  1.0000
  C   C2088     1.0  0.35312  0.75488  0.04486  1.0000
  C   C2089     1.0  0.39565  0.77554  0.99228  1.0000
  C   C2090     1.0  0.41521  0.89329  0.22456  1.0000
  H   H3593     1.0  0.39144  0.74697  0.15220  1.0000
  H   H3594     1.0  0.35387  0.96176  0.21340  1.0000
  H   H3595     1.0  0.45213  0.74778  0.07641  1.0000
  H   H3596     1.0  0.36227  0.75355  0.04418  1.0000
  H   H3597     1.0  0.36353  0.98029  0.22477  1.0000
  H   H3598     1.0  0.42001  0.92376  0.22857  1.0000
  H   H3599     1.0  0.43894  0.74165  0.13627  1.0000
  H   H3600     1.0  0.48349  0.75872  0.12359  1.0000
  H   H3601     1.0  0.41646  0.84135  0.23245  1.0000
  H   H3602     1.0  0.43474  0.88676  0.23197  1.0000
  C   C2091     1.0  0.44403  0.93680  0.23202  1.0000
  H   H3603     1.0  0.35928  0.95578  0.23242  1.0000
  H   H3604     1.0  0.38963  0.87867  0.27174  1.0000
  H   H3605     1.0  0.07281  0.74474  0.38995  1.0000
  S   S599      1.0  0.40670  0.92383  0.25091  1.0000
  N   N151      1.0  0.16820  0.82561  0.46219  1.0000
  H   H3606     1.0  0.06581  0.75056  0.37878  1.0000
  H   H3607     1.0  0.48771  0.89198  0.27495  1.0000
  H   H3608     1.0  0.40448  0.88499  0.27608  1.0000
  H   H3609     1.0  0.42824  0.93507  0.24305  1.0000
  Fe  Fe302     1.0  0.47053  0.86313  0.26044  1.0000
  Fe  Fe303     1.0  0.44569  0.87087  0.27019  1.0000
  S   S600      1.0  0.44060  0.87281  0.25426  1.0000
  S   S601      1.0  0.43255  0.87448  0.28537  1.0000
  Fe  Fe304     1.0  0.45243  0.85639  0.25311  1.0000
  Fe  Fe305     1.0  0.45576  0.88012  0.24633  1.0000
  S   S602      1.0  0.44541  0.84294  0.25046  1.0000
  S   S603      1.0  0.45672  0.85395  0.26970  1.0000
  S   S604      1.0  0.45976  0.87988  0.26239  1.0000
  H   H3610     1.0  0.18096  0.76977  0.42002  1.0000
  Fe  Fe306     1.0  0.22892  0.93081  0.41187  1.0000
  S   S605      1.0  0.21113  0.93952  0.41740  1.0000
  S   S606      1.0  0.24148  0.92317  0.42262  1.0000
  Fe  Fe307     1.0  0.22714  0.93539  0.38802  1.0000
  S   S607      1.0  0.20920  0.94444  0.39149  1.0000
  S   S608      1.0  0.23686  0.93429  0.37081  1.0000
  Fe  Fe308     1.0  0.21474  0.95265  0.40201  1.0000
  S   S609      1.0  0.21153  0.97144  0.39974  1.0000
  Fe  Fe309     1.0  0.20746  0.93033  0.40645  1.0000
  S   S610      1.0  0.19268  0.92185  0.41259  1.0000
  S   S611      1.0  0.23285  0.94448  0.39733  1.0000
  S   S612      1.0  0.22507  0.92069  0.40211  1.0000
  Fe  Fe310     1.0  0.23491  0.85640  0.46996  1.0000
  C   C2092     1.0  0.35033  0.96572  0.24914  1.0000
  H   H3611     1.0  0.06180  0.78039  0.42004  1.0000
  S   S613      1.0  0.21910  0.89704  0.46877  1.0000
  Fe  Fe311     1.0  0.25420  0.86846  0.46253  1.0000
  S   S614      1.0  0.27082  0.87013  0.45082  1.0000
  S   S615      1.0  0.23806  0.87174  0.45711  1.0000
  Fe  Fe312     1.0  0.13314  0.77691  0.38272  1.0000
  S   S616      1.0  0.12640  0.79554  0.37983  1.0000
  S   S617      1.0  0.13811  0.76614  0.36994  1.0000
  Fe  Fe313     1.0  0.13290  0.77533  0.40668  1.0000
  S   S618      1.0  0.12554  0.79348  0.40621  1.0000
  H   H3612     1.0  0.17553  0.78779  0.41460  1.0000
  Fe  Fe314     1.0  0.11446  0.79133  0.39614  1.0000
  S   S619      1.0  0.09576  0.79839  0.39961  1.0000
  Fe  Fe315     1.0  0.13810  0.79616  0.39020  1.0000
  S   S620      1.0  0.14965  0.80848  0.38625  1.0000
  S   S621      1.0  0.12067  0.77286  0.39835  1.0000
  S   S622      1.0  0.14605  0.77796  0.39125  1.0000
  Fe  Fe316     1.0  0.26295  0.86875  0.37889  1.0000
  S   S623      1.0  0.27567  0.85260  0.38030  1.0000
  S   S624      1.0  0.24440  0.87208  0.38004  1.0000
  Fe  Fe317     1.0  0.28018  0.88249  0.37542  1.0000
  S   S625      1.0  0.29439  0.86765  0.37659  1.0000
  S   S626      1.0  0.28304  0.89984  0.37120  1.0000
  Fe  Fe318     1.0  0.28679  0.86180  0.36588  1.0000
  S   S627      1.0  0.29542  0.85642  0.34964  1.0000
  Fe  Fe319     1.0  0.28203  0.85998  0.39091  1.0000
  S   S628      1.0  0.28677  0.85058  0.40719  1.0000
  S   S629      1.0  0.27342  0.87737  0.36370  1.0000
  S   S630      1.0  0.26849  0.87535  0.39055  1.0000
  Fe  Fe320     1.0  0.18669  0.86328  0.40769  1.0000
  S   S631      1.0  0.20003  0.85607  0.41749  1.0000
  S   S632      1.0  0.18724  0.88066  0.39716  1.0000
  Fe  Fe321     1.0  0.17710  0.84173  0.41541  1.0000
  S   S633      1.0  0.19016  0.83322  0.42579  1.0000
  S   S634      1.0  0.16295  0.83258  0.41744  1.0000
  Fe  Fe322     1.0  0.18676  0.84949  0.43103  1.0000
  S   S635      1.0  0.18498  0.85300  0.44786  1.0000
  Fe  Fe323     1.0  0.20220  0.84076  0.41113  1.0000
  S   S636      1.0  0.21990  0.83239  0.40450  1.0000
  S   S637      1.0  0.17295  0.85767  0.42174  1.0000
  S   S638      1.0  0.18957  0.84825  0.40035  1.0000
  Fe  Fe324     1.0  0.35421  0.88105  0.29189  1.0000
  S   S639      1.0  0.36504  0.87222  0.30426  1.0000
  S   S640      1.0  0.34698  0.89933  0.29083  1.0000
  Fe  Fe325     1.0  0.35289  0.85958  0.28692  1.0000
  S   S641      1.0  0.36311  0.84901  0.29926  1.0000
  S   S642      1.0  0.34591  0.85105  0.27787  1.0000
  Fe  Fe326     1.0  0.35303  0.86067  0.31046  1.0000
  S   S643      1.0  0.34701  0.85540  0.32903  1.0000
  Fe  Fe327     1.0  0.37407  0.86148  0.29196  1.0000
  S   S644      1.0  0.39228  0.85388  0.28643  1.0000
  S   S645      1.0  0.34170  0.87012  0.29881  1.0000
  S   S646      1.0  0.36438  0.87144  0.27885  1.0000
  H   H3613     1.0  0.37864  0.90754  0.29452  1.0000
  C   C2093     1.0  0.41183  0.94966  0.25479  1.0000
  H   H3614     1.0  0.17616  0.76148  0.43343  1.0000
  S   S647      1.0  0.06541  0.77505  0.38481  1.0000
  H   H3615     1.0  0.27639  0.89138  0.46834  1.0000
  H   H3616     1.0  0.41628  0.94113  0.25811  1.0000
  H   H3617     1.0  0.17139  0.79162  0.39593  1.0000
  H   H3618     1.0  0.15838  0.78734  0.40163  1.0000
  S   S648      1.0  0.23003  0.84307  0.46473  1.0000
  H   H3619     1.0  0.22671  0.96867  0.44053  1.0000
  H   H3620     1.0  0.32912  0.82374  0.32380  1.0000
  H   H3621     1.0  0.39431  0.81871  0.28845  1.0000
  S   S649      1.0  0.48800  0.85759  0.26419  1.0000
  H   H3622     1.0  0.47897  0.84559  0.30298  1.0000
  C   C2094     1.0  0.30544  0.83527  0.31815  1.0000
  C   C2095     1.0  0.42463  0.91794  0.23437  1.0000
  H   H3623     1.0  0.09162  0.75597  0.43488  1.0000
  C   C2096     1.0  0.11614  0.75297  0.44943  1.0000
  H   H3624     1.0  0.38490  0.92457  0.26759  1.0000
  H   H3625     1.0  0.40227  0.87757  0.26146  1.0000
  H   H3626     1.0  0.40703  0.90511  0.29107  1.0000
  C   C2097     1.0  0.35564  0.84423  0.26779  1.0000
  C   C2098     1.0  0.36095  0.85023  0.25775  1.0000
  C   C2099     1.0  0.36817  0.84457  0.24955  1.0000
  C   C2100     1.0  0.37018  0.83291  0.25147  1.0000
  C   C2101     1.0  0.36482  0.82700  0.26149  1.0000
  C   C2102     1.0  0.35752  0.83263  0.26957  1.0000
  H   H3627     1.0  0.35936  0.85922  0.25623  1.0000
  C   C2103     1.0  0.40762  0.82090  0.24935  1.0000
  H   H3628     1.0  0.36629  0.81801  0.26299  1.0000
  H   H3629     1.0  0.35333  0.82796  0.27719  1.0000
  C   C2104     1.0  0.30973  0.85643  0.34413  1.0000
  C   C2105     1.0  0.31360  0.85848  0.33258  1.0000
  C   C2106     1.0  0.32497  0.85847  0.32788  1.0000
  C   C2107     1.0  0.33261  0.85604  0.33470  1.0000
  C   C2108     1.0  0.32874  0.85403  0.34626  1.0000
  C   C2109     1.0  0.31729  0.85435  0.35097  1.0000
  H   H3630     1.0  0.30774  0.86020  0.32727  1.0000
  H   H3631     1.0  0.32786  0.86025  0.31900  1.0000
  H   H3632     1.0  0.33461  0.85217  0.35160  1.0000
  H   H3633     1.0  0.31437  0.85270  0.35990  1.0000
  C   C2110     1.0  0.23795  0.86064  0.38582  1.0000
  C   C2111     1.0  0.22627  0.86268  0.38895  1.0000
  C   C2112     1.0  0.22078  0.85389  0.39398  1.0000
  C   C2113     1.0  0.22691  0.84298  0.39636  1.0000
  C   C2114     1.0  0.23862  0.84080  0.39287  1.0000
  C   C2115     1.0  0.24415  0.84965  0.38756  1.0000
  H   H3634     1.0  0.22137  0.87108  0.38769  1.0000
  H   H3635     1.0  0.21175  0.85562  0.39605  1.0000
  H   H3636     1.0  0.24341  0.83233  0.39450  1.0000
  H   H3637     1.0  0.25317  0.84797  0.38492  1.0000
  C   C2116     1.0  0.15325  0.81504  0.39511  1.0000
  C   C2117     1.0  0.14665  0.81606  0.40563  1.0000
  C   C2118     1.0  0.14975  0.82145  0.41229  1.0000
  C   C2119     1.0  0.15943  0.82599  0.40853  1.0000
  C   C2120     1.0  0.16595  0.82508  0.39795  1.0000
  C   C2121     1.0  0.16285  0.81969  0.39130  1.0000
  H   H3638     1.0  0.13911  0.81279  0.40862  1.0000
  H   H3639     1.0  0.14457  0.82218  0.42040  1.0000
  H   H3640     1.0  0.17340  0.82854  0.39488  1.0000
  H   H3641     1.0  0.16798  0.81908  0.38314  1.0000
  C   C2122     1.0  0.37900  0.91931  0.26818  1.0000
  H   H3642     1.0  0.14682  0.74349  0.40990  1.0000
  H   H3643     1.0  0.37911  0.90369  0.26482  1.0000
  H   H3644     1.0  0.40620  0.89463  0.26321  1.0000
  C   C2123     1.0  0.10649  0.77016  0.43936  1.0000
  C   C2124     1.0  0.11637  0.77097  0.43128  1.0000
  H   H3645     1.0  0.38746  0.88668  0.28962  1.0000
  H   H3646     1.0  0.42424  0.84054  0.24870  1.0000
  H   H3647     1.0  0.09888  0.77639  0.43844  1.0000
  H   H3648     1.0  0.11631  0.77783  0.42420  1.0000
  C   C2125     1.0  0.08724  0.79241  0.39501  1.0000
  C   C2126     1.0  0.09192  0.78561  0.38726  1.0000
  C   C2127     1.0  0.08504  0.78069  0.38395  1.0000
  C   C2128     1.0  0.07349  0.78220  0.38859  1.0000
  C   C2129     1.0  0.06877  0.78910  0.39623  1.0000
  C   C2130     1.0  0.07562  0.79428  0.39934  1.0000
  H   H3649     1.0  0.10085  0.78418  0.38379  1.0000
  H   H3650     1.0  0.36949  0.96864  0.23418  1.0000
  H   H3651     1.0  0.05986  0.79044  0.39976  1.0000
  H   H3652     1.0  0.07191  0.79957  0.40528  1.0000
  C   C2131     1.0  0.37501  0.90143  0.29278  1.0000
  H   H3653     1.0  0.39136  0.90894  0.25824  1.0000
  H   H3654     1.0  0.40356  0.90977  0.27177  1.0000
  H   H3655     1.0  0.38491  0.84091  0.27668  1.0000
  H   H3656     1.0  0.39615  0.85429  0.26211  1.0000
  C   C2132     1.0  0.21731  0.84586  0.46039  1.0000
  C   C2133     1.0  0.21594  0.83889  0.45429  1.0000
  C   C2134     1.0  0.20625  0.84128  0.45002  1.0000
  C   C2135     1.0  0.19749  0.85017  0.45258  1.0000
  C   C2136     1.0  0.19849  0.85663  0.45939  1.0000
  C   C2137     1.0  0.20853  0.85476  0.46296  1.0000
  H   H3657     1.0  0.22247  0.83166  0.45276  1.0000
  H   H3658     1.0  0.20545  0.83606  0.44500  1.0000
  H   H3659     1.0  0.19150  0.86318  0.46179  1.0000
  C   C2138     1.0  0.27442  0.86438  0.43895  1.0000
  C   C2139     1.0  0.26809  0.86833  0.43069  1.0000
  C   C2140     1.0  0.27193  0.86447  0.42070  1.0000
  C   C2141     1.0  0.28190  0.85638  0.41912  1.0000
  C   C2142     1.0  0.28801  0.85232  0.42751  1.0000
  C   C2143     1.0  0.28442  0.85645  0.43725  1.0000
  H   H3660     1.0  0.26042  0.87458  0.43190  1.0000
  H   H3661     1.0  0.26704  0.86752  0.41437  1.0000
  H   H3662     1.0  0.29567  0.84604  0.42640  1.0000
  H   H3663     1.0  0.28941  0.85345  0.44352  1.0000
  C   C2144     1.0  0.24967  0.92479  0.37120  1.0000
  C   C2145     1.0  0.25971  0.92822  0.36572  1.0000
  C   C2146     1.0  0.26999  0.92055  0.36579  1.0000
  C   C2147     1.0  0.27018  0.90935  0.37091  1.0000
  C   C2148     1.0  0.26010  0.90588  0.37612  1.0000
  C   C2149     1.0  0.24989  0.91365  0.37659  1.0000
  H   H3664     1.0  0.25954  0.93684  0.36153  1.0000
  H   H3665     1.0  0.27775  0.92328  0.36176  1.0000
  H   H3666     1.0  0.26013  0.89724  0.37992  1.0000
  H   H3667     1.0  0.24214  0.91097  0.38080  1.0000
  C   C2150     1.0  0.19175  0.90988  0.40870  1.0000
  C   C2151     1.0  0.18111  0.90763  0.41050  1.0000
  C   C2152     1.0  0.17981  0.89829  0.40756  1.0000
  C   C2153     1.0  0.18917  0.89089  0.40304  1.0000
  C   C2154     1.0  0.19990  0.89284  0.40165  1.0000
  C   C2155     1.0  0.20121  0.90236  0.40439  1.0000
  H   H3668     1.0  0.17376  0.91332  0.41391  1.0000
  H   H3669     1.0  0.17149  0.89699  0.40849  1.0000
  H   H3670     1.0  0.20717  0.88707  0.39829  1.0000
  H   H3671     1.0  0.20948  0.90389  0.40315  1.0000
  C   C2156     1.0  0.23530  0.91636  0.43572  1.0000
  C   C2157     1.0  0.24179  0.90723  0.44163  1.0000
  C   C2158     1.0  0.23684  0.90145  0.45192  1.0000
  C   C2159     1.0  0.22548  0.90497  0.45648  1.0000
  C   C2160     1.0  0.21911  0.91443  0.45081  1.0000
  C   C2161     1.0  0.22397  0.91999  0.44033  1.0000
  H   H3672     1.0  0.25058  0.90442  0.43821  1.0000
  H   H3673     1.0  0.24186  0.89422  0.45628  1.0000
  H   H3674     1.0  0.21036  0.91728  0.45439  1.0000
  H   H3675     1.0  0.21896  0.92714  0.43595  1.0000
  H   H3676     1.0  0.21117  0.95938  0.44233  1.0000
  H   H3677     1.0  0.15093  0.80134  0.43533  1.0000
  C   C2162     1.0  0.20616  0.97549  0.42086  1.0000
  C   C2163     1.0  0.21213  0.97808  0.40992  1.0000
  H   H3678     1.0  0.00962  0.74728  0.39658  1.0000
  Fe  Fe328     1.0  0.39545  0.92931  0.23877  1.0000
  H   H3679     1.0  0.39192  0.91346  0.28212  1.0000
  H   H3680     1.0  0.16668  0.83403  0.43956  1.0000
  C   C2164     1.0  0.08398  0.74408  0.35773  1.0000
  H   H3681     1.0  0.28632  0.87943  0.46445  1.0000
  C   C2165     1.0  0.42151  0.86809  0.28663  1.0000
  C   C2166     1.0  0.41141  0.87021  0.29440  1.0000
  C   C2167     1.0  0.40224  0.86594  0.29448  1.0000
  C   C2168     1.0  0.40332  0.85938  0.28694  1.0000
  C   C2169     1.0  0.41358  0.85685  0.27961  1.0000
  C   C2170     1.0  0.42262  0.86119  0.27944  1.0000
  H   H3682     1.0  0.41063  0.87529  0.30019  1.0000
  H   H3683     1.0  0.39442  0.86761  0.30040  1.0000
  H   H3684     1.0  0.41456  0.85161  0.27391  1.0000
  H   H3685     1.0  0.43047  0.85913  0.27373  1.0000
  C   C2171     1.0  0.34878  0.90867  0.27792  1.0000
  C   C2172     1.0  0.35626  0.90551  0.26847  1.0000
  C   C2173     1.0  0.35788  0.91349  0.25846  1.0000
  C   C2174     1.0  0.35181  0.92452  0.25788  1.0000
  C   C2175     1.0  0.34412  0.92753  0.26725  1.0000
  C   C2176     1.0  0.34274  0.91968  0.27726  1.0000
  H   H3686     1.0  0.36084  0.89697  0.26891  1.0000
  H   H3687     1.0  0.36366  0.91107  0.25117  1.0000
  H   H3688     1.0  0.33932  0.93598  0.26682  1.0000
  H   H3689     1.0  0.33692  0.92214  0.28453  1.0000
  C   C2177     1.0  0.42007  0.91643  0.24578  1.0000
  C   C2178     1.0  0.42630  0.90896  0.25323  1.0000
  C   C2179     1.0  0.43683  0.90268  0.24926  1.0000
  H   H3690     1.0  0.39062  0.88861  0.25854  1.0000
  H   H3691     1.0  0.42294  0.90783  0.26207  1.0000
  H   H3692     1.0  0.44146  0.89676  0.25508  1.0000
  H   H3693     1.0  0.37753  0.89113  0.28136  1.0000
  C   C2180     1.0  0.07948  0.76428  0.41188  1.0000
  H   H3694     1.0  0.41047  0.82309  0.24019  1.0000
  H   H3695     1.0  0.41172  0.89360  0.28449  1.0000
  H   H3696     1.0  0.36716  0.90574  0.28988  1.0000
  H   H3697     1.0  0.37021  0.98803  0.23555  1.0000
  H   H3698     1.0  0.37436  0.92358  0.26145  1.0000
  H   H3699     1.0  0.37276  0.91918  0.27608  1.0000
  H   H3700     1.0  0.39357  0.97234  0.25029  1.0000
  C   C2181     1.0  0.48789  0.87711  0.26985  1.0000
  C   C2182     1.0  0.49209  0.88350  0.27452  1.0000
  H   H3701     1.0  0.48042  0.88075  0.26657  1.0000
  H   H3702     1.0  0.37276  0.89584  0.30097  1.0000
  S   S650      1.0  0.46738  0.86388  0.24371  1.0000
  N   N152      1.0  0.46115  0.86422  0.30070  1.0000
  C   C2183     1.0  0.47176  0.86128  0.29226  1.0000
  C   C2184     1.0  0.45573  0.87619  0.29653  1.0000
  C   C2185     1.0  0.45348  0.85683  0.30112  1.0000
  C   C2186     1.0  0.46411  0.86229  0.31183  1.0000
  H   H3703     1.0  0.34246  0.83298  0.32711  1.0000
  C   C2187     1.0  0.46323  0.88469  0.29390  1.0000
  C   C2188     1.0  0.44203  0.85832  0.30926  1.0000
  C   C2189     1.0  0.45628  0.86947  0.32002  1.0000
  H   H3704     1.0  0.46999  0.86346  0.28377  1.0000
  H   H3705     1.0  0.47794  0.86621  0.29183  1.0000
  H   H3706     1.0  0.44796  0.87910  0.30242  1.0000
  H   H3707     1.0  0.45294  0.87703  0.28876  1.0000
  H   H3708     1.0  0.45186  0.85797  0.29272  1.0000
  H   H3709     1.0  0.45745  0.84788  0.30353  1.0000
  H   H3710     1.0  0.46457  0.85340  0.31621  1.0000
  H   H3711     1.0  0.47265  0.86373  0.31081  1.0000
  Fe  Fe329     1.0  0.09319  0.74061  0.46077  1.0000
  H   H3712     1.0  0.06113  0.74667  0.46287  1.0000
  C   C2190     1.0  0.08539  0.74603  0.34506  1.0000
  H   H3713     1.0  0.45790  0.89319  0.29382  1.0000
  H   H3714     1.0  0.46858  0.88292  0.29998  1.0000
  H   H3715     1.0  0.46869  0.88485  0.28551  1.0000
  H   H3716     1.0  0.44296  0.85487  0.31797  1.0000
  H   H3717     1.0  0.43682  0.85345  0.30762  1.0000
  H   H3718     1.0  0.43723  0.86704  0.30822  1.0000
  H   H3719     1.0  0.45709  0.87829  0.31723  1.0000
  H   H3720     1.0  0.45878  0.86633  0.32817  1.0000
  H   H3721     1.0  0.44736  0.86918  0.32149  1.0000
  N   N153      1.0  0.20166  0.89359  0.44136  1.0000
  C   C2191     1.0  0.20306  0.88179  0.44032  1.0000
  C   C2192     1.0  0.20340  0.89331  0.45260  1.0000
  C   C2193     1.0  0.21011  0.89936  0.43260  1.0000
  C   C2194     1.0  0.19005  0.89992  0.43995  1.0000
  C   C2195     1.0  0.20288  0.88030  0.42883  1.0000
  C   C2196     1.0  0.19486  0.88860  0.46268  1.0000
  C   C2197     1.0  0.22252  0.89329  0.43183  1.0000
  C   C2198     1.0  0.18645  0.91171  0.44245  1.0000
  H   H3722     1.0  0.21091  0.87640  0.44273  1.0000
  H   H3723     1.0  0.19617  0.87803  0.44618  1.0000
  H   H3724     1.0  0.20344  0.90177  0.45334  1.0000
  H   H3725     1.0  0.21176  0.88814  0.45379  1.0000
  H   H3726     1.0  0.20824  0.90104  0.42425  1.0000
  H   H3727     1.0  0.20961  0.90772  0.43401  1.0000
  H   H3728     1.0  0.18923  0.90098  0.43130  1.0000
  H   H3729     1.0  0.18361  0.89514  0.44516  1.0000
  H   H3730     1.0  0.19469  0.88439  0.42651  1.0000
  H   H3731     1.0  0.17528  0.83512  0.48215  1.0000
  H   H3732     1.0  0.20404  0.87128  0.42922  1.0000
  H   H3733     1.0  0.15309  0.81907  0.46821  1.0000
  H   H3734     1.0  0.19560  0.87960  0.46346  1.0000
  H   H3735     1.0  0.13029  0.74785  0.39505  1.0000
  H   H3736     1.0  0.22424  0.88501  0.42980  1.0000
  H   H3737     1.0  0.22537  0.89243  0.43953  1.0000
  H   H3738     1.0  0.22780  0.89836  0.42506  1.0000
  H   H3739     1.0  0.18560  0.91151  0.45133  1.0000
  H   H3740     1.0  0.17810  0.91570  0.44042  1.0000
  C   C2199     1.0  0.22682  0.95108  0.43263  1.0000
  N   N154      1.0  0.22125  0.90427  0.36747  1.0000
  C   C2200     1.0  0.23379  0.89973  0.36477  1.0000
  C   C2201     1.0  0.21595  0.89455  0.37400  1.0000
  C   C2202     1.0  0.21920  0.91236  0.37485  1.0000
  C   C2203     1.0  0.21731  0.90991  0.35682  1.0000
  C   C2204     1.0  0.24093  0.90771  0.35638  1.0000
  C   C2205     1.0  0.21634  0.88581  0.36753  1.0000
  C   C2206     1.0  0.20710  0.91895  0.37798  1.0000
  C   C2207     1.0  0.20455  0.91223  0.35730  1.0000
  H   H3741     1.0  0.23718  0.89681  0.37248  1.0000
  H   H3742     1.0  0.23586  0.89224  0.36117  1.0000
  H   H3743     1.0  0.20706  0.89723  0.37800  1.0000
  H   H3744     1.0  0.22007  0.89007  0.38110  1.0000
  H   H3745     1.0  0.22198  0.90795  0.38275  1.0000
  H   H3746     1.0  0.22427  0.91880  0.37097  1.0000
  H   H3747     1.0  0.21997  0.91803  0.35337  1.0000
  H   H3748     1.0  0.22157  0.90486  0.35039  1.0000
  H   H3749     1.0  0.23979  0.90889  0.34783  1.0000
  H   H3750     1.0  0.23921  0.91597  0.35843  1.0000
  H   H3751     1.0  0.24994  0.90393  0.35631  1.0000
  H   H3752     1.0  0.21328  0.88951  0.35975  1.0000
  H   H3753     1.0  0.22485  0.88049  0.36574  1.0000
  H   H3754     1.0  0.21077  0.88010  0.37279  1.0000
  H   H3755     1.0  0.20089  0.91361  0.38178  1.0000
  H   H3756     1.0  0.20456  0.92530  0.37077  1.0000
  H   H3757     1.0  0.20672  0.92360  0.38430  1.0000
  H   H3758     1.0  0.20127  0.92132  0.35465  1.0000
  H   H3759     1.0  0.19935  0.90939  0.36549  1.0000
  H   H3760     1.0  0.20301  0.90817  0.35136  1.0000
  C   C2208     1.0  0.10098  0.76218  0.41869  1.0000
  H   H3761     1.0  0.33836  0.81348  0.31163  1.0000
  C   C2209     1.0  0.07159  0.75542  0.43120  1.0000
  C   C2210     1.0  0.41991  0.95695  0.24686  1.0000
  C   C2211     1.0  0.33906  0.81696  0.30264  1.0000
  S   S651      1.0  0.25172  0.85244  0.47450  1.0000
  C   C2212     1.0  0.34175  0.98143  0.23544  1.0000
  H   H3762     1.0  0.39888  0.89466  0.29515  1.0000
  Fe  Fe330     1.0  0.37145  0.93387  0.23630  1.0000
  C   C2213     1.0  0.09146  0.75650  0.42609  1.0000
  H   H3763     1.0  0.49778  0.87559  0.24191  1.0000
  H   H3764     1.0  0.40525  0.94921  0.25083  1.0000
  H   H3765     1.0  0.40829  0.86377  0.24258  1.0000
  C   C2214     1.0  0.36219  0.97579  0.23362  1.0000
  H   H3766     1.0  0.00959  0.75892  0.36744  1.0000
  H   H3767     1.0  0.08236  0.77896  0.42164  1.0000
  H   H3768     1.0  0.08011  0.75402  0.34163  1.0000
  H   H3769     1.0  0.33262  0.83172  0.29168  1.0000
  H   H3770     1.0  0.32354  0.83768  0.32480  1.0000
  H   H3771     1.0  0.00367  0.75472  0.41265  1.0000
  H   H3772     1.0  0.07179  0.75435  0.44006  1.0000
  H   H3773     1.0  0.35767  0.95865  0.25020  1.0000
  H   H3774     1.0  0.42116  0.87538  0.24154  1.0000
  H   H3775     1.0  0.11614  0.74615  0.45656  1.0000
  H   H3776     1.0  0.15075  0.74285  0.38544  1.0000
  H   H3777     1.0  0.41520  0.81698  0.25279  1.0000
  S   S652      1.0  0.38521  0.91859  0.23649  1.0000
  C   C2215     1.0  0.39117  0.97027  0.23503  1.0000
  C   C2216     1.0  0.21745  0.95139  0.44324  1.0000
  H   H3778     1.0  0.07556  0.74227  0.36147  1.0000
  C   C2217     1.0  0.12869  0.74274  0.40361  1.0000
  H   H3779     1.0  0.22269  0.95596  0.42566  1.0000
  H   H3780     1.0  0.10358  0.74594  0.35908  1.0000
  H   H3781     1.0  0.20938  0.85997  0.46795  1.0000
  H   H3782     1.0  0.32795  0.97233  0.23938  1.0000
  Fe  Fe331     1.0  0.04003  0.74912  0.40648  1.0000
  C   C2218     1.0  0.00312  0.74590  0.41394  1.0000
  H   H3783     1.0  0.41461  0.96536  0.24466  1.0000
  N   N155      1.0  0.12150  0.83375  0.38212  1.0000
  C   C2219     1.0  0.13192  0.83800  0.38084  1.0000
  C   C2220     1.0  0.12415  0.82663  0.37367  1.0000
  C   C2221     1.0  0.11920  0.82655  0.39361  1.0000
  C   C2222     1.0  0.11188  0.84363  0.38050  1.0000
  C   C2223     1.0  0.13177  0.84420  0.38969  1.0000
  C   C2224     1.0  0.12776  0.83253  0.36148  1.0000
  C   C2225     1.0  0.10897  0.82119  0.39672  1.0000
  C   C2226     1.0  0.10191  0.84181  0.37690  1.0000
  H   H3784     1.0  0.13945  0.83107  0.38077  1.0000
  H   H3785     1.0  0.13366  0.84387  0.37271  1.0000
  H   H3786     1.0  0.11708  0.82292  0.37410  1.0000
  H   H3787     1.0  0.13104  0.81929  0.37545  1.0000
  H   H3788     1.0  0.12664  0.81970  0.39490  1.0000
  H   H3789     1.0  0.11772  0.83141  0.40007  1.0000
  H   H3790     1.0  0.10845  0.84696  0.38822  1.0000
  H   H3791     1.0  0.11495  0.85058  0.37400  1.0000
  H   H3792     1.0  0.13912  0.84821  0.38695  1.0000
  H   H3793     1.0  0.12414  0.85086  0.39093  1.0000
  H   H3794     1.0  0.13274  0.83836  0.39772  1.0000
  H   H3795     1.0  0.13649  0.83371  0.35968  1.0000
  H   H3796     1.0  0.12770  0.82716  0.35597  1.0000
  H   H3797     1.0  0.12206  0.84066  0.35923  1.0000
  H   H3798     1.0  0.10864  0.81571  0.40512  1.0000
  H   H3799     1.0  0.10941  0.81580  0.39107  1.0000
  H   H3800     1.0  0.10099  0.82751  0.39729  1.0000
  H   H3801     1.0  0.09398  0.84669  0.38110  1.0000
  H   H3802     1.0  0.10083  0.83313  0.37895  1.0000
  H   H3803     1.0  0.10240  0.84524  0.36788  1.0000
  N   N156      1.0  0.27245  0.90515  0.40527  1.0000
  C   C2227     1.0  0.26619  0.91605  0.39943  1.0000
  C   C2228     1.0  0.26688  0.89616  0.40510  1.0000
  C   C2229     1.0  0.28448  0.90323  0.39883  1.0000
  C   C2230     1.0  0.27189  0.90606  0.41688  1.0000
  C   C2231     1.0  0.27092  0.92644  0.39790  1.0000
  C   C2232     1.0  0.25459  0.89692  0.41153  1.0000
  C   C2233     1.0  0.29111  0.89105  0.39963  1.0000
  C   C2234     1.0  0.27693  0.89548  0.42468  1.0000
  H   H3804     1.0  0.26580  0.91549  0.39105  1.0000
  H   H3805     1.0  0.25733  0.91807  0.40388  1.0000
  H   H3806     1.0  0.27143  0.88771  0.40843  1.0000
  H   H3807     1.0  0.26712  0.89613  0.39638  1.0000
  H   H3808     1.0  0.28492  0.90671  0.38980  1.0000
  H   H3809     1.0  0.28944  0.90780  0.40128  1.0000
  H   H3810     1.0  0.27639  0.91248  0.41670  1.0000
  H   H3811     1.0  0.26318  0.90931  0.42108  1.0000
  H   H3812     1.0  0.26598  0.93365  0.39288  1.0000
  H   H3813     1.0  0.26996  0.92866  0.40594  1.0000
  H   H3814     1.0  0.27978  0.92550  0.39333  1.0000
  H   H3815     1.0  0.25363  0.89689  0.42040  1.0000
  H   H3816     1.0  0.24883  0.90428  0.40770  1.0000
  H   H3817     1.0  0.25178  0.88948  0.41130  1.0000
  H   H3818     1.0  0.28798  0.88656  0.39518  1.0000
  H   H3819     1.0  0.29101  0.88635  0.40826  1.0000
  H   H3820     1.0  0.30001  0.89102  0.39542  1.0000
  H   H3821     1.0  0.28602  0.89483  0.42383  1.0000
  H   H3822     1.0  0.27571  0.88772  0.42344  1.0000
  H   H3823     1.0  0.27256  0.89575  0.43341  1.0000
  N   N157      1.0  0.30959  0.89270  0.34112  1.0000
  C   C2235     1.0  0.31339  0.89228  0.35147  1.0000
  C   C2236     1.0  0.30611  0.90482  0.33577  1.0000
  C   C2237     1.0  0.31946  0.88698  0.33349  1.0000
  C   C2238     1.0  0.30004  0.88671  0.34460  1.0000
  C   C2239     1.0  0.31928  0.88070  0.35720  1.0000
  C   C2240     1.0  0.29604  0.91167  0.34270  1.0000
  C   C2241     1.0  0.31928  0.88974  0.32104  1.0000
  C   C2242     1.0  0.29385  0.88710  0.33563  1.0000
  H   H3824     1.0  0.31931  0.89793  0.34962  1.0000
  H   H3825     1.0  0.30618  0.89531  0.35791  1.0000
  H   H3826     1.0  0.30390  0.90590  0.32770  1.0000
  H   H3827     1.0  0.31329  0.90902  0.33369  1.0000
  H   H3828     1.0  0.32739  0.88898  0.33379  1.0000
  H   H3829     1.0  0.32063  0.87779  0.33633  1.0000
  H   H3830     1.0  0.30301  0.87773  0.34801  1.0000
  H   H3831     1.0  0.29366  0.88951  0.35174  1.0000
  H   H3832     1.0  0.32110  0.88143  0.36494  1.0000
  H   H3833     1.0  0.31395  0.87449  0.35965  1.0000
  H   H3834     1.0  0.32743  0.87745  0.35198  1.0000
  H   H3835     1.0  0.29397  0.92027  0.33774  1.0000
  H   H3836     1.0  0.28842  0.90819  0.34484  1.0000
  H   H3837     1.0  0.29796  0.91243  0.35037  1.0000
  H   H3838     1.0  0.32654  0.88412  0.31681  1.0000
  H   H3839     1.0  0.32039  0.89836  0.31703  1.0000
  H   H3840     1.0  0.31169  0.88841  0.31942  1.0000
  H   H3841     1.0  0.29781  0.87999  0.33147  1.0000
  H   H3842     1.0  0.29317  0.89498  0.32936  1.0000
  H   H3843     1.0  0.28505  0.88644  0.33964  1.0000
  N   N158      1.0  0.39117  0.89988  0.27520  1.0000
  C   C2243     1.0  0.39977  0.89092  0.26999  1.0000
  C   C2244     1.0  0.39748  0.90616  0.27895  1.0000
  C   C2245     1.0  0.38527  0.90756  0.26631  1.0000
  C   C2246     1.0  0.38304  0.89434  0.28463  1.0000
  C   C2247     1.0  0.39513  0.88365  0.26518  1.0000
  C   C2248     1.0  0.40408  0.89934  0.28795  1.0000
  C   C2249     1.0  0.08522  0.75467  0.40565  1.0000
  C   C2250     1.0  0.38725  0.84030  0.26783  1.0000
  C   C2251     1.0  0.38882  0.85197  0.26090  1.0000
  H   H3844     1.0  0.37967  0.83888  0.26621  1.0000
  H   H3845     1.0  0.38602  0.81007  0.28706  1.0000
  H   H3846     1.0  0.24906  0.97299  0.42466  1.0000
  H   H3847     1.0  0.20110  0.97973  0.43695  1.0000
  H   H3848     1.0  0.16163  0.79762  0.44310  1.0000
  H   H3849     1.0  0.17689  0.75737  0.42077  1.0000
  C   C2252     1.0  0.38813  0.81842  0.28392  1.0000
  H   H3850     1.0  0.38945  0.85273  0.25194  1.0000
  H   H3851     1.0  0.19223  0.91717  0.43728  1.0000
  H   H3852     1.0  0.40291  0.83310  0.27935  1.0000
  H   H3853     1.0  0.38025  0.82460  0.28595  1.0000
  H   H3854     1.0  0.23643  0.93341  0.44708  1.0000
  C   C2253     1.0  0.31793  0.85197  0.29404  1.0000
  H   H3855     1.0  0.42541  0.95796  0.25184  1.0000
  H   H3856     1.0  0.40588  0.89192  0.24188  1.0000
  C   C2254     1.0  0.16693  0.78603  0.40298  1.0000
  C   C2255     1.0  0.17483  0.76457  0.42481  1.0000
  H   H3857     1.0  0.10906  0.75718  0.42080  1.0000
  H   H3858     1.0  0.38131  0.85825  0.26364  1.0000
  H   H3859     1.0  0.33822  0.95560  0.25008  1.0000
  H   H3860     1.0  0.16598  0.84342  0.45526  1.0000
  C   C2256     1.0  0.16670  0.78903  0.41391  1.0000
  H   H3861     1.0  0.16353  0.79820  0.41275  1.0000
  H   H3862     1.0  0.10158  0.76279  0.40980  1.0000
  H   H3863     1.0  0.24953  0.93302  0.43686  1.0000
  H   H3864     1.0  0.24909  0.93269  0.45099  1.0000
  C   C2257     1.0  0.04277  0.75648  0.44552  1.0000
  C   C2258     1.0  0.15985  0.79726  0.43520  1.0000
  H   H3865     1.0  0.17151  0.77736  0.40262  1.0000
  N   N159      1.0  0.39705  0.83069  0.26585  1.0000
  C   C2259     1.0  0.39289  0.82009  0.27129  1.0000
  C   C2260     1.0  0.40618  0.83175  0.27073  1.0000
  H   H3866     1.0  0.38620  0.81968  0.26737  1.0000
  H   H3867     1.0  0.29829  0.83170  0.31838  1.0000
  Fe  Fe332     1.0  0.03669  0.76628  0.42014  1.0000
  H   H3868     1.0  0.16523  0.80220  0.42840  1.0000
  H   H3869     1.0  0.35037  0.97136  0.25437  1.0000
  H   H3870     1.0  0.03457  0.74629  0.44084  1.0000
  H   H3871     1.0  0.07893  0.75262  0.40239  1.0000
  H   H3872     1.0  0.40928  0.83944  0.26620  1.0000
  H   H3873     1.0  0.42044  0.82186  0.27781  1.0000
  C   C2261     1.0  0.24441  0.93635  0.44422  1.0000
  H   H3874     1.0  0.08931  0.74689  0.41060  1.0000
  C   C2262     1.0  0.08408  0.75021  0.37439  1.0000
  N   N160      1.0  0.32609  0.83499  0.30821  1.0000
  H   H3875     1.0  0.44734  0.92790  0.23556  1.0000
  H   H3876     1.0  0.23389  0.96077  0.40986  1.0000
  C   C2263     1.0  0.17435  0.83591  0.47358  1.0000
  H   H3877     1.0  0.30685  0.83302  0.32673  1.0000
  H   H3878     1.0  0.15566  0.84580  0.44177  1.0000
  C   C2264     1.0  0.07273  0.74384  0.42901  1.0000
  N   N161      1.0  0.15986  0.78303  0.42425  1.0000
  C   C2265     1.0  0.16252  0.77067  0.42479  1.0000
  C   C2266     1.0  0.17967  0.82324  0.45476  1.0000
  C   C2267     1.0  0.15906  0.83700  0.44555  1.0000
  N   N162      1.0  0.08574  0.75330  0.36190  1.0000
  C   C2268     1.0  0.09782  0.75421  0.35717  1.0000
  H   H3879     1.0  0.04090  0.74235  0.38546  1.0000
  C   C2269     1.0  0.40086  0.83156  0.25348  1.0000
  C   C2270     1.0  0.41673  0.82226  0.27075  1.0000
  H   H3880     1.0  0.39948  0.81257  0.26994  1.0000
  H   H3881     1.0  0.39352  0.83441  0.24947  1.0000
  C   C2271     1.0  0.44131  0.90408  0.23786  1.0000
  H   H3882     1.0  0.31846  0.85181  0.31066  1.0000
  C   C2272     1.0  0.16253  0.78496  0.43424  1.0000
  H   H3883     1.0  0.15816  0.78011  0.44205  1.0000
  H   H3884     1.0  0.15985  0.76870  0.41806  1.0000
  H   H3885     1.0  0.20973  0.88330  0.42221  1.0000
  H   H3886     1.0  0.42314  0.82383  0.26298  1.0000
  H   H3887     1.0  0.09392  0.74773  0.42527  1.0000
  H   H3888     1.0  0.30917  0.85084  0.29629  1.0000
  H   H3889     1.0  0.20146  0.96898  0.42327  1.0000
  C   C2273     1.0  0.33526  0.82978  0.29970  1.0000
  H   H3890     1.0  0.32259  0.84826  0.28679  1.0000
  H   H3891     1.0  0.41508  0.81389  0.27211  1.0000
  H   H3892     1.0  0.15747  0.76634  0.43246  1.0000
  H   H3893     1.0  0.34064  0.95587  0.26300  1.0000
  H   H3894     1.0  0.08152  0.76813  0.34930  1.0000
  H   H3895     1.0  0.09951  0.75677  0.34796  1.0000
  S   S653      1.0  0.24726  0.87861  0.47569  1.0000
  H   H3896     1.0  0.06295  0.75984  0.43029  1.0000
  H   H3897     1.0  0.19446  0.80966  0.45447  1.0000
  H   H3898     1.0  0.31004  0.86467  0.47020  1.0000
  H   H3899     1.0  0.33167  0.85053  0.30141  1.0000
  S   S654      1.0  0.03465  0.78070  0.40562  1.0000
  H   H3900     1.0  0.31763  0.82123  0.31320  1.0000
  C   C2274     1.0  0.14761  0.78747  0.42401  1.0000
  H   H3901     1.0  0.14563  0.79671  0.42175  1.0000
  H   H3902     1.0  0.14547  0.78477  0.41743  1.0000
  H   H3903     1.0  0.17162  0.78176  0.43423  1.0000
  H   H3904     1.0  0.09710  0.77126  0.35873  1.0000
  C   C2275     1.0  0.06570  0.76500  0.35972  1.0000
  H   H3905     1.0  0.24211  0.97018  0.41013  1.0000
  H   H3906     1.0  0.14704  0.75265  0.35426  1.0000
  H   H3907     1.0  0.40587  0.83807  0.24976  1.0000
  N   N163      1.0  0.07995  0.76216  0.42391  1.0000
  S   S655      1.0  0.38106  0.94377  0.24070  1.0000
  H   H3908     1.0  0.43673  0.94092  0.24784  1.0000
  H   H3909     1.0  0.34809  0.81452  0.29878  1.0000
  H   H3910     1.0  0.07028  0.74457  0.42117  1.0000
  C   C2276     1.0  0.12608  0.75387  0.44146  1.0000
  H   H3911     1.0  0.08872  0.77550  0.37796  1.0000
  C   C2277     1.0  0.34128  0.83412  0.31855  1.0000
  C   C2278     1.0  0.00451  0.76132  0.37504  1.0000
  C   C2279     1.0  0.32954  0.83241  0.31918  1.0000
  H   H3912     1.0  0.06249  0.77140  0.35284  1.0000
  Fe  Fe333     1.0  0.04952  0.77021  0.39630  1.0000
  H   H3913     1.0  0.13053  0.78716  0.43327  1.0000
  S   S656      1.0  0.13802  0.76300  0.42146  1.0000
  H   H3914     1.0  0.25069  0.95120  0.44062  1.0000
  C   C2280     1.0  0.12608  0.76267  0.43219  1.0000
  S   S657      1.0  0.09341  0.75880  0.45687  1.0000
  H   H3915     1.0  0.13944  0.78784  0.44158  1.0000
  C   C2281     1.0  0.10626  0.76091  0.44817  1.0000
  H   H3916     1.0  0.08340  0.77141  0.40713  1.0000
  H   H3917     1.0  0.12755  0.74861  0.40906  1.0000
  H   H3918     1.0  0.40741  0.95353  0.26202  1.0000
  C   C2282     1.0  0.04025  0.74641  0.44573  1.0000
  C   C2283     1.0  0.13915  0.78406  0.43486  1.0000
  C   C2284     1.0  0.24237  0.94917  0.44192  1.0000
  H   H3919     1.0  0.23750  0.95187  0.44973  1.0000
  H   H3920     1.0  0.24467  0.83072  0.43744  1.0000
  H   H3921     1.0  0.21316  0.94443  0.44477  1.0000
  S   S658      1.0  0.03773  0.76883  0.43652  1.0000
  C   C2285     1.0  0.07696  0.77327  0.42730  1.0000
  H   H3922     1.0  0.30278  0.84445  0.31568  1.0000
  C   C2286     1.0  0.42910  0.84245  0.24037  1.0000
  H   H3923     1.0  0.06088  0.76751  0.36761  1.0000
  H   H3924     1.0  0.16142  0.74492  0.39063  1.0000
  S   S659      1.0  0.35363  0.93480  0.24563  1.0000
  C   C2287     1.0  0.31584  0.83041  0.30995  1.0000
  H   H3925     1.0  0.15333  0.83903  0.46246  1.0000
  H   H3926     1.0  0.14026  0.77492  0.43781  1.0000
  H   H3927     1.0  0.34804  0.82794  0.31458  1.0000
  C   C2288     1.0  0.24234  0.97347  0.43223  1.0000
  C   C2289     1.0  0.13973  0.74969  0.35956  1.0000
  C   C2290     1.0  0.00876  0.76679  0.38066  1.0000
  H   H3928     1.0  0.47392  0.84368  0.29177  1.0000
  Fe  Fe334     1.0  0.02415  0.77116  0.40154  1.0000
  H   H3929     1.0  0.31343  0.83154  0.30192  1.0000
  C   C2291     1.0  0.13345  0.75482  0.36831  1.0000
  H   H3930     1.0  0.22550  0.86572  0.41333  1.0000
  C   C2292     1.0  0.47805  0.84896  0.29428  1.0000
  H   H3931     1.0  0.33222  0.96788  0.25610  1.0000
  C   C2293     1.0  0.07371  0.74533  0.38096  1.0000
  H   H3932     1.0  0.06428  0.78865  0.42798  1.0000
  H   H3933     1.0  0.05894  0.77649  0.43501  1.0000
  H   H3934     1.0  0.07883  0.77065  0.36260  1.0000
  S   S660      1.0  0.00698  0.77772  0.39720  1.0000
  H   H3935     1.0  0.01703  0.76861  0.37737  1.0000
  C   C2294     1.0  0.23307  0.96751  0.43277  1.0000
  H   H3936     1.0  0.13364  0.74757  0.44234  1.0000
  H   H3937     1.0  0.11076  0.76250  0.35698  1.0000
  H   H3938     1.0  0.22752  0.86466  0.42686  1.0000
  S   S661      1.0  0.03884  0.76208  0.39078  1.0000
  H   H3939     1.0  0.25361  0.95502  0.42181  1.0000
  H   H3940     1.0  0.22328  0.85356  0.42369  1.0000
  H   H3941     1.0  0.37221  0.84923  0.24181  1.0000
  H   H3942     1.0  0.06356  0.75729  0.35941  1.0000
  C   C2295     1.0  0.22864  0.85981  0.42052  1.0000
  H   H3943     1.0  0.24574  0.86117  0.41260  1.0000
  H   H3944     1.0  0.24692  0.94504  0.42068  1.0000
  H   H3945     1.0  0.08359  0.75754  0.37774  1.0000
  C   C2296     1.0  0.24103  0.85437  0.41653  1.0000
  C   C2297     1.0  0.10182  0.76260  0.36109  1.0000
  H   H3946     1.0  0.24116  0.85073  0.40959  1.0000
  H   H3947     1.0  0.34227  0.84266  0.31415  1.0000
  C   C2298     1.0  0.04983  0.75661  0.45220  1.0000
  C   C2299     1.0  0.06479  0.77995  0.42752  1.0000
  C   C2300     1.0  0.49332  0.86605  0.26952  1.0000
  C   C2301     1.0  0.07835  0.76445  0.35817  1.0000
  H   H3948     1.0  0.34278  0.83350  0.29747  1.0000
  H   H3949     1.0  0.19677  0.88945  0.47034  1.0000
  H   H3950     1.0  0.05161  0.76440  0.45227  1.0000
  H   H3951     1.0  0.25319  0.85087  0.44830  1.0000
  H   H3952     1.0  0.41899  0.89600  0.23950  1.0000
  H   H3953     1.0  0.25602  0.83341  0.40779  1.0000
  H   H3954     1.0  0.24953  0.86000  0.42976  1.0000
  C   C2302     1.0  0.24531  0.95378  0.42165  1.0000
  H   H3955     1.0  0.25167  0.83777  0.44725  1.0000
  C   C2303     1.0  0.25417  0.84563  0.44231  1.0000
  H   H3956     1.0  0.11881  0.75496  0.38167  1.0000
  H   H3957     1.0  0.18286  0.83520  0.46821  1.0000
  H   H3958     1.0  0.10001  0.77064  0.42000  1.0000
  H   H3959     1.0  0.26409  0.84697  0.41939  1.0000
  H   H3960     1.0  0.09165  0.75743  0.39831  1.0000
  H   H3961     1.0  0.22872  0.97219  0.42596  1.0000
  H   H3962     1.0  0.22053  0.95022  0.45083  1.0000
  H   H3963     1.0  0.33415  0.81294  0.29949  1.0000
  N   N164      1.0  0.23689  0.95539  0.43227  1.0000
  H   H3964     1.0  0.42738  0.86562  0.23298  1.0000
  H   H3965     1.0  0.31756  0.86108  0.29126  1.0000
  H   H3966     1.0  0.23679  0.83478  0.41584  1.0000
  H   H3967     1.0  0.23074  0.82657  0.42810  1.0000
  C   C2304     1.0  0.24673  0.85204  0.43384  1.0000
  N   N165      1.0  0.24665  0.84595  0.42526  1.0000
  H   H3968     1.0  0.23813  0.85442  0.43887  1.0000
  S   S662      1.0  0.05200  0.75629  0.41101  1.0000
  H   H3969     1.0  0.10141  0.76032  0.37014  1.0000
  H   H3970     1.0  0.07849  0.77218  0.43575  1.0000
  C   C2305     1.0  0.25865  0.84116  0.42022  1.0000
  C   C2306     1.0  0.26113  0.83883  0.40851  1.0000
  H   H3971     1.0  0.26005  0.84674  0.40221  1.0000
  H   H3972     1.0  0.24844  0.95864  0.40361  1.0000
  C   C2307     1.0  0.12393  0.75087  0.37507  1.0000
  C   C2308     1.0  0.33968  0.96107  0.25469  1.0000
  H   H3973     1.0  0.24566  0.82274  0.42272  1.0000
  H   H3974     1.0  0.17492  0.80130  0.46407  1.0000
  C   C2309     1.0  0.23846  0.82986  0.42394  1.0000
  H   H3975     1.0  0.27007  0.83457  0.40635  1.0000
  H   H3976     1.0  0.23206  0.84015  0.43603  1.0000
  C   C2310     1.0  0.24034  0.83682  0.43111  1.0000
  S   S663      1.0  0.02490  0.75777  0.41705  1.0000
  H   H3977     1.0  0.40230  0.81475  0.25103  1.0000
  C   C2311     1.0  0.32375  0.84746  0.30400  1.0000
  H   H3978     1.0  0.26203  0.83328  0.42575  1.0000
  H   H3979     1.0  0.26322  0.84391  0.43835  1.0000
  Fe  Fe335     1.0  0.23082  0.88042  0.47135  1.0000
  C   C2312     1.0  0.24211  0.96133  0.41081  1.0000
  H   H3980     1.0  0.41416  0.94582  0.23414  1.0000
  H   H3981     1.0  0.07064  0.76696  0.41090  1.0000
  H   H3982     1.0  0.17924  0.81993  0.44773  1.0000
  H   H3983     1.0  0.14779  0.75424  0.39214  1.0000
  H   H3984     1.0  0.22924  0.94251  0.43109  1.0000
  H   H3985     1.0  0.09145  0.74386  0.37691  1.0000
  H   H3986     1.0  0.15256  0.83230  0.44647  1.0000
  C   C2313     1.0  0.16155  0.83655  0.45683  1.0000
  C   C2314     1.0  0.16856  0.82675  0.47350  1.0000
  C   C2315     1.0  0.39382  0.97598  0.24158  1.0000
  C   C2316     1.0  0.39705  0.98621  0.23693  1.0000
  H   H3987     1.0  0.18264  0.83113  0.45086  1.0000
  H   H3988     1.0  0.24601  0.97021  0.43971  1.0000
  C   C2317     1.0  0.27841  0.88212  0.47027  1.0000
  C   C2318     1.0  0.05518  0.74658  0.45824  1.0000
  H   H3989     1.0  0.33885  0.98535  0.24279  1.0000
  C   C2319     1.0  0.12090  0.74178  0.37301  1.0000
  N   N166      1.0  0.35143  0.97162  0.23709  1.0000
  H   H3990     1.0  0.48664  0.84825  0.28897  1.0000
  H   H3991     1.0  0.27146  0.87952  0.46867  1.0000
  H   H3992     1.0  0.16119  0.81597  0.45527  1.0000
  C   C2320     1.0  0.15225  0.74543  0.39239  1.0000
  H   H3993     1.0  0.18611  0.89314  0.46256  1.0000
  C   C2321     1.0  0.43981  0.84451  0.23877  1.0000
  H   H3994     1.0  0.29312  0.86099  0.47076  1.0000
  S   S664      1.0  0.37978  0.82534  0.24190  1.0000
  H   H3995     1.0  0.23854  0.98246  0.43199  1.0000
  H   H3996     1.0  0.02216  0.74165  0.38203  1.0000
  H   H3997     1.0  0.16103  0.79936  0.46999  1.0000
  H   H3998     1.0  0.16770  0.80420  0.47771  1.0000
  C   C2322     1.0  0.13666  0.74087  0.35742  1.0000
  H   H3999     1.0  0.09428  0.74556  0.34069  1.0000
  H   H4000     1.0  0.16929  0.84439  0.47110  1.0000
  H   H4001     1.0  0.19501  0.81992  0.46108  1.0000
  C   C2323     1.0  0.30413  0.86560  0.47824  1.0000
  C   C2324     1.0  0.33129  0.97917  0.23315  1.0000
  H   H4002     1.0  0.22242  0.98893  0.39830  1.0000
  C   C2325     1.0  0.20591  0.98163  0.42856  1.0000
  C   C2326     1.0  0.18924  0.81519  0.46018  1.0000
  C   C2327     1.0  0.21791  0.98679  0.40679  1.0000
  C   C2328     1.0  0.00219  0.77018  0.39035  1.0000
  H   H4003     1.0  0.38901  0.96230  0.23875  1.0000
  H   H4004     1.0  0.15990  0.82849  0.47863  1.0000
  H   H4005     1.0  0.32450  0.98680  0.23330  1.0000
  H   H4006     1.0  0.30204  0.87464  0.47795  1.0000
  C   C2329     1.0  0.43361  0.94131  0.24037  1.0000
  H   H4007     1.0  0.18658  0.80970  0.46823  1.0000
  H   H4008     1.0  0.27412  0.86121  0.47612  1.0000
  C   C2330     1.0  0.40959  0.87045  0.23502  1.0000
  C   C2331     1.0  0.42098  0.87342  0.23364  1.0000
  N   N167      1.0  0.42686  0.95282  0.23659  1.0000
  C   C2332     1.0  0.41180  0.89678  0.23584  1.0000
  H   H4009     1.0  0.43983  0.96112  0.23603  1.0000
  C   C2333     1.0  0.29396  0.86068  0.47928  1.0000
  C   C2334     1.0  0.27938  0.87790  0.48250  1.0000
  C   C2335     1.0  0.16186  0.81673  0.46350  1.0000
  C   C2336     1.0  0.16683  0.80481  0.46919  1.0000
  H   H4010     1.0  0.01986  0.74073  0.40464  1.0000
  H   H4011     1.0  0.36521  0.97933  0.24835  1.0000
  H   H4012     1.0  0.17279  0.81893  0.47833  1.0000
  H   H4013     1.0  0.40745  0.90567  0.23465  1.0000
  C   C2337     1.0  0.36315  0.98387  0.24021  1.0000
  H   H4014     1.0  0.40244  0.87762  0.23603  1.0000
  H   H4015     1.0  0.11108  0.74690  0.40303  1.0000
  C   C2338     1.0  0.01115  0.74097  0.40417  1.0000
  H   H4016     1.0  0.00559  0.74156  0.42194  1.0000
  S   S665      1.0  0.45400  0.89551  0.23295  1.0000
  H   H4017     1.0  0.29658  0.85160  0.48265  1.0000
  H   H4018     1.0  0.42406  0.97733  0.23287  1.0000
  H   H4019     1.0  0.06677  0.73951  0.43571  1.0000
  C   C2339     1.0  0.24655  0.85242  0.59363  1.0000
  Fe  Fe336     1.0  0.21550  0.93629  0.61917  1.0000
  S   S666      1.0  0.23003  0.93493  0.60472  1.0000
  S   S667      1.0  0.21071  0.92024  0.63005  1.0000
  Fe  Fe337     1.0  0.21346  0.96139  0.61596  1.0000
  S   S668      1.0  0.22751  0.96192  0.60095  1.0000
  S   S669      1.0  0.20559  0.97795  0.62105  1.0000
  Fe  Fe338     1.0  0.22007  0.95051  0.59599  1.0000
  S   S670      1.0  0.22040  0.95312  0.57784  1.0000
  Fe  Fe339     1.0  0.23627  0.94647  0.61081  1.0000
  S   S671      1.0  0.25465  0.94457  0.60954  1.0000
  S   S672      1.0  0.20492  0.95132  0.61005  1.0000
  S   S673      1.0  0.22276  0.94647  0.62628  1.0000
  Fe  Fe340     1.0  0.24236  0.89492  0.55955  1.0000
  S   S674      1.0  0.25398  0.87841  0.55829  1.0000
  S   S675      1.0  0.22377  0.89789  0.56536  1.0000
  Fe  Fe341     1.0  0.26111  0.90716  0.55394  1.0000
  S   S676      1.0  0.27452  0.89167  0.55196  1.0000
  S   S677      1.0  0.26353  0.92447  0.55221  1.0000
  Fe  Fe342     1.0  0.26325  0.88814  0.54283  1.0000
  S   S678      1.0  0.26898  0.88341  0.52595  1.0000
  Fe  Fe343     1.0  0.26399  0.88330  0.56762  1.0000
  S   S679      1.0  0.26794  0.87178  0.58377  1.0000
  S   S680      1.0  0.25083  0.90440  0.54362  1.0000
  S   S681      1.0  0.25149  0.89901  0.56998  1.0000
  C   C2340     1.0  0.36482  0.86493  0.67192  1.0000
  H   H4020     1.0  0.44758  0.92258  0.71317  1.0000
  H   H4021     1.0  0.10531  0.76696  0.50754  1.0000
  S   S682      1.0  0.24655  0.85757  0.50489  1.0000
  H   H4022     1.0  0.45903  0.93910  0.71425  1.0000
  Fe  Fe344     1.0  0.27181  0.89825  0.65083  1.0000
  S   S683      1.0  0.29002  0.89318  0.64341  1.0000
  S   S684      1.0  0.26380  0.91483  0.65525  1.0000
  Fe  Fe345     1.0  0.26649  0.87592  0.65226  1.0000
  S   S685      1.0  0.28472  0.86856  0.64577  1.0000
  S   S686      1.0  0.25004  0.86988  0.65747  1.0000
  Fe  Fe346     1.0  0.28918  0.87758  0.65665  1.0000
  S   S687      1.0  0.30122  0.87144  0.66881  1.0000
  Fe  Fe347     1.0  0.28409  0.88488  0.63317  1.0000
  S   S688      1.0  0.28997  0.88771  0.61439  1.0000
  S   S689      1.0  0.27096  0.88311  0.66435  1.0000
  S   S690      1.0  0.26591  0.89177  0.63936  1.0000
  Fe  Fe348     1.0  0.19501  0.86900  0.62000  1.0000
  S   S691      1.0  0.21332  0.86362  0.61306  1.0000
  S   S692      1.0  0.18831  0.88771  0.61728  1.0000
  Fe  Fe349     1.0  0.19093  0.84510  0.62605  1.0000
  S   S693      1.0  0.20926  0.83818  0.62002  1.0000
  S   S694      1.0  0.18057  0.83149  0.63179  1.0000
  Fe  Fe350     1.0  0.21314  0.84986  0.62814  1.0000
  S   S695      1.0  0.22933  0.84394  0.63449  1.0000
  Fe  Fe351     1.0  0.20800  0.85248  0.60564  1.0000
  S   S696      1.0  0.21613  0.85001  0.58846  1.0000
  S   S697      1.0  0.19485  0.85565  0.63579  1.0000
  S   S698      1.0  0.18962  0.85896  0.61105  1.0000
  Fe  Fe352     1.0  0.14142  0.78123  0.61069  1.0000
  S   S699      1.0  0.13242  0.79475  0.62013  1.0000
  S   S700      1.0  0.14814  0.76365  0.61902  1.0000
  Fe  Fe353     1.0  0.13704  0.79549  0.58873  1.0000
  S   S701      1.0  0.12784  0.81022  0.59637  1.0000
  S   S702      1.0  0.13785  0.79650  0.57067  1.0000
  Fe  Fe354     1.0  0.14169  0.80594  0.60584  1.0000
  S   S703      1.0  0.14804  0.82098  0.60684  1.0000
  Fe  Fe355     1.0  0.11952  0.79785  0.60992  1.0000
  S   S704      1.0  0.10079  0.80144  0.61725  1.0000
  S   S705      1.0  0.15159  0.79206  0.59697  1.0000
  S   S706      1.0  0.12789  0.78354  0.60160  1.0000
  Fe  Fe356     1.0  0.33507  0.89839  0.69991  1.0000
  S   S707      1.0  0.32717  0.90846  0.71324  1.0000
  S   S708      1.0  0.32652  0.89911  0.68577  1.0000
  Fe  Fe357     1.0  0.35778  0.89126  0.70742  1.0000
  S   S709      1.0  0.35154  0.90068  0.72102  1.0000
  S   S710      1.0  0.37551  0.88100  0.70386  1.0000
  Fe  Fe358     1.0  0.33613  0.89387  0.72437  1.0000
  H   H4023     1.0  0.24954  0.85967  0.58761  1.0000
  Fe  Fe359     1.0  0.34333  0.91439  0.70887  1.0000
  S   S711      1.0  0.34596  0.93173  0.70708  1.0000
  S   S712      1.0  0.34287  0.88336  0.71153  1.0000
  S   S713      1.0  0.35071  0.90549  0.69474  1.0000
  Fe  Fe360     1.0  0.05534  0.77715  0.60240  1.0000
  S   S714      1.0  0.06152  0.75869  0.60735  1.0000
  S   S715      1.0  0.06840  0.78779  0.59581  1.0000
  Fe  Fe361     1.0  0.03089  0.77508  0.60635  1.0000
  S   S716      1.0  0.03534  0.75654  0.61191  1.0000
  S   S717      1.0  0.01237  0.78231  0.60699  1.0000
  Fe  Fe362     1.0  0.04633  0.75967  0.62119  1.0000
  Fe  Fe363     1.0  0.04990  0.75744  0.59756  1.0000
  H   H4024     1.0  0.08592  0.75937  0.61486  1.0000
  S   S718      1.0  0.04076  0.77828  0.61699  1.0000
  S   S719      1.0  0.04490  0.77584  0.59121  1.0000
  H   H4025     1.0  0.28080  0.91929  0.69462  1.0000
  H   H4026     1.0  0.28315  0.89044  0.67694  1.0000
  S   S720      1.0  0.11929  0.75515  0.53238  1.0000
  H   H4027     1.0  0.41694  0.86262  0.71145  1.0000
  C   C2341     1.0  0.21270  0.81002  0.64093  1.0000
  S   S721      1.0  0.14078  0.75596  0.54948  1.0000
  H   H4028     1.0  0.05493  0.77954  0.63223  1.0000
  S   S722      1.0  0.08723  0.76246  0.54353  1.0000
  H   H4029     1.0  0.22795  0.82579  0.65536  1.0000
  H   H4030     1.0  0.20705  0.81542  0.63540  1.0000
  H   H4031     1.0  0.27109  0.88100  0.48767  1.0000
  H   H4032     1.0  0.23830  0.82340  0.61079  1.0000
  H   H4033     1.0  0.37456  0.94730  0.71394  1.0000
  H   H4034     1.0  0.37887  0.88653  0.72338  1.0000
  S   S723      1.0  0.41675  0.89522  0.71155  1.0000
  H   H4035     1.0  0.38360  0.91210  0.70874  1.0000
  H   H4036     1.0  0.09375  0.74772  0.48453  1.0000
  H   H4037     1.0  0.25631  0.91874  0.58982  1.0000
  H   H4038     1.0  0.29025  0.92250  0.59852  1.0000
  C   C2342     1.0  0.27165  0.84107  0.59606  1.0000
  C   C2343     1.0  0.06295  0.74927  0.57450  1.0000
  S   S724      1.0  0.43582  0.90066  0.72810  1.0000
  H   H4039     1.0  0.42318  0.86892  0.71868  1.0000
  C   C2344     1.0  0.25205  0.84973  0.56963  1.0000
  H   H4040     1.0  0.25084  0.84636  0.61057  1.0000
  C   C2345     1.0  0.27502  0.84770  0.49030  1.0000
  H   H4041     1.0  0.22593  0.97582  0.64949  1.0000
  H   H4042     1.0  0.27868  0.97134  0.60763  1.0000
  C   C2346     1.0  0.13870  0.74557  0.63002  1.0000
  H   H4043     1.0  0.23556  0.90497  0.67901  1.0000
  N   N168      1.0  0.19162  0.83512  0.58704  1.0000
  H   H4044     1.0  0.28984  0.93571  0.58865  1.0000
  H   H4045     1.0  0.27150  0.94517  0.58503  1.0000
  C   C2347     1.0  0.28579  0.90014  0.68750  1.0000
  H   H4046     1.0  0.20985  0.83174  0.58296  1.0000
  H   H4047     1.0  0.35047  0.87423  0.65748  1.0000
  H   H4048     1.0  0.01131  0.77228  0.57300  1.0000
  C   C2348     1.0  0.01196  0.77646  0.58798  1.0000
  H   H4049     1.0  0.25995  0.92198  0.69653  1.0000
  H   H4050     1.0  0.34198  0.88800  0.65642  1.0000
  C   C2349     1.0  0.08456  0.77849  0.63814  1.0000
  H   H4051     1.0  0.07897  0.75000  0.66332  1.0000
  H   H4052     1.0  0.02033  0.77804  0.58483  1.0000
  H   H4053     1.0  0.09989  0.74118  0.50191  1.0000
  C   C2350     1.0  0.26564  0.84171  0.58688  1.0000
  C   C2351     1.0  0.42267  0.86095  0.71716  1.0000
  H   H4054     1.0  0.25978  0.96042  0.62044  1.0000
  H   H4055     1.0  0.48897  0.89167  0.71838  1.0000
  C   C2352     1.0  0.07749  0.75721  0.55495  1.0000
  H   H4056     1.0  0.26623  0.92290  0.67769  1.0000
  H   H4057     1.0  0.34332  0.86705  0.68292  1.0000
  H   H4058     1.0  0.07103  0.75957  0.50663  1.0000
  H   H4059     1.0  0.02863  0.75349  0.56806  1.0000
  C   C2353     1.0  0.28469  0.92001  0.68562  1.0000
  H   H4060     1.0  0.30214  0.91965  0.67587  1.0000
  C   C2354     1.0  0.34449  0.93617  0.71941  1.0000
  H   H4061     1.0  0.24335  0.96488  0.63489  1.0000
  H   H4062     1.0  0.01154  0.75005  0.58067  1.0000
  H   H4063     1.0  0.05538  0.76459  0.64842  1.0000
  H   H4064     1.0  0.26256  0.96873  0.60074  1.0000
  N   N169      1.0  0.14068  0.74276  0.59330  1.0000
  S   S725      1.0  0.44012  0.87455  0.72727  1.0000
  H   H4065     1.0  0.25546  0.96198  0.64049  1.0000
  S   S726      1.0  0.46750  0.88560  0.72477  1.0000
  C   C2355     1.0  0.38667  0.88502  0.70653  1.0000
  C   C2356     1.0  0.39645  0.88543  0.69828  1.0000
  C   C2357     1.0  0.40562  0.88833  0.70008  1.0000
  C   C2358     1.0  0.40534  0.89047  0.71030  1.0000
  C   C2359     1.0  0.39564  0.88982  0.71874  1.0000
  C   C2360     1.0  0.38631  0.88708  0.71686  1.0000
  H   H4066     1.0  0.39689  0.88371  0.69034  1.0000
  H   H4067     1.0  0.41298  0.88897  0.69346  1.0000
  C   C2361     1.0  0.00618  0.77787  0.59863  1.0000
  C   C2362     1.0  0.37136  0.88791  0.67429  1.0000
  C   C2363     1.0  0.08951  0.74171  0.52242  1.0000
  C   C2364     1.0  0.13856  0.78433  0.56621  1.0000
  C   C2365     1.0  0.14841  0.78005  0.55921  1.0000
  C   C2366     1.0  0.14885  0.77135  0.55428  1.0000
  C   C2367     1.0  0.13937  0.76697  0.55601  1.0000
  C   C2368     1.0  0.12945  0.77117  0.56307  1.0000
  C   C2369     1.0  0.12907  0.77980  0.56823  1.0000
  H   H4068     1.0  0.15570  0.78362  0.55742  1.0000
  H   H4069     1.0  0.15656  0.76814  0.54889  1.0000
  H   H4070     1.0  0.12216  0.76769  0.56462  1.0000
  H   H4071     1.0  0.12141  0.78315  0.57356  1.0000
  C   C2370     1.0  0.09172  0.79659  0.61220  1.0000
  C   C2371     1.0  0.09571  0.78805  0.60628  1.0000
  C   C2372     1.0  0.08829  0.78458  0.60216  1.0000
  C   C2373     1.0  0.07684  0.78964  0.60385  1.0000
  C   C2374     1.0  0.07280  0.79789  0.61012  1.0000
  C   C2375     1.0  0.08018  0.80128  0.61434  1.0000
  H   H4072     1.0  0.10451  0.78418  0.60478  1.0000
  H   H4073     1.0  0.09155  0.77819  0.59736  1.0000
  H   H4074     1.0  0.06404  0.80205  0.61125  1.0000
  H   H4075     1.0  0.07699  0.80783  0.61898  1.0000
  H   H4076     1.0  0.27489  0.98620  0.60159  1.0000
  C   C2376     1.0  0.11680  0.75817  0.63139  1.0000
  C   C2377     1.0  0.12587  0.76342  0.62686  1.0000
  C   C2378     1.0  0.13684  0.75713  0.62593  1.0000
  H   H4077     1.0  0.28967  0.92966  0.66327  1.0000
  H   H4078     1.0  0.10839  0.76313  0.63188  1.0000
  H   H4079     1.0  0.12433  0.77237  0.62413  1.0000
  H   H4080     1.0  0.28115  0.92871  0.68166  1.0000
  C   C2379     1.0  0.17148  0.82867  0.62480  1.0000
  C   C2380     1.0  0.17014  0.81767  0.62651  1.0000
  C   C2381     1.0  0.16305  0.81511  0.62113  1.0000
  C   C2382     1.0  0.15708  0.82355  0.61403  1.0000
  C   C2383     1.0  0.15830  0.83457  0.61246  1.0000
  C   C2384     1.0  0.16539  0.83711  0.61782  1.0000
  H   H4081     1.0  0.17466  0.81105  0.63199  1.0000
  H   H4082     1.0  0.16221  0.80660  0.62250  1.0000
  H   H4083     1.0  0.15374  0.84120  0.60704  1.0000
  H   H4084     1.0  0.16608  0.84565  0.61660  1.0000
  C   C2385     1.0  0.30847  0.87911  0.67332  1.0000
  C   C2386     1.0  0.31107  0.88924  0.66695  1.0000
  C   C2387     1.0  0.31671  0.89509  0.67086  1.0000
  C   C2388     1.0  0.31980  0.89099  0.68122  1.0000
  C   C2389     1.0  0.31739  0.88075  0.68752  1.0000
  C   C2390     1.0  0.31184  0.87485  0.68356  1.0000
  H   H4085     1.0  0.30877  0.89256  0.65897  1.0000
  H   H4086     1.0  0.31862  0.90292  0.66581  1.0000
  H   H4087     1.0  0.31970  0.87741  0.69550  1.0000
  H   H4088     1.0  0.30999  0.86698  0.68855  1.0000
  C   C2391     1.0  0.24437  0.86357  0.65006  1.0000
  C   C2392     1.0  0.25098  0.85840  0.64141  1.0000
  C   C2393     1.0  0.24624  0.85262  0.63650  1.0000
  C   C2394     1.0  0.23477  0.85235  0.63986  1.0000
  C   C2395     1.0  0.22809  0.85790  0.64820  1.0000
  C   C2396     1.0  0.23292  0.86329  0.65339  1.0000
  H   H4089     1.0  0.25984  0.85843  0.63883  1.0000
  H   H4090     1.0  0.25154  0.84822  0.63019  1.0000
  H   H4091     1.0  0.21930  0.85765  0.65099  1.0000
  H   H4092     1.0  0.22778  0.86705  0.66020  1.0000
  H   H4093     1.0  0.26897  0.95221  0.57190  1.0000
  C   C2397     1.0  0.22017  0.88494  0.57057  1.0000
  C   C2398     1.0  0.21214  0.88332  0.58040  1.0000
  C   C2399     1.0  0.21042  0.87259  0.58555  1.0000
  C   C2400     1.0  0.21669  0.86351  0.58084  1.0000
  C   C2401     1.0  0.22408  0.86525  0.57057  1.0000
  C   C2402     1.0  0.22591  0.87599  0.56546  1.0000
  H   H4094     1.0  0.20761  0.89024  0.58432  1.0000
  H   H4095     1.0  0.20439  0.87138  0.59329  1.0000
  H   H4096     1.0  0.22865  0.85830  0.56674  1.0000
  H   H4097     1.0  0.23180  0.87734  0.55761  1.0000
  C   C2403     1.0  0.27411  0.87617  0.59227  1.0000
  C   C2404     1.0  0.28127  0.88363  0.58769  1.0000
  C   C2405     1.0  0.28628  0.88682  0.59457  1.0000
  C   C2406     1.0  0.28389  0.88291  0.60612  1.0000
  C   C2407     1.0  0.27674  0.87542  0.61073  1.0000
  C   C2408     1.0  0.27203  0.87192  0.60381  1.0000
  H   H4098     1.0  0.28318  0.88670  0.57880  1.0000
  H   H4099     1.0  0.29206  0.89234  0.59092  1.0000
  H   H4100     1.0  0.27496  0.87222  0.61961  1.0000
  H   H4101     1.0  0.26670  0.86597  0.60746  1.0000
  C   C2409     1.0  0.26062  0.87736  0.52116  1.0000
  C   C2410     1.0  0.25805  0.86703  0.52687  1.0000
  C   C2411     1.0  0.25336  0.86127  0.52194  1.0000
  C   C2412     1.0  0.25104  0.86581  0.51131  1.0000
  C   C2413     1.0  0.25309  0.87639  0.50583  1.0000
  C   C2414     1.0  0.25802  0.88204  0.51065  1.0000
  H   H4102     1.0  0.26017  0.86324  0.53488  1.0000
  H   H4103     1.0  0.25179  0.85312  0.52627  1.0000
  H   H4104     1.0  0.25115  0.88009  0.49774  1.0000
  H   H4105     1.0  0.26002  0.89000  0.50614  1.0000
  C   C2415     1.0  0.25772  0.93702  0.62231  1.0000
  C   C2416     1.0  0.26712  0.92827  0.62263  1.0000
  C   C2417     1.0  0.26908  0.92158  0.63282  1.0000
  C   C2418     1.0  0.26187  0.92388  0.64270  1.0000
  C   C2419     1.0  0.25272  0.93292  0.64242  1.0000
  C   C2420     1.0  0.25056  0.93941  0.63219  1.0000
  H   H4106     1.0  0.27269  0.92639  0.61504  1.0000
  H   H4107     1.0  0.27616  0.91458  0.63301  1.0000
  H   H4108     1.0  0.24711  0.93467  0.65006  1.0000
  H   H4109     1.0  0.24336  0.94626  0.63195  1.0000
  C   C2421     1.0  0.20402  0.91161  0.62645  1.0000
  C   C2422     1.0  0.20282  0.90131  0.63364  1.0000
  C   C2423     1.0  0.19846  0.89373  0.63070  1.0000
  C   C2424     1.0  0.19472  0.89664  0.62078  1.0000
  C   C2425     1.0  0.19550  0.90714  0.61380  1.0000
  C   C2426     1.0  0.20030  0.91453  0.61652  1.0000
  H   H4110     1.0  0.20554  0.89904  0.64139  1.0000
  H   H4111     1.0  0.19768  0.88578  0.63625  1.0000
  H   H4112     1.0  0.19240  0.90953  0.60623  1.0000
  H   H4113     1.0  0.20102  0.92251  0.61101  1.0000
  C   C2427     1.0  0.23278  0.94540  0.57103  1.0000
  C   C2428     1.0  0.23670  0.93426  0.57576  1.0000
  C   C2429     1.0  0.24612  0.92785  0.57000  1.0000
  C   C2430     1.0  0.25180  0.93256  0.55953  1.0000
  C   C2431     1.0  0.24811  0.94383  0.55493  1.0000
  C   C2432     1.0  0.23848  0.95019  0.56058  1.0000
  H   H4114     1.0  0.23225  0.93047  0.58370  1.0000
  H   H4115     1.0  0.24905  0.91933  0.57380  1.0000
  H   H4116     1.0  0.25250  0.94756  0.54685  1.0000
  H   H4117     1.0  0.23546  0.95881  0.55686  1.0000
  Fe  Fe364     1.0  0.10392  0.75086  0.54447  1.0000
  N   N170      1.0  0.28168  0.91171  0.68113  1.0000
  H   H4118     1.0  0.08942  0.74087  0.59487  1.0000
  H   H4119     1.0  0.00980  0.75157  0.61693  1.0000
  C   C2433     1.0  0.21730  0.97649  0.63687  1.0000
  C   C2434     1.0  0.22290  0.98091  0.64222  1.0000
  H   H4120     1.0  0.28327  0.94761  0.57361  1.0000
  H   H4121     1.0  0.21600  0.96807  0.64006  1.0000
  H   H4122     1.0  0.42114  0.84441  0.72553  1.0000
  C   C2435     1.0  0.36478  0.87912  0.68193  1.0000
  H   H4123     1.0  0.23670  0.91266  0.63101  1.0000
  H   H4124     1.0  0.22290  0.81141  0.65123  1.0000
  C   C2436     1.0  0.45614  0.91915  0.71479  1.0000
  C   C2437     1.0  0.24084  0.89818  0.67484  1.0000
  H   H4125     1.0  0.28882  0.86640  0.51139  1.0000
  H   H4126     1.0  0.44907  0.95435  0.72371  1.0000
  H   H4127     1.0  0.22054  0.89337  0.67521  1.0000
  H   H4128     1.0  0.15552  0.75703  0.57681  1.0000
  H   H4129     1.0  0.30255  0.92536  0.58857  1.0000
  Fe  Fe365     1.0  0.42591  0.88955  0.72575  1.0000
  H   H4130     1.0  0.26812  0.84493  0.48874  1.0000
  H   H4131     1.0  0.16977  0.84967  0.58862  1.0000
  H   H4132     1.0  0.13653  0.75895  0.58238  1.0000
  H   H4133     1.0  0.08823  0.74570  0.52951  1.0000
  H   H4134     1.0  0.23772  0.85567  0.61003  1.0000
  C   C2438     1.0  0.08254  0.76683  0.64440  1.0000
  C   C2439     1.0  0.19551  0.82560  0.65259  1.0000
  H   H4135     1.0  0.28254  0.87841  0.50260  1.0000
  H   H4136     1.0  0.17487  0.86222  0.58468  1.0000
  H   H4137     1.0  0.08071  0.75568  0.49040  1.0000
  H   H4138     1.0  0.06764  0.74764  0.64588  1.0000
  H   H4139     1.0  0.23366  0.83812  0.60685  1.0000
  H   H4140     1.0  0.35754  0.86456  0.69992  1.0000
  C   C2440     1.0  0.07270  0.74211  0.57025  1.0000
  H   H4141     1.0  0.05256  0.76578  0.57183  1.0000
  H   H4142     1.0  0.20778  0.79564  0.66486  1.0000
  C   C2441     1.0  0.06192  0.76956  0.64669  1.0000
  C   C2442     1.0  0.35241  0.88394  0.66850  1.0000
  H   H4143     1.0  0.37691  0.88938  0.67889  1.0000
  H   H4144     1.0  0.39889  0.86456  0.72143  1.0000
  H   H4145     1.0  0.26716  0.84945  0.58067  1.0000
  C   C2443     1.0  0.21563  0.81677  0.64769  1.0000
  C   C2444     1.0  0.44033  0.93420  0.72968  1.0000
  C   C2445     1.0  0.34853  0.87076  0.68603  1.0000
  N   N171      1.0  0.07332  0.76304  0.64203  1.0000
  H   H4146     1.0  0.06774  0.76052  0.62860  1.0000
  C   C2446     1.0  0.23884  0.83066  0.60369  1.0000
  C   C2447     1.0  0.09028  0.76040  0.51102  1.0000
  H   H4147     1.0  0.40887  0.93543  0.72610  1.0000
  H   H4148     1.0  0.24412  0.90818  0.65849  1.0000
  H   H4149     1.0  0.27030  0.83464  0.58275  1.0000
  H   H4150     1.0  0.20644  0.84398  0.56572  1.0000
  H   H4151     1.0  0.08089  0.76696  0.65334  1.0000
  N   N172      1.0  0.35785  0.87472  0.67684  1.0000
  H   H4152     1.0  0.20935  0.83805  0.65134  1.0000
  C   C2448     1.0  0.18283  0.82903  0.58737  1.0000
  H   H4153     1.0  0.06177  0.77124  0.65481  1.0000
  H   H4154     1.0  0.24957  0.89747  0.67550  1.0000
  N   N173      1.0  0.20737  0.93239  0.56178  1.0000
  C   C2449     1.0  0.21621  0.93854  0.55420  1.0000
  C   C2450     1.0  0.19663  0.94101  0.56373  1.0000
  C   C2451     1.0  0.20587  0.92448  0.55570  1.0000
  C   C2452     1.0  0.21137  0.92627  0.57232  1.0000
  C   C2453     1.0  0.22770  0.93129  0.54993  1.0000
  C   C2454     1.0  0.19679  0.94972  0.56997  1.0000
  C   C2455     1.0  0.19704  0.91736  0.56166  1.0000
  C   C2456     1.0  0.20258  0.92198  0.58251  1.0000
  H   H4155     1.0  0.21317  0.94401  0.54673  1.0000
  H   H4156     1.0  0.21802  0.94421  0.55840  1.0000
  H   H4157     1.0  0.18938  0.93724  0.56837  1.0000
  H   H4158     1.0  0.19431  0.94565  0.55567  1.0000
  H   H4159     1.0  0.20376  0.92913  0.54755  1.0000
  H   H4160     1.0  0.21379  0.91834  0.55372  1.0000
  H   H4161     1.0  0.21826  0.91899  0.57077  1.0000
  H   H4162     1.0  0.21524  0.93164  0.57504  1.0000
  H   H4163     1.0  0.22730  0.92689  0.54372  1.0000
  H   H4164     1.0  0.23372  0.93679  0.54557  1.0000
  H   H4165     1.0  0.23133  0.92522  0.55672  1.0000
  H   H4166     1.0  0.18823  0.95497  0.57176  1.0000
  H   H4167     1.0  0.19924  0.94582  0.57805  1.0000
  H   H4168     1.0  0.20236  0.95546  0.56492  1.0000
  H   H4169     1.0  0.19663  0.91240  0.55592  1.0000
  H   H4170     1.0  0.18848  0.92236  0.56393  1.0000
  H   H4171     1.0  0.19954  0.91116  0.56897  1.0000
  H   H4172     1.0  0.20528  0.91282  0.58534  1.0000
  H   H4173     1.0  0.19401  0.92353  0.58119  1.0000
  H   H4174     1.0  0.20206  0.92577  0.58953  1.0000
  H   H4175     1.0  0.39958  0.92288  0.72319  1.0000
  H   H4176     1.0  0.17825  0.83952  0.57157  1.0000
  C   C2457     1.0  0.37426  0.86727  0.66167  1.0000
  H   H4177     1.0  0.49783  0.90156  0.72683  1.0000
  H   H4178     1.0  0.40783  0.87275  0.73070  1.0000
  C   C2458     1.0  0.24050  0.90070  0.66243  1.0000
  H   H4179     1.0  0.10675  0.75307  0.51553  1.0000
  C   C2459     1.0  0.48474  0.89394  0.72626  1.0000
  H   H4180     1.0  0.35386  0.94903  0.71128  1.0000
  H   H4181     1.0  0.40296  0.85003  0.72202  1.0000
  C   C2460     1.0  0.06022  0.76030  0.56872  1.0000
  C   C2461     1.0  0.06741  0.76421  0.55881  1.0000
  H   H4182     1.0  0.25040  0.86069  0.60459  1.0000
  H   H4183     1.0  0.26846  0.84850  0.59978  1.0000
  C   C2462     1.0  0.25124  0.83148  0.59914  1.0000
  C   C2463     1.0  0.01483  0.74742  0.60076  1.0000
  H   H4184     1.0  0.38206  0.86699  0.66420  1.0000
  S   S727      1.0  0.11170  0.74580  0.55940  1.0000
  H   H4185     1.0  0.20309  0.83441  0.66564  1.0000
  C   C2464     1.0  0.20080  0.80241  0.66759  1.0000
  C   C2465     1.0  0.08584  0.75755  0.62386  1.0000
  H   H4186     1.0  0.29674  0.87111  0.49789  1.0000
  C   C2466     1.0  0.28129  0.89079  0.68580  1.0000
  H   H4187     1.0  0.29629  0.90900  0.66788  1.0000
  H   H4188     1.0  0.29508  0.89768  0.68521  1.0000
  C   C2467     1.0  0.26206  0.91373  0.69426  1.0000
  H   H4189     1.0  0.28555  0.88262  0.69019  1.0000
  N   N174      1.0  0.11152  0.83238  0.62166  1.0000
  C   C2468     1.0  0.11903  0.83791  0.61155  1.0000
  C   C2469     1.0  0.10503  0.82655  0.61762  1.0000
  C   C2470     1.0  0.11896  0.82396  0.62889  1.0000
  C   C2471     1.0  0.10403  0.84130  0.62762  1.0000
  C   C2472     1.0  0.12707  0.84382  0.61381  1.0000
  C   C2473     1.0  0.09712  0.83403  0.61001  1.0000
  C   C2474     1.0  0.11395  0.81439  0.63724  1.0000
  C   C2475     1.0  0.09455  0.83789  0.63743  1.0000
  H   H4190     1.0  0.12427  0.83171  0.60649  1.0000
  H   H4191     1.0  0.11405  0.84439  0.60597  1.0000
  H   H4192     1.0  0.09980  0.82163  0.62453  1.0000
  H   H4193     1.0  0.11094  0.82027  0.61305  1.0000
  H   H4194     1.0  0.12666  0.81976  0.62367  1.0000
  H   H4195     1.0  0.12199  0.82813  0.63374  1.0000
  H   H4196     1.0  0.10908  0.84484  0.63112  1.0000
  H   H4197     1.0  0.10024  0.84863  0.62176  1.0000
  H   H4198     1.0  0.12250  0.85126  0.61728  1.0000
  H   H4199     1.0  0.13263  0.83816  0.61928  1.0000
  H   H4200     1.0  0.13264  0.84677  0.60580  1.0000
  H   H4201     1.0  0.10181  0.83767  0.60176  1.0000
  H   H4202     1.0  0.09223  0.82878  0.60846  1.0000
  H   H4203     1.0  0.09100  0.84066  0.61388  1.0000
  H   H4204     1.0  0.12007  0.80942  0.64245  1.0000
  H   H4205     1.0  0.11258  0.80854  0.63296  1.0000
  H   H4206     1.0  0.10608  0.81733  0.64291  1.0000
  H   H4207     1.0  0.09749  0.83513  0.64535  1.0000
  H   H4208     1.0  0.09086  0.83140  0.63645  1.0000
  H   H4209     1.0  0.08745  0.84520  0.63810  1.0000
  N   N175      1.0  0.09140  0.78779  0.56351  1.0000
  C   C2476     1.0  0.08893  0.79779  0.56865  1.0000
  C   C2477     1.0  0.08190  0.78897  0.55802  1.0000
  C   C2478     1.0  0.10207  0.78823  0.55473  1.0000
  C   C2479     1.0  0.09281  0.77732  0.57248  1.0000
  C   C2480     1.0  0.09820  0.79874  0.57385  1.0000
  C   C2481     1.0  0.07003  0.79076  0.56550  1.0000
  C   C2482     1.0  0.10597  0.77921  0.54780  1.0000
  C   C2483     1.0  0.08976  0.76699  0.57100  1.0000
  H   H4210     1.0  0.08705  0.80568  0.56243  1.0000
  H   H4211     1.0  0.08131  0.79780  0.57544  1.0000
  H   H4212     1.0  0.08289  0.78162  0.55453  1.0000
  H   H4213     1.0  0.08191  0.79613  0.55074  1.0000
  H   H4214     1.0  0.10127  0.79646  0.54879  1.0000
  H   H4215     1.0  0.10925  0.78751  0.55846  1.0000
  H   H4216     1.0  0.10158  0.77477  0.57372  1.0000
  H   H4217     1.0  0.08756  0.77883  0.58063  1.0000
  H   H4218     1.0  0.10124  0.79087  0.57949  1.0000
  H   H4219     1.0  0.10537  0.80142  0.56742  1.0000
  H   H4220     1.0  0.09473  0.80521  0.57891  1.0000
  H   H4221     1.0  0.06956  0.78490  0.57367  1.0000
  H   H4222     1.0  0.06717  0.79942  0.56682  1.0000
  H   H4223     1.0  0.06398  0.78945  0.56139  1.0000
  H   H4224     1.0  0.09962  0.77910  0.54341  1.0000
  H   H4225     1.0  0.10874  0.77088  0.55288  1.0000
  H   H4226     1.0  0.11348  0.78098  0.54130  1.0000
  H   H4227     1.0  0.08057  0.76791  0.57243  1.0000
  H   H4228     1.0  0.09271  0.75962  0.57728  1.0000
  H   H4229     1.0  0.09367  0.76501  0.56279  1.0000
  H   H4230     1.0  0.39528  0.89161  0.72661  1.0000
  C   C2484     1.0  0.18527  0.83074  0.66073  1.0000
  H   H4231     1.0  0.19655  0.79920  0.67624  1.0000
  H   H4232     1.0  0.17653  0.85319  0.59762  1.0000
  H   H4233     1.0  0.25417  0.91119  0.69484  1.0000
  H   H4234     1.0  0.10734  0.75582  0.50079  1.0000
  H   H4235     1.0  0.09345  0.77871  0.63731  1.0000
  H   H4236     1.0  0.26654  0.90902  0.67825  1.0000
  H   H4237     1.0  0.28839  0.85383  0.50067  1.0000
  C   C2485     1.0  0.00682  0.77323  0.58128  1.0000
  Fe  Fe366     1.0  0.24332  0.86292  0.48733  1.0000
  C   C2486     1.0  0.20524  0.81262  0.66732  1.0000
  H   H4238     1.0  0.15797  0.74235  0.59313  1.0000
  H   H4239     1.0  0.22896  0.98374  0.60507  1.0000
  C   C2487     1.0  0.08009  0.74615  0.56064  1.0000
  Fe  Fe367     1.0  0.12754  0.74853  0.54700  1.0000
  H   H4240     1.0  0.02149  0.75228  0.59841  1.0000
  S   S728      1.0  0.05462  0.74450  0.58734  1.0000
  H   H4241     1.0  0.18794  0.84981  0.57401  1.0000
  N   N176      1.0  0.25327  0.84169  0.59026  1.0000
  H   H4242     1.0  0.14719  0.74069  0.62946  1.0000
  H   H4243     1.0  0.46225  0.92363  0.70850  1.0000
  H   H4244     1.0  0.27157  0.83330  0.60252  1.0000
  H   H4245     1.0  0.07103  0.75517  0.53133  1.0000
  C   C2488     1.0  0.34537  0.88053  0.66237  1.0000
  H   H4246     1.0  0.06589  0.76758  0.52193  1.0000
  C   C2489     1.0  0.01915  0.74359  0.58223  1.0000
  H   H4247     1.0  0.35657  0.85376  0.69369  1.0000
  C   C2490     1.0  0.24970  0.84075  0.58026  1.0000
  C   C2491     1.0  0.19720  0.82102  0.60450  1.0000
  H   H4248     1.0  0.20530  0.81698  0.59982  1.0000
  H   H4249     1.0  0.19853  0.82091  0.61276  1.0000
  H   H4250     1.0  0.19080  0.81601  0.60610  1.0000
  N   N177      1.0  0.22917  0.90244  0.65980  1.0000
  C   C2492     1.0  0.34947  0.94487  0.71913  1.0000
  C   C2493     1.0  0.23117  0.90298  0.64752  1.0000
  C   C2494     1.0  0.22413  0.89255  0.66644  1.0000
  C   C2495     1.0  0.22207  0.91311  0.66305  1.0000
  H   H4251     1.0  0.22222  0.83661  0.66284  1.0000
  C   C2496     1.0  0.23630  0.91276  0.63975  1.0000
  C   C2497     1.0  0.21497  0.89004  0.66224  1.0000
  C   C2498     1.0  0.21038  0.91722  0.66020  1.0000
  C   C2499     1.0  0.07454  0.76373  0.62983  1.0000
  C   C2500     1.0  0.20500  0.83538  0.56754  1.0000
  H   H4252     1.0  0.22338  0.90352  0.64492  1.0000
  H   H4253     1.0  0.23678  0.89508  0.64546  1.0000
  H   H4254     1.0  0.23076  0.88475  0.66685  1.0000
  C   C2501     1.0  0.17666  0.85330  0.58892  1.0000
  H   H4255     1.0  0.22049  0.91227  0.67217  1.0000
  H   H4256     1.0  0.22660  0.92007  0.65965  1.0000
  C   C2502     1.0  0.22086  0.82871  0.66190  1.0000
  H   H4257     1.0  0.34462  0.86036  0.70248  1.0000
  N   N178      1.0  0.20633  0.82126  0.65663  1.0000
  H   H4258     1.0  0.23105  0.92096  0.64114  1.0000
  H   H4259     1.0  0.24500  0.91208  0.64041  1.0000
  C   C2503     1.0  0.10316  0.75882  0.50856  1.0000
  H   H4260     1.0  0.21845  0.88721  0.65429  1.0000
  H   H4261     1.0  0.20776  0.89712  0.66139  1.0000
  H   H4262     1.0  0.21165  0.88304  0.66834  1.0000
  H   H4263     1.0  0.20387  0.91418  0.66728  1.0000
  H   H4264     1.0  0.20982  0.91486  0.65277  1.0000
  H   H4265     1.0  0.20827  0.92649  0.65825  1.0000
  N   N179      1.0  0.23705  0.89356  0.60904  1.0000
  C   C2504     1.0  0.24503  0.89231  0.61640  1.0000
  C   C2505     1.0  0.22709  0.88898  0.61625  1.0000
  C   C2506     1.0  0.23317  0.90585  0.60455  1.0000
  C   C2507     1.0  0.24312  0.88746  0.59982  1.0000
  C   C2508     1.0  0.25488  0.89829  0.61121  1.0000
  C   C2509     1.0  0.22981  0.87711  0.62322  1.0000
  C   C2510     1.0  0.22488  0.90915  0.59681  1.0000
  C   C2511     1.0  0.23591  0.88339  0.59436  1.0000
  H   H4266     1.0  0.24045  0.89536  0.62412  1.0000
  H   H4267     1.0  0.24891  0.88336  0.61922  1.0000
  H   H4268     1.0  0.22097  0.88908  0.61145  1.0000
  H   H4269     1.0  0.22244  0.89435  0.62224  1.0000
  H   H4270     1.0  0.22922  0.91024  0.61155  1.0000
  H   H4271     1.0  0.24034  0.90971  0.59961  1.0000
  H   H4272     1.0  0.24834  0.89265  0.59315  1.0000
  H   H4273     1.0  0.24920  0.87988  0.60280  1.0000
  H   H4274     1.0  0.25202  0.90733  0.61107  1.0000
  H   H4275     1.0  0.26121  0.89508  0.61647  1.0000
  H   H4276     1.0  0.25914  0.89688  0.60277  1.0000
  H   H4277     1.0  0.23316  0.87710  0.63037  1.0000
  H   H4278     1.0  0.22198  0.87390  0.62673  1.0000
  H   H4279     1.0  0.23587  0.87131  0.61828  1.0000
  H   H4280     1.0  0.22101  0.91816  0.59608  1.0000
  H   H4281     1.0  0.21788  0.90475  0.59990  1.0000
  H   H4282     1.0  0.22931  0.90800  0.58831  1.0000
  H   H4283     1.0  0.23201  0.87662  0.60014  1.0000
  H   H4284     1.0  0.24143  0.87986  0.58723  1.0000
  H   H4285     1.0  0.22930  0.89002  0.59103  1.0000
  H   H4286     1.0  0.26113  0.84923  0.56610  1.0000
  H   H4287     1.0  0.21283  0.83030  0.56344  1.0000
  C   C2512     1.0  0.39955  0.85632  0.72733  1.0000
  H   H4288     1.0  0.36483  0.92572  0.72398  1.0000
  C   C2513     1.0  0.12958  0.74028  0.63448  1.0000
  H   H4289     1.0  0.20407  0.82129  0.58124  1.0000
  C   C2514     1.0  0.17886  0.83091  0.57654  1.0000
  H   H4290     1.0  0.25535  0.93369  0.58727  1.0000
  H   H4291     1.0  0.08342  0.78064  0.62955  1.0000
  H   H4292     1.0  0.25468  0.83069  0.60643  1.0000
  H   H4293     1.0  0.21354  0.80911  0.66963  1.0000
  H   H4294     1.0  0.28062  0.84112  0.59220  1.0000
  H   H4295     1.0  0.19291  0.81910  0.65024  1.0000
  H   H4296     1.0  0.27493  0.86249  0.50375  1.0000
  H   H4297     1.0  0.25583  0.82378  0.59600  1.0000
  H   H4298     1.0  0.24380  0.96790  0.61211  1.0000
  H   H4299     1.0  0.25380  0.83252  0.57802  1.0000
  H   H4300     1.0  0.27217  0.89161  0.68930  1.0000
  H   H4301     1.0  0.17775  0.83276  0.65709  1.0000
  H   H4302     1.0  0.45856  0.91044  0.71357  1.0000
  H   H4303     1.0  0.21895  0.82372  0.64139  1.0000
  C   C2515     1.0  0.18820  0.84755  0.58292  1.0000
  N   N180      1.0  0.45245  0.92982  0.73053  1.0000
  H   H4304     1.0  0.35937  0.88315  0.68882  1.0000
  C   C2516     1.0  0.33872  0.93093  0.72955  1.0000
  H   H4305     1.0  0.19669  0.83201  0.64478  1.0000
  C   C2517     1.0  0.25087  0.96801  0.63432  1.0000
  C   C2518     1.0  0.35222  0.86186  0.69600  1.0000
  H   H4306     1.0  0.35950  0.86038  0.66994  1.0000
  H   H4307     1.0  0.04969  0.78522  0.64434  1.0000
  H   H4308     1.0  0.37676  0.88528  0.66670  1.0000
  H   H4309     1.0  0.38896  0.94567  0.71516  1.0000
  H   H4310     1.0  0.33799  0.87750  0.66802  1.0000
  H   H4311     1.0  0.08707  0.76717  0.50436  1.0000
  H   H4312     1.0  0.09066  0.76072  0.64313  1.0000
  C   C2519     1.0  0.37939  0.93498  0.72883  1.0000
  C   C2520     1.0  0.05741  0.78082  0.63939  1.0000
  C   C2521     1.0  0.07212  0.74835  0.66058  1.0000
  H   H4313     1.0  0.18615  0.83871  0.66196  1.0000
  C   C2522     1.0  0.24648  0.85368  0.60533  1.0000
  H   H4314     1.0  0.24825  0.97615  0.63682  1.0000
  H   H4315     1.0  0.00728  0.75348  0.59858  1.0000
  H   H4316     1.0  0.08708  0.74838  0.62677  1.0000
  H   H4317     1.0  0.37601  0.86081  0.65674  1.0000
  H   H4318     1.0  0.24653  0.89371  0.65895  1.0000
  H   H4319     1.0  0.06339  0.78641  0.63634  1.0000
  H   H4320     1.0  0.34696  0.89077  0.67258  1.0000
  C   C2523     1.0  0.20938  0.83104  0.65876  1.0000
  C   C2524     1.0  0.13542  0.75505  0.59132  1.0000
  N   N181      1.0  0.38185  0.92415  0.72511  1.0000
  H   H4321     1.0  0.18353  0.82486  0.66881  1.0000
  C   C2525     1.0  0.37338  0.92466  0.71860  1.0000
  H   H4322     1.0  0.27388  0.84595  0.49945  1.0000
  C   C2526     1.0  0.39382  0.92134  0.71888  1.0000
  H   H4323     1.0  0.03735  0.74336  0.57644  1.0000
  C   C2527     1.0  0.37503  0.91444  0.71368  1.0000
  C   C2528     1.0  0.38019  0.94564  0.71972  1.0000
  C   C2529     1.0  0.39669  0.92740  0.70658  1.0000
  H   H4324     1.0  0.36908  0.85854  0.67816  1.0000
  H   H4325     1.0  0.06532  0.77273  0.55434  1.0000
  H   H4326     1.0  0.37288  0.93197  0.71162  1.0000
  H   H4327     1.0  0.20007  0.81641  0.67445  1.0000
  H   H4328     1.0  0.20892  0.80298  0.64617  1.0000
  H   H4329     1.0  0.36560  0.89604  0.67205  1.0000
  C   C2530     1.0  0.41943  0.85249  0.72805  1.0000
  H   H4330     1.0  0.39643  0.91224  0.71904  1.0000
  S   S729      1.0  0.04626  0.75017  0.63866  1.0000
  H   H4331     1.0  0.19432  0.80425  0.66271  1.0000
  H   H4332     1.0  0.07913  0.78501  0.64263  1.0000
  H   H4333     1.0  0.12093  0.75664  0.60547  1.0000
  H   H4334     1.0  0.37281  0.90725  0.72025  1.0000
  H   H4335     1.0  0.36919  0.91640  0.70799  1.0000
  H   H4336     1.0  0.22052  0.80646  0.63544  1.0000
  C   C2531     1.0  0.25854  0.96861  0.62265  1.0000
  H   H4337     1.0  0.08703  0.76386  0.51867  1.0000
  H   H4338     1.0  0.40347  0.93188  0.70536  1.0000
  H   H4339     1.0  0.38968  0.93354  0.70340  1.0000
  H   H4340     1.0  0.40005  0.92120  0.70120  1.0000
  N   N182      1.0  0.27861  0.92365  0.58066  1.0000
  C   C2532     1.0  0.27716  0.91446  0.57617  1.0000
  C   C2533     1.0  0.27103  0.92326  0.59201  1.0000
  C   C2534     1.0  0.29070  0.92131  0.58158  1.0000
  C   C2535     1.0  0.27558  0.93450  0.57264  1.0000
  C   C2536     1.0  0.28587  0.91164  0.56572  1.0000
  C   C2537     1.0  0.25843  0.92542  0.59234  1.0000
  C   C2538     1.0  0.29331  0.92665  0.58979  1.0000
  C   C2539     1.0  0.27495  0.94536  0.57611  1.0000
  H   H4341     1.0  0.27730  0.90662  0.58259  1.0000
  H   H4342     1.0  0.26882  0.91645  0.57403  1.0000
  H   H4343     1.0  0.27197  0.92938  0.59618  1.0000
  H   H4344     1.0  0.27337  0.91501  0.59760  1.0000
  H   H4345     1.0  0.29387  0.91218  0.58437  1.0000
  H   H4346     1.0  0.29614  0.92383  0.57331  1.0000
  H   H4347     1.0  0.28170  0.93471  0.56456  1.0000
  H   H4348     1.0  0.26753  0.93527  0.57030  1.0000
  H   H4349     1.0  0.28336  0.90537  0.56287  1.0000
  H   H4350     1.0  0.28622  0.91897  0.55872  1.0000
  H   H4351     1.0  0.29436  0.90784  0.56744  1.0000
  H   H4352     1.0  0.25383  0.92546  0.60102  1.0000
  C   C2540     1.0  0.21315  0.98307  0.62758  1.0000
  C   C2541     1.0  0.02917  0.74938  0.57678  1.0000
  H   H4353     1.0  0.18433  0.82498  0.57135  1.0000
  H   H4354     1.0  0.28400  0.89976  0.69657  1.0000
  H   H4355     1.0  0.17017  0.82951  0.57865  1.0000
  H   H4356     1.0  0.28402  0.90697  0.66550  1.0000
  C   C2542     1.0  0.07396  0.75095  0.64782  1.0000
  C   C2543     1.0  0.06697  0.75837  0.52413  1.0000
  H   H4357     1.0  0.23853  0.89011  0.67938  1.0000
  H   H4358     1.0  0.23512  0.82926  0.59743  1.0000
  H   H4359     1.0  0.24851  0.84845  0.56315  1.0000
  H   H4360     1.0  0.37202  0.87525  0.65586  1.0000
  H   H4361     1.0  0.25923  0.98346  0.59580  1.0000
  C   C2544     1.0  0.28712  0.91235  0.66901  1.0000
  H   H4362     1.0  0.19822  0.83537  0.56367  1.0000
  H   H4363     1.0  0.19458  0.85179  0.58348  1.0000
  H   H4364     1.0  0.37095  0.87218  0.68583  1.0000
  H   H4365     1.0  0.19916  0.83802  0.59902  1.0000
  C   C2545     1.0  0.29735  0.91886  0.68457  1.0000
  H   H4366     1.0  0.27658  0.92800  0.66140  1.0000
  H   H4367     1.0  0.29858  0.92561  0.68778  1.0000
  H   H4368     1.0  0.35862  0.88801  0.66192  1.0000
  H   H4369     1.0  0.34269  0.87791  0.68939  1.0000
  C   C2546     1.0  0.19315  0.83323  0.59874  1.0000
  H   H4370     1.0  0.18524  0.83640  0.60425  1.0000
  H   H4371     1.0  0.26987  0.98536  0.62017  1.0000
  H   H4372     1.0  0.07335  0.77244  0.62501  1.0000
  C   C2547     1.0  0.28552  0.92404  0.66132  1.0000
  H   H4373     1.0  0.28950  0.92317  0.65265  1.0000
  H   H4374     1.0  0.23763  0.85382  0.59308  1.0000
  H   H4375     1.0  0.26690  0.96882  0.62355  1.0000
  H   H4376     1.0  0.15186  0.74803  0.57023  1.0000
  H   H4377     1.0  0.17532  0.83069  0.59409  1.0000
  C   C2548     1.0  0.20279  0.83047  0.58014  1.0000
  H   H4378     1.0  0.18592  0.81987  0.58977  1.0000
  H   H4379     1.0  0.24789  0.85818  0.57108  1.0000
  C   C2549     1.0  0.26915  0.91431  0.68231  1.0000
  H   H4380     1.0  0.30108  0.91087  0.68965  1.0000
  H   H4381     1.0  0.26619  0.90746  0.70058  1.0000
  H   H4382     1.0  0.22121  0.82274  0.66995  1.0000
  H   H4383     1.0  0.13976  0.75954  0.59466  1.0000
  H   H4384     1.0  0.24052  0.84120  0.58207  1.0000
  H   H4385     1.0  0.08784  0.74069  0.55772  1.0000
  C   C2550     1.0  0.15649  0.74825  0.57630  1.0000
  C   C2551     1.0  0.24319  0.97650  0.61301  1.0000
  H   H4386     1.0  0.23696  0.97747  0.62082  1.0000
  H   H4387     1.0  0.09380  0.75965  0.48909  1.0000
  H   H4388     1.0  0.43972  0.93769  0.72086  1.0000
  C   C2552     1.0  0.08959  0.75258  0.49110  1.0000
  H   H4389     1.0  0.06989  0.74612  0.51406  1.0000
  C   C2553     1.0  0.45734  0.94939  0.72531  1.0000
  C   C2554     1.0  0.01246  0.74391  0.61348  1.0000
  C   C2555     1.0  0.07345  0.75324  0.51395  1.0000
  N   N183      1.0  0.08600  0.75007  0.51246  1.0000
  C   C2556     1.0  0.12275  0.75821  0.59627  1.0000
  H   H4390     1.0  0.37747  0.95289  0.72378  1.0000
  N   N184      1.0  0.28297  0.86544  0.48627  1.0000
  H   H4391     1.0  0.33473  0.92432  0.72984  1.0000
  C   C2557     1.0  0.11861  0.74659  0.63507  1.0000
  C   C2558     1.0  0.45974  0.93765  0.72300  1.0000
  H   H4392     1.0  0.28507  0.88246  0.48374  1.0000
  C   C2559     1.0  0.28348  0.86247  0.49841  1.0000
  C   C2560     1.0  0.34903  0.94801  0.72900  1.0000
  H   H4393     1.0  0.26560  0.86460  0.48870  1.0000
  H   H4394     1.0  0.02915  0.75599  0.58087  1.0000
  H   H4395     1.0  0.09303  0.76042  0.62466  1.0000
  H   H4396     1.0  0.27931  0.97617  0.59316  1.0000
  C   C2561     1.0  0.09084  0.74485  0.50247  1.0000
  S   S730      1.0  0.10696  0.74034  0.64038  1.0000
  H   H4397     1.0  0.24203  0.98279  0.59542  1.0000
  C   C2562     1.0  0.23772  0.98470  0.60367  1.0000
  H   H4398     1.0  0.42880  0.95029  0.73082  1.0000
  H   H4399     1.0  0.14350  0.74379  0.60882  1.0000
  H   H4400     1.0  0.13208  0.74871  0.57416  1.0000
  C   C2563     1.0  0.28826  0.87010  0.50259  1.0000
  H   H4401     1.0  0.08224  0.74568  0.64489  1.0000
  H   H4402     1.0  0.06856  0.74255  0.62645  1.0000
  H   H4403     1.0  0.11974  0.76730  0.59334  1.0000
  C   C2564     1.0  0.26226  0.97685  0.60266  1.0000
  H   H4404     1.0  0.45184  0.91258  0.73213  1.0000
  H   H4405     1.0  0.05859  0.75621  0.52711  1.0000
  C   C2565     1.0  0.27411  0.86025  0.48502  1.0000
  H   H4406     1.0  0.11779  0.75396  0.59350  1.0000
  C   C2566     1.0  0.27443  0.97770  0.60143  1.0000
  H   H4407     1.0  0.30861  0.86114  0.48505  1.0000
  H   H4408     1.0  0.38146  0.86140  0.72868  1.0000
  N   N185      1.0  0.25440  0.97800  0.61366  1.0000
  H   H4409     1.0  0.43119  0.85747  0.71271  1.0000
  H   H4410     1.0  0.35297  0.95463  0.72873  1.0000
  H   H4411     1.0  0.46875  0.93384  0.72317  1.0000
  H   H4412     1.0  0.28296  0.84250  0.48663  1.0000
  C   C2567     1.0  0.45665  0.91889  0.72676  1.0000
  C   C2568     1.0  0.15303  0.74090  0.58785  1.0000
  H   H4413     1.0  0.06386  0.75286  0.66453  1.0000
  C   C2569     1.0  0.48978  0.89950  0.73105  1.0000
  H   H4414     1.0  0.46555  0.91538  0.72744  1.0000
  H   H4415     1.0  0.16552  0.74519  0.57288  1.0000
  S   S731      1.0  0.22618  0.86539  0.48386  1.0000
  C   C2570     1.0  0.25287  0.98941  0.61590  1.0000
  H   H4416     1.0  0.46368  0.95391  0.71943  1.0000
  C   C2571     1.0  0.47409  0.89164  0.73144  1.0000
  Fe  Fe368     1.0  0.44910  0.88530  0.73156  1.0000
  H   H4417     1.0  0.43586  0.92718  0.73248  1.0000
  H   H4418     1.0  0.38620  0.84681  0.73264  1.0000
  C   C2572     1.0  0.13365  0.73964  0.57734  1.0000
  H   H4419     1.0  0.13079  0.73965  0.61018  1.0000
  Fe  Fe369     1.0  0.35957  0.77204  0.86799  1.0000
  S   S732      1.0  0.35538  0.78181  0.88123  1.0000
  S   S733      1.0  0.34589  0.76711  0.86364  1.0000
  Fe  Fe370     1.0  0.38441  0.77253  0.86259  1.0000
  S   S734      1.0  0.38230  0.78205  0.87558  1.0000
  S   S735      1.0  0.40075  0.76849  0.85077  1.0000
  Fe  Fe371     1.0  0.37098  0.77055  0.88622  1.0000
  S   S736      1.0  0.37246  0.75850  0.90245  1.0000
  Fe  Fe372     1.0  0.36700  0.79236  0.86904  1.0000
  S   S737      1.0  0.36360  0.81130  0.86507  1.0000
  S   S738      1.0  0.37443  0.76019  0.87356  1.0000
  S   S739      1.0  0.36990  0.78335  0.85546  1.0000
  Fe  Fe373     1.0  0.35959  0.85270  0.80847  1.0000
  S   S740      1.0  0.37471  0.84875  0.79512  1.0000
  S   S741      1.0  0.35183  0.83811  0.81864  1.0000
  Fe  Fe374     1.0  0.36015  0.87732  0.80253  1.0000
  S   S742      1.0  0.37540  0.87534  0.78895  1.0000
  S   S743      1.0  0.35125  0.89399  0.80674  1.0000
  Fe  Fe375     1.0  0.36704  0.86436  0.78436  1.0000
  S   S744      1.0  0.36972  0.86516  0.76611  1.0000
  Fe  Fe376     1.0  0.38175  0.85988  0.80085  1.0000
  S   S745      1.0  0.39961  0.85408  0.80274  1.0000
  S   S746      1.0  0.35113  0.86746  0.79710  1.0000
  S   S747      1.0  0.36724  0.86279  0.81506  1.0000
  S   S748      1.0  0.35990  0.77001  0.94958  1.0000
  C   C2573     1.0  0.48787  0.86898  0.75200  1.0000
  Fe  Fe377     1.0  0.37893  0.95653  0.74847  1.0000
  S   S749      1.0  0.37837  0.96165  0.76401  1.0000
  H   H4420     1.0  0.39096  0.78967  0.91531  1.0000
  Fe  Fe378     1.0  0.35499  0.95385  0.75495  1.0000
  S   S750      1.0  0.35211  0.95913  0.77111  1.0000
  Fe  Fe379     1.0  0.36176  0.97244  0.76137  1.0000
  N   N186      1.0  0.40754  0.85521  0.73460  1.0000
  Fe  Fe380     1.0  0.36891  0.94803  0.77255  1.0000
  S   S751      1.0  0.37206  0.93706  0.78895  1.0000
  S   S752      1.0  0.37116  0.94181  0.75723  1.0000
  S   S753      1.0  0.44198  0.88111  0.74981  1.0000
  C   C2574     1.0  0.47370  0.90018  0.74635  1.0000
  S   S754      1.0  0.43038  0.85438  0.75487  1.0000
  C   C2575     1.0  0.48990  0.87302  0.76144  1.0000
  C   C2576     1.0  0.40241  0.93867  0.75271  1.0000
  C   C2577     1.0  0.40838  0.92841  0.75759  1.0000
  H   H4421     1.0  0.39777  0.94468  0.75773  1.0000
  H   H4422     1.0  0.40846  0.92663  0.76630  1.0000
  H   H4423     1.0  0.32011  0.89753  0.79343  1.0000
  S   S755      1.0  0.32905  0.88680  0.74226  1.0000
  H   H4424     1.0  0.36579  0.74915  0.94260  1.0000
  C   C2578     1.0  0.40481  0.75554  0.91884  1.0000
  H   H4425     1.0  0.38355  0.76742  0.92252  1.0000
  H   H4426     1.0  0.39937  0.90246  0.80328  1.0000
  C   C2579     1.0  0.42941  0.74604  0.85464  1.0000
  N   N187      1.0  0.40073  0.76780  0.91450  1.0000
  C   C2580     1.0  0.40825  0.85396  0.78951  1.0000
  C   C2581     1.0  0.41991  0.85069  0.78819  1.0000
  C   C2582     1.0  0.42676  0.85089  0.77752  1.0000
  C   C2583     1.0  0.42195  0.85455  0.76818  1.0000
  C   C2584     1.0  0.41031  0.85787  0.76954  1.0000
  C   C2585     1.0  0.40348  0.85742  0.78018  1.0000
  H   H4427     1.0  0.42364  0.84801  0.79538  1.0000
  H   H4428     1.0  0.43577  0.84823  0.77649  1.0000
  H   H4429     1.0  0.40654  0.86057  0.76243  1.0000
  H   H4430     1.0  0.39450  0.85972  0.78109  1.0000
  C   C2586     1.0  0.35751  0.90566  0.80160  1.0000
  C   C2587     1.0  0.36549  0.90685  0.79161  1.0000
  C   C2588     1.0  0.36959  0.91675  0.78737  1.0000
  C   C2589     1.0  0.36611  0.92521  0.79339  1.0000
  C   C2590     1.0  0.35840  0.92384  0.80351  1.0000
  C   C2591     1.0  0.35394  0.91423  0.80747  1.0000
  H   H4431     1.0  0.36820  0.90032  0.78699  1.0000
  H   H4432     1.0  0.37551  0.91784  0.77951  1.0000
  H   H4433     1.0  0.35574  0.93029  0.80826  1.0000
  H   H4434     1.0  0.34775  0.91338  0.81518  1.0000
  H   H4435     1.0  0.42400  0.87508  0.79307  1.0000
  C   C2592     1.0  0.34008  0.87956  0.74906  1.0000
  C   C2593     1.0  0.33807  0.87647  0.76067  1.0000
  C   C2594     1.0  0.34709  0.87187  0.76608  1.0000
  C   C2595     1.0  0.35810  0.87020  0.75984  1.0000
  C   C2596     1.0  0.36002  0.87279  0.74826  1.0000
  H   H4436     1.0  0.39501  0.87323  0.81315  1.0000
  H   H4437     1.0  0.32956  0.87792  0.76548  1.0000
  H   H4438     1.0  0.34553  0.86966  0.77504  1.0000
  Fe  Fe381     1.0  0.36831  0.75536  0.96119  1.0000
  C   C2597     1.0  0.36080  0.81881  0.85196  1.0000
  C   C2598     1.0  0.35892  0.83050  0.84933  1.0000
  C   C2599     1.0  0.35654  0.83657  0.83895  1.0000
  C   C2600     1.0  0.35584  0.83096  0.83126  1.0000
  C   C2601     1.0  0.35782  0.81932  0.83385  1.0000
  C   C2602     1.0  0.36041  0.81329  0.84407  1.0000
  H   H4439     1.0  0.35924  0.83488  0.85534  1.0000
  H   H4440     1.0  0.35495  0.84558  0.83705  1.0000
  H   H4441     1.0  0.35743  0.81495  0.82787  1.0000
  H   H4442     1.0  0.36194  0.80438  0.84587  1.0000
  C   C2603     1.0  0.41119  0.75863  0.85691  1.0000
  H   H4443     1.0  0.38618  0.92018  0.74761  1.0000
  C   C2604     1.0  0.39637  0.90415  0.79548  1.0000
  H   H4444     1.0  0.36345  0.98378  0.79434  1.0000
  H   H4445     1.0  0.38706  0.90555  0.79806  1.0000
  C   C2605     1.0  0.48872  0.76381  0.89592  1.0000
  C   C2606     1.0  0.36700  0.76200  0.91546  1.0000
  C   C2607     1.0  0.36801  0.75344  0.92486  1.0000
  C   C2608     1.0  0.36504  0.75585  0.93542  1.0000
  C   C2609     1.0  0.36135  0.76688  0.93664  1.0000
  C   C2610     1.0  0.35963  0.77544  0.92731  1.0000
  C   C2611     1.0  0.36243  0.77299  0.91668  1.0000
  H   H4446     1.0  0.40169  0.74154  0.85489  1.0000
  H   H4447     1.0  0.38526  0.93469  0.73398  1.0000
  H   H4448     1.0  0.35663  0.78399  0.92824  1.0000
  H   H4449     1.0  0.36156  0.77964  0.90944  1.0000
  C   C2612     1.0  0.41416  0.92047  0.75123  1.0000
  C   C2613     1.0  0.45412  0.92749  0.74223  1.0000
  H   H4450     1.0  0.41044  0.88714  0.76850  1.0000
  C   C2614     1.0  0.40959  0.75477  0.86844  1.0000
  H   H4451     1.0  0.39190  0.86477  0.75251  1.0000
  H   H4452     1.0  0.40516  0.82867  0.75085  1.0000
  N   N188      1.0  0.33827  0.74254  0.92223  1.0000
  H   H4453     1.0  0.33436  0.89010  0.79365  1.0000
  C   C2615     1.0  0.38470  0.78440  0.91913  1.0000
  C   C2616     1.0  0.41077  0.77534  0.92504  1.0000
  Fe  Fe382     1.0  0.43195  0.87164  0.74537  1.0000
  C   C2617     1.0  0.39713  0.74779  0.91945  1.0000
  H   H4454     1.0  0.48707  0.76460  0.88765  1.0000
  H   H4455     1.0  0.42432  0.75818  0.95383  1.0000
  N   N189      1.0  0.48825  0.74293  0.90251  1.0000
  H   H4456     1.0  0.35611  0.74855  0.87966  1.0000
  H   H4457     1.0  0.34761  0.75454  0.91094  1.0000
  H   H4458     1.0  0.35673  0.97280  0.78475  1.0000
  H   H4459     1.0  0.37138  0.74490  0.92398  1.0000
  S   S756      1.0  0.36297  0.96825  0.74497  1.0000
  C   C2618     1.0  0.48416  0.90282  0.74101  1.0000
  H   H4460     1.0  0.32344  0.81483  0.85792  1.0000
  N   N190      1.0  0.33982  0.90732  0.77109  1.0000
  C   C2619     1.0  0.34258  0.91871  0.76683  1.0000
  C   C2620     1.0  0.33370  0.90570  0.76325  1.0000
  C   C2621     1.0  0.35026  0.89825  0.77157  1.0000
  C   C2622     1.0  0.33272  0.90672  0.78267  1.0000
  C   C2623     1.0  0.35036  0.92140  0.77265  1.0000
  C   C2624     1.0  0.32147  0.91225  0.76398  1.0000
  C   C2625     1.0  0.35889  0.89796  0.76050  1.0000
  H   H4461     1.0  0.41717  0.83066  0.74007  1.0000
  H   H4462     1.0  0.34658  0.92004  0.75784  1.0000
  H   H4463     1.0  0.33481  0.92536  0.76750  1.0000
  H   H4464     1.0  0.33364  0.89680  0.76436  1.0000
  H   H4465     1.0  0.33816  0.90805  0.75445  1.0000
  H   H4466     1.0  0.35455  0.89871  0.77788  1.0000
  H   H4467     1.0  0.34809  0.88990  0.77447  1.0000
  H   H4468     1.0  0.33745  0.90770  0.78837  1.0000
  H   H4469     1.0  0.32536  0.91385  0.78307  1.0000
  H   H4470     1.0  0.34693  0.92080  0.78166  1.0000
  H   H4471     1.0  0.49700  0.75189  0.90833  1.0000
  H   H4472     1.0  0.35127  0.93015  0.76915  1.0000
  H   H4473     1.0  0.31831  0.91121  0.75712  1.0000
  H   H4474     1.0  0.31594  0.90897  0.77185  1.0000
  H   H4475     1.0  0.32068  0.92130  0.76308  1.0000
  H   H4476     1.0  0.35541  0.89626  0.75421  1.0000
  H   H4477     1.0  0.41089  0.76651  0.97537  1.0000
  H   H4478     1.0  0.36208  0.90572  0.75716  1.0000
  H   H4479     1.0  0.33867  0.79123  0.82977  1.0000
  H   H4480     1.0  0.36891  0.94951  0.81208  1.0000
  H   H4481     1.0  0.48027  0.75532  0.92028  1.0000
  H   H4482     1.0  0.46058  0.89269  0.74575  1.0000
  C   C2626     1.0  0.42009  0.88008  0.78599  1.0000
  C   C2627     1.0  0.39454  0.87064  0.74471  1.0000
  H   H4483     1.0  0.40076  0.90500  0.77346  1.0000
  H   H4484     1.0  0.38969  0.74874  0.92631  1.0000
  C   C2628     1.0  0.35930  0.97683  0.79942  1.0000
  H   H4485     1.0  0.42238  0.75722  0.84115  1.0000
  H   H4486     1.0  0.43702  0.74263  0.84926  1.0000
  H   H4487     1.0  0.41249  0.84562  0.74991  1.0000
  C   C2629     1.0  0.32452  0.80826  0.83961  1.0000
  H   H4488     1.0  0.37082  0.93642  0.73421  1.0000
  H   H4489     1.0  0.33375  0.80870  0.87178  1.0000
  C   C2630     1.0  0.40613  0.86599  0.73801  1.0000
  H   H4490     1.0  0.37219  0.96005  0.78805  1.0000
  H   H4491     1.0  0.33706  0.81454  0.85014  1.0000
  H   H4492     1.0  0.38678  0.97755  0.80987  1.0000
  H   H4493     1.0  0.31340  0.80159  0.86993  1.0000
  Fe  Fe383     1.0  0.42808  0.89574  0.74612  1.0000
  C   C2631     1.0  0.34189  0.78678  0.83736  1.0000
  C   C2632     1.0  0.37999  0.97879  0.80544  1.0000
  H   H4494     1.0  0.42665  0.93983  0.74301  1.0000
  S   S757      1.0  0.48944  0.91096  0.74669  1.0000
  H   H4495     1.0  0.46816  0.74946  0.92613  1.0000
  H   H4496     1.0  0.38481  0.85568  0.74194  1.0000
  C   C2633     1.0  0.41418  0.92294  0.73990  1.0000
  H   H4497     1.0  0.39441  0.91915  0.78207  1.0000
  S   S758      1.0  0.37682  0.75704  0.97375  1.0000
  H   H4498     1.0  0.43562  0.75927  0.93458  1.0000
  H   H4499     1.0  0.35889  0.91612  0.77110  1.0000
  N   N191      1.0  0.33011  0.80128  0.84897  1.0000
  H   H4500     1.0  0.35933  0.95387  0.80325  1.0000
  H   H4501     1.0  0.34828  0.74842  0.92981  1.0000
  S   S759      1.0  0.41715  0.88590  0.74360  1.0000
  H   H4502     1.0  0.45251  0.93519  0.74531  1.0000
  H   H4503     1.0  0.32758  0.78639  0.86174  1.0000
  H   H4504     1.0  0.42709  0.88098  0.77861  1.0000
  H   H4505     1.0  0.32815  0.89110  0.78230  1.0000
  S   S760      1.0  0.43647  0.74828  0.91761  1.0000
  H   H4506     1.0  0.32042  0.76682  0.92905  1.0000
  C   C2634     1.0  0.33424  0.75089  0.86808  1.0000
  C   C2635     1.0  0.34465  0.74110  0.93106  1.0000
  H   H4507     1.0  0.41508  0.87511  0.78436  1.0000
  C   C2636     1.0  0.42362  0.75295  0.94878  1.0000
  C   C2637     1.0  0.39003  0.77187  0.92223  1.0000
  H   H4508     1.0  0.41842  0.91683  0.73497  1.0000
  S   S761      1.0  0.35929  0.74244  0.97310  1.0000
  C   C2638     1.0  0.40638  0.84605  0.74489  1.0000
  H   H4509     1.0  0.47124  0.75269  0.90600  1.0000
  C   C2639     1.0  0.43004  0.75352  0.93795  1.0000
  C   C2640     1.0  0.46871  0.89454  0.74164  1.0000
  C   C2641     1.0  0.32290  0.79323  0.85615  1.0000
  C   C2642     1.0  0.40979  0.77370  0.91387  1.0000
  H   H4510     1.0  0.36738  0.97173  0.81782  1.0000
  H   H4511     1.0  0.49522  0.89364  0.76580  1.0000
  C   C2643     1.0  0.37616  0.96357  0.79267  1.0000
  H   H4512     1.0  0.37426  0.98701  0.80608  1.0000
  C   C2644     1.0  0.32822  0.76278  0.92390  1.0000
  C   C2645     1.0  0.38004  0.91511  0.73544  1.0000
  C   C2646     1.0  0.40870  0.93344  0.73489  1.0000
  H   H4513     1.0  0.33507  0.76296  0.92761  1.0000
  H   H4514     1.0  0.40386  0.78201  0.92804  1.0000
  C   C2647     1.0  0.39918  0.91543  0.78876  1.0000
  C   C2648     1.0  0.42789  0.74212  0.86614  1.0000
  C   C2649     1.0  0.41372  0.89177  0.78813  1.0000
  C   C2650     1.0  0.34313  0.94283  0.73913  1.0000
  H   H4515     1.0  0.41243  0.86511  0.74293  1.0000
  H   H4516     1.0  0.34609  0.98351  0.79010  1.0000
  H   H4517     1.0  0.46936  0.90264  0.75412  1.0000
  H   H4518     1.0  0.40766  0.87832  0.80856  1.0000
  H   H4519     1.0  0.32290  0.75205  0.91721  1.0000
  H   H4520     1.0  0.33351  0.82218  0.83358  1.0000
  H   H4521     1.0  0.40581  0.76802  0.88616  1.0000
  H   H4522     1.0  0.32137  0.74786  0.93159  1.0000
  H   H4523     1.0  0.49649  0.89009  0.77994  1.0000
  H   H4524     1.0  0.37864  0.97103  0.78669  1.0000
  H   H4525     1.0  0.34638  0.96936  0.79725  1.0000
  H   H4526     1.0  0.39194  0.95295  0.78657  1.0000
  H   H4527     1.0  0.41602  0.76717  0.89377  1.0000
  H   H4528     1.0  0.39633  0.77912  0.89960  1.0000
  H   H4529     1.0  0.47868  0.87006  0.75296  1.0000
  H   H4530     1.0  0.38530  0.94706  0.80023  1.0000
  H   H4531     1.0  0.40876  0.78204  0.90818  1.0000
  H   H4532     1.0  0.41080  0.76761  0.93155  1.0000
  H   H4533     1.0  0.40829  0.91478  0.78527  1.0000
  H   H4534     1.0  0.36619  0.89102  0.76193  1.0000
  H   H4535     1.0  0.40594  0.75413  0.92743  1.0000
  H   H4536     1.0  0.44836  0.91940  0.75937  1.0000
  H   H4537     1.0  0.38477  0.78834  0.98254  1.0000
  H   H4538     1.0  0.37936  0.98320  0.76790  1.0000
  C   C2651     1.0  0.38701  0.95500  0.79464  1.0000
  C   C2652     1.0  0.47695  0.74546  0.91015  1.0000
  C   C2653     1.0  0.34307  0.75385  0.87035  1.0000
  H   H4539     1.0  0.48541  0.88191  0.76038  1.0000
  H   H4540     1.0  0.41878  0.77791  0.92391  1.0000
  S   S762      1.0  0.34184  0.94679  0.75170  1.0000
  H   H4541     1.0  0.37973  0.78733  0.92679  1.0000
  H   H4542     1.0  0.41818  0.76906  0.91018  1.0000
  H   H4543     1.0  0.39812  0.84768  0.75060  1.0000
  H   H4544     1.0  0.32941  0.76792  0.91531  1.0000
  H   H4545     1.0  0.36846  0.87144  0.74338  1.0000
  C   C2654     1.0  0.40124  0.88888  0.77166  1.0000
  H   H4546     1.0  0.39652  0.92145  0.79432  1.0000
  H   H4547     1.0  0.39831  0.88108  0.77590  1.0000
  C   C2655     1.0  0.39852  0.88075  0.80889  1.0000
  H   H4548     1.0  0.40921  0.75568  0.89628  1.0000
  N   N192      1.0  0.40111  0.89438  0.78982  1.0000
  H   H4549     1.0  0.41322  0.75237  0.91393  1.0000
  C   C2656     1.0  0.39839  0.77000  0.90310  1.0000
  H   H4550     1.0  0.41620  0.89264  0.79551  1.0000
  H   H4551     1.0  0.40187  0.75805  0.87375  1.0000
  S   S763      1.0  0.42144  0.90763  0.75754  1.0000
  C   C2657     1.0  0.36258  0.95679  0.80897  1.0000
  C   C2658     1.0  0.40801  0.76487  0.89444  1.0000
  H   H4552     1.0  0.41666  0.74344  0.88191  1.0000
  H   H4553     1.0  0.39089  0.76966  0.93103  1.0000
  H   H4554     1.0  0.39447  0.88697  0.81414  1.0000
  C   C2659     1.0  0.39752  0.89765  0.77888  1.0000
  H   H4555     1.0  0.39816  0.87756  0.79345  1.0000
  C   C2660     1.0  0.39586  0.88491  0.79722  1.0000
  H   H4556     1.0  0.41731  0.89802  0.78111  1.0000
  C   C2661     1.0  0.41608  0.74582  0.95298  1.0000
  H   H4557     1.0  0.39079  0.76707  0.90343  1.0000
  C   C2662     1.0  0.40263  0.94121  0.74135  1.0000
  H   H4558     1.0  0.37911  0.78591  0.91331  1.0000
  H   H4559     1.0  0.35076  0.78256  0.83465  1.0000
  C   C2663     1.0  0.33657  0.80317  0.86575  1.0000
  H   H4560     1.0  0.38129  0.90695  0.73326  1.0000
  C   C2664     1.0  0.33140  0.81592  0.83040  1.0000
  H   H4561     1.0  0.47989  0.74961  0.88868  1.0000
  H   H4562     1.0  0.33393  0.79529  0.87030  1.0000
  H   H4563     1.0  0.39238  0.95838  0.79786  1.0000
  C   C2665     1.0  0.34154  0.79473  0.84466  1.0000
  H   H4564     1.0  0.39749  0.89231  0.76423  1.0000
  H   H4565     1.0  0.30702  0.79177  0.86771  1.0000
  H   H4566     1.0  0.32203  0.80293  0.83550  1.0000
  H   H4567     1.0  0.38824  0.90013  0.78026  1.0000
  C   C2666     1.0  0.38958  0.77966  0.98250  1.0000
  H   H4568     1.0  0.34550  0.78954  0.85165  1.0000
  C   C2667     1.0  0.49423  0.88721  0.77355  1.0000
  H   H4569     1.0  0.34733  0.80034  0.83989  1.0000
  H   H4570     1.0  0.32629  0.82069  0.82416  1.0000
  H   H4571     1.0  0.32054  0.78885  0.85098  1.0000
  C   C2668     1.0  0.33144  0.80892  0.85544  1.0000
  H   H4572     1.0  0.34585  0.80138  0.86338  1.0000
  H   H4573     1.0  0.38655  0.88736  0.79839  1.0000
  H   H4574     1.0  0.44911  0.91125  0.74986  1.0000
  H   H4575     1.0  0.30650  0.80507  0.85837  1.0000
  C   C2669     1.0  0.35176  0.97537  0.79253  1.0000
  H   H4576     1.0  0.33731  0.78008  0.84206  1.0000
  C   C2670     1.0  0.31185  0.79837  0.86339  1.0000
  C   C2671     1.0  0.43329  0.94319  0.73634  1.0000
  H   H4577     1.0  0.33914  0.81116  0.82587  1.0000
  H   H4578     1.0  0.31655  0.81380  0.84284  1.0000
  N   N193      1.0  0.39494  0.81749  0.82462  1.0000
  C   C2672     1.0  0.38813  0.81256  0.81993  1.0000
  C   C2673     1.0  0.40069  0.80806  0.83258  1.0000
  C   C2674     1.0  0.40362  0.82202  0.81506  1.0000
  C   C2675     1.0  0.38720  0.82669  0.83008  1.0000
  C   C2676     1.0  0.38214  0.82057  0.81088  1.0000
  C   C2677     1.0  0.39284  0.80181  0.84225  1.0000
  C   C2678     1.0  0.41198  0.82701  0.81793  1.0000
  C   C2679     1.0  0.39092  0.82962  0.83929  1.0000
  H   H4579     1.0  0.39346  0.80528  0.81641  1.0000
  H   H4580     1.0  0.38139  0.80927  0.82657  1.0000
  H   H4581     1.0  0.40603  0.81084  0.83636  1.0000
  H   H4582     1.0  0.40661  0.80172  0.82805  1.0000
  H   H4583     1.0  0.40862  0.81541  0.81043  1.0000
  H   H4584     1.0  0.39957  0.82886  0.80898  1.0000
  H   H4585     1.0  0.38539  0.83452  0.82376  1.0000
  H   H4586     1.0  0.37899  0.82439  0.83408  1.0000
  H   H4587     1.0  0.37622  0.81648  0.80925  1.0000
  H   H4588     1.0  0.37708  0.82834  0.81350  1.0000
  H   H4589     1.0  0.38811  0.82259  0.80289  1.0000
  H   H4590     1.0  0.38960  0.79604  0.83942  1.0000
  H   H4591     1.0  0.39765  0.79653  0.84859  1.0000
  H   H4592     1.0  0.38571  0.80753  0.84642  1.0000
  H   H4593     1.0  0.40771  0.83473  0.82103  1.0000
  H   H4594     1.0  0.41808  0.82955  0.81018  1.0000
  H   H4595     1.0  0.41691  0.82098  0.82377  1.0000
  H   H4596     1.0  0.38799  0.83874  0.83887  1.0000
  H   H4597     1.0  0.40005  0.82772  0.83875  1.0000
  H   H4598     1.0  0.38665  0.82563  0.84763  1.0000
  N   N194      1.0  0.36792  0.96661  0.80291  1.0000
  H   H4599     1.0  0.34582  0.96547  0.81681  1.0000
  C   C2680     1.0  0.35104  0.87737  0.74289  1.0000
  H   H4600     1.0  0.43780  0.92319  0.75146  1.0000
  C   C2681     1.0  0.37363  0.96919  0.81050  1.0000
  H   H4601     1.0  0.39454  0.74895  0.91156  1.0000
  H   H4602     1.0  0.46308  0.92363  0.74252  1.0000
  C   C2682     1.0  0.32868  0.89571  0.78824  1.0000
  H   H4603     1.0  0.35377  0.98009  0.80673  1.0000
  S   S764      1.0  0.39456  0.95369  0.73546  1.0000
  C   C2683     1.0  0.47695  0.74783  0.92134  1.0000
  H   H4604     1.0  0.38585  0.90584  0.75049  1.0000
  H   H4605     1.0  0.33284  0.93073  0.74698  1.0000
  C   C2684     1.0  0.32736  0.75091  0.92394  1.0000
  H   H4606     1.0  0.49432  0.76955  0.89485  1.0000
  H   H4607     1.0  0.40340  0.83407  0.73687  1.0000
  H   H4608     1.0  0.37935  0.96166  0.81424  1.0000
  H   H4609     1.0  0.34048  0.74894  0.90441  1.0000
  H   H4610     1.0  0.39673  0.91078  0.73974  1.0000
  H   H4611     1.0  0.37121  0.91690  0.74019  1.0000
  C   C2685     1.0  0.35291  0.95866  0.81906  1.0000
  C   C2686     1.0  0.42113  0.75430  0.85005  1.0000
  H   H4612     1.0  0.32940  0.75665  0.86232  1.0000
  C   C2687     1.0  0.44688  0.91990  0.75108  1.0000
  C   C2688     1.0  0.33778  0.93447  0.73929  1.0000
  H   H4613     1.0  0.34954  0.95095  0.82250  1.0000
  H   H4614     1.0  0.38426  0.97909  0.79665  1.0000
  H   H4615     1.0  0.35579  0.96021  0.82582  1.0000
  H   H4616     1.0  0.33130  0.74634  0.94495  1.0000
  C   C2689     1.0  0.42912  0.74678  0.93141  1.0000
  H   H4617     1.0  0.38807  0.87326  0.73967  1.0000
  C   C2690     1.0  0.41797  0.74653  0.87306  1.0000
  C   C2691     1.0  0.40814  0.83425  0.74288  1.0000
  H   H4618     1.0  0.49074  0.87417  0.74377  1.0000
  H   H4619     1.0  0.39491  0.87823  0.74714  1.0000
  H   H4620     1.0  0.43803  0.94667  0.74013  1.0000
  H   H4621     1.0  0.48528  0.88669  0.77648  1.0000
  C   C2692     1.0  0.38746  0.85490  0.73319  1.0000
  C   C2693     1.0  0.38772  0.91303  0.74365  1.0000
  H   H4622     1.0  0.48082  0.76670  0.90165  1.0000
  C   C2694     1.0  0.34931  0.74629  0.87783  1.0000
  H   H4623     1.0  0.48534  0.86855  0.76940  1.0000
  C   C2695     1.0  0.34530  0.74667  0.91107  1.0000
  H   H4624     1.0  0.39177  0.74254  0.88261  1.0000
  S   S765      1.0  0.40816  0.74520  0.96649  1.0000
  C   C2696     1.0  0.49468  0.75186  0.90057  1.0000
  H   H4625     1.0  0.35265  0.87916  0.73395  1.0000
  H   H4626     1.0  0.39547  0.77976  0.97434  1.0000
  H   H4627     1.0  0.49401  0.74295  0.88487  1.0000
  S   S766      1.0  0.38308  0.74328  0.95383  1.0000
  H   H4628     1.0  0.44741  0.74378  0.95177  1.0000
  H   H4629     1.0  0.49153  0.86004  0.75217  1.0000
  Fe  Fe384     1.0  0.39067  0.74360  0.96755  1.0000
  H   H4630     1.0  0.42289  0.74943  0.97830  1.0000
  H   H4631     1.0  0.45814  0.94932  0.73372  1.0000
  H   H4632     1.0  0.36072  0.74254  0.89907  1.0000
  H   H4633     1.0  0.43137  0.75815  0.97937  1.0000
  C   C2697     1.0  0.48636  0.74232  0.89157  1.0000
  H   H4634     1.0  0.42557  0.85146  0.73325  1.0000
  C   C2698     1.0  0.33161  0.74048  0.87320  1.0000
  H   H4635     1.0  0.48161  0.74062  0.92654  1.0000
  H   H4636     1.0  0.41667  0.77263  0.98253  1.0000
  H   H4637     1.0  0.59913  0.15529  0.15047  1.0000
  C   C2699     1.0  0.65946  0.15233  0.17476  1.0000
  S   S767      1.0  0.61650  0.20902  0.06135  1.0000
  H   H4638     1.0  0.62949  0.22739  0.09716  1.0000
  H   H4639     1.0  0.65850  0.23075  0.11737  1.0000
  H   H4640     1.0  0.59672  0.15608  0.18226  1.0000
  S   S768      1.0  0.61210  0.12229  0.20747  1.0000
  Fe  Fe385     1.0  0.62196  0.11161  0.22024  1.0000
  S   S769      1.0  0.63467  0.09543  0.21950  1.0000
  Fe  Fe386     1.0  0.61479  0.13677  0.21256  1.0000
  S   S770      1.0  0.61800  0.15351  0.20222  1.0000
  H   H4641     1.0  0.66465  0.12558  0.17822  1.0000
  Fe  Fe387     1.0  0.62832  0.18364  0.14036  1.0000
  S   S771      1.0  0.61367  0.19622  0.14711  1.0000
  S   S772      1.0  0.63289  0.16589  0.14995  1.0000
  Fe  Fe388     1.0  0.63199  0.19845  0.11710  1.0000
  S   S773      1.0  0.61744  0.21185  0.12203  1.0000
  S   S774      1.0  0.64195  0.20275  0.09961  1.0000
  Fe  Fe389     1.0  0.62402  0.20884  0.13727  1.0000
  S   S775      1.0  0.62275  0.22474  0.14241  1.0000
  Fe  Fe390     1.0  0.60848  0.19821  0.13123  1.0000
  S   S776      1.0  0.59085  0.19949  0.13018  1.0000
  S   S777      1.0  0.63934  0.19611  0.13192  1.0000
  S   S778      1.0  0.62238  0.18489  0.12495  1.0000
  C   C2700     1.0  0.65025  0.23465  0.12133  1.0000
  C   C2701     1.0  0.61998  0.22151  0.98549  1.0000
  C   C2702     1.0  0.56485  0.22584  0.13276  1.0000
  H   H4642     1.0  0.60303  0.16700  0.17332  1.0000
  C   C2703     1.0  0.62070  0.15705  0.18764  1.0000
  C   C2704     1.0  0.62257  0.14910  0.18131  1.0000
  C   C2705     1.0  0.62626  0.15191  0.16972  1.0000
  C   C2706     1.0  0.62764  0.16278  0.16438  1.0000
  C   C2707     1.0  0.62526  0.17085  0.17067  1.0000
  C   C2708     1.0  0.62193  0.16794  0.18228  1.0000
  H   H4643     1.0  0.62154  0.14072  0.18538  1.0000
  H   H4644     1.0  0.62807  0.14566  0.16486  1.0000
  H   H4645     1.0  0.62636  0.17922  0.16664  1.0000
  H   H4646     1.0  0.62052  0.17412  0.18714  1.0000
  H   H4647     1.0  0.62182  0.03515  0.19270  1.0000
  H   H4648     1.0  0.52096  0.08303  0.22707  1.0000
  C   C2709     1.0  0.62282  0.02386  0.22022  1.0000
  C   C2710     1.0  0.62575  0.03236  0.20005  1.0000
  H   H4649     1.0  0.51955  0.09766  0.22152  1.0000
  C   C2711     1.0  0.62380  0.20698  0.07188  1.0000
  C   C2712     1.0  0.62080  0.19994  0.08219  1.0000
  C   C2713     1.0  0.62620  0.19873  0.09083  1.0000
  C   C2714     1.0  0.63494  0.20418  0.08902  1.0000
  C   C2715     1.0  0.63812  0.21098  0.07860  1.0000
  C   C2716     1.0  0.63243  0.21255  0.07013  1.0000
  H   H4650     1.0  0.61410  0.19565  0.08361  1.0000
  H   H4651     1.0  0.62371  0.19346  0.09883  1.0000
  H   H4652     1.0  0.64490  0.21518  0.07710  1.0000
  H   H4653     1.0  0.63481  0.21799  0.06221  1.0000
  C   C2717     1.0  0.61452  0.22140  0.00823  1.0000
  C   C2718     1.0  0.60921  0.21567  0.00390  1.0000
  H   H4654     1.0  0.61056  0.22034  0.10051  1.0000
  H   H4655     1.0  0.59218  0.22415  0.11012  1.0000
  H   H4656     1.0  0.60291  0.21126  0.00937  1.0000
  C   C2719     1.0  0.58198  0.21171  0.13382  1.0000
  C   C2720     1.0  0.58510  0.21754  0.13989  1.0000
  C   C2721     1.0  0.61819  0.06586  0.22537  1.0000
  H   H4657     1.0  0.60140  0.01988  0.20255  1.0000
  H   H4658     1.0  0.67746  0.13775  0.17977  1.0000
  C   C2722     1.0  0.57177  0.21577  0.13041  1.0000
  H   H4659     1.0  0.59299  0.21445  0.14252  1.0000
  H   H4660     1.0  0.61264  0.15863  0.14556  1.0000
  H   H4661     1.0  0.56935  0.21130  0.12568  1.0000
  H   H4662     1.0  0.59108  0.17022  0.18418  1.0000
  H   H4663     1.0  0.63723  0.01510  0.22757  1.0000
  C   C2723     1.0  0.57802  0.22746  0.14250  1.0000
  H   H4664     1.0  0.63506  0.00809  0.21837  1.0000
  H   H4665     1.0  0.68419  0.23161  0.07328  1.0000
  H   H4666     1.0  0.67844  0.12868  0.19320  1.0000
  H   H4667     1.0  0.64952  0.15129  0.21047  1.0000
  H   H4668     1.0  0.66270  0.21823  0.09590  1.0000
  C   C2724     1.0  0.64293  0.12241  0.18859  1.0000
  H   H4669     1.0  0.65456  0.16045  0.17097  1.0000
  C   C2725     1.0  0.60005  0.17204  0.15197  1.0000
  H   H4670     1.0  0.61139  0.00864  0.19741  1.0000
  N   N195      1.0  0.61825  0.02653  0.20991  1.0000
  H   H4671     1.0  0.58051  0.23194  0.14714  1.0000
  H   H4672     1.0  0.65912  0.13271  0.20626  1.0000
  S   S779      1.0  0.60545  0.20793  0.98748  1.0000
  S   S780      1.0  0.62615  0.12604  0.22399  1.0000
  C   C2726     1.0  0.61226  0.07680  0.22225  1.0000
  C   C2727     1.0  0.63474  0.01647  0.21956  1.0000
  C   C2728     1.0  0.60954  0.22683  0.09283  1.0000
  H   H4673     1.0  0.61310  0.02259  0.19110  1.0000
  H   H4674     1.0  0.60379  0.07826  0.22110  1.0000
  H   H4675     1.0  0.61218  0.22156  0.01693  1.0000
  H   H4676     1.0  0.63353  0.04075  0.20814  1.0000
  S   S781      1.0  0.58102  0.11916  0.22203  1.0000
  H   H4677     1.0  0.61222  0.23334  0.11055  1.0000
  C   C2729     1.0  0.62288  0.22686  0.00128  1.0000
  C   C2730     1.0  0.58854  0.18622  0.16200  1.0000
  H   H4678     1.0  0.66392  0.14393  0.19634  1.0000
  C   C2731     1.0  0.65137  0.14448  0.18096  1.0000
  C   C2732     1.0  0.59773  0.02936  0.22118  1.0000
  C   C2733     1.0  0.64680  0.14812  0.20459  1.0000
  H   H4679     1.0  0.61800  0.22541  0.08732  1.0000
  H   H4680     1.0  0.59286  0.22809  0.08916  1.0000
  Fe  Fe391     1.0  0.59742  0.12261  0.22200  1.0000
  C   C2734     1.0  0.65540  0.22509  0.09443  1.0000
  C   C2735     1.0  0.67754  0.22977  0.08079  1.0000
  C   C2736     1.0  0.68281  0.22795  0.09085  1.0000
  H   H4681     1.0  0.58642  0.16727  0.14078  1.0000
  H   H4682     1.0  0.61252  0.09429  0.21826  1.0000
  C   C2737     1.0  0.62558  0.22689  0.98989  1.0000
  H   H4683     1.0  0.57951  0.15975  0.15407  1.0000
  H   H4684     1.0  0.63716  0.13526  0.19785  1.0000
  H   H4685     1.0  0.64306  0.14976  0.18361  1.0000
  H   H4686     1.0  0.57156  0.17001  0.14496  1.0000
  H   H4687     1.0  0.53137  0.09004  0.22759  1.0000
  H   H4688     1.0  0.65007  0.14098  0.17447  1.0000
  C   C2738     1.0  0.62874  0.04275  0.20154  1.0000
  C   C2739     1.0  0.57939  0.16789  0.14812  1.0000
  H   H4689     1.0  0.66360  0.15447  0.18021  1.0000
  H   H4690     1.0  0.59508  0.23186  0.11860  1.0000
  H   H4691     1.0  0.60153  0.21480  0.09046  1.0000
  H   H4692     1.0  0.64060  0.12763  0.18078  1.0000
  S   S782      1.0  0.62995  0.23391  0.00647  1.0000
  H   H4693     1.0  0.62125  0.04946  0.20320  1.0000
  C   C2740     1.0  0.61765  0.01579  0.20748  1.0000
  H   H4694     1.0  0.59014  0.19250  0.15411  1.0000
  H   H4695     1.0  0.65009  0.11544  0.18676  1.0000
  H   H4696     1.0  0.66583  0.14884  0.16801  1.0000
  H   H4697     1.0  0.57935  0.18493  0.14695  1.0000
  H   H4698     1.0  0.63572  0.11854  0.19338  1.0000
  H   H4699     1.0  0.58730  0.15837  0.16852  1.0000
  H   H4700     1.0  0.66521  0.11863  0.19218  1.0000
  H   H4701     1.0  0.64917  0.22452  0.10244  1.0000
  C   C2741     1.0  0.63421  0.07314  0.22489  1.0000
  N   N196      1.0  0.65475  0.13530  0.19045  1.0000
  H   H4702     1.0  0.57050  0.19412  0.16495  1.0000
  C   C2742     1.0  0.61188  0.21573  0.99251  1.0000
  H   H4703     1.0  0.57540  0.18607  0.17746  1.0000
  H   H4704     1.0  0.63972  0.14415  0.20952  1.0000
  H   H4705     1.0  0.59548  0.18549  0.16611  1.0000
  H   H4706     1.0  0.65153  0.22361  0.08833  1.0000
  H   H4707     1.0  0.62269  0.03158  0.22274  1.0000
  H   H4708     1.0  0.57816  0.16866  0.17498  1.0000
  H   H4709     1.0  0.59992  0.17654  0.14322  1.0000
  H   H4710     1.0  0.57880  0.19929  0.17073  1.0000
  C   C2743     1.0  0.57760  0.19156  0.16923  1.0000
  H   H4711     1.0  0.57108  0.17863  0.15939  1.0000
  C   C2744     1.0  0.62823  0.08409  0.22185  1.0000
  Fe  Fe392     1.0  0.61874  0.22476  0.04865  1.0000
  S   S783      1.0  0.63528  0.22677  0.03735  1.0000
  H   H4712     1.0  0.63378  0.02655  0.19746  1.0000
  H   H4713     1.0  0.60480  0.22522  0.07813  1.0000
  H   H4714     1.0  0.62618  0.01116  0.20416  1.0000
  H   H4715     1.0  0.67712  0.22529  0.09885  1.0000
  C   C2745     1.0  0.60172  0.22376  0.08728  1.0000
  C   C2746     1.0  0.61719  0.08589  0.22067  1.0000
  C   C2747     1.0  0.66499  0.12692  0.18636  1.0000
  H   H4716     1.0  0.66119  0.23008  0.07138  1.0000
  C   C2748     1.0  0.60685  0.03418  0.21179  1.0000
  H   H4717     1.0  0.64107  0.02042  0.21303  1.0000
  H   H4718     1.0  0.59643  0.03278  0.22864  1.0000
  H   H4719     1.0  0.58966  0.03179  0.21843  1.0000
  H   H4720     1.0  0.67609  0.22163  0.08054  1.0000
  C   C2749     1.0  0.52228  0.09081  0.22835  1.0000
  H   H4721     1.0  0.61456  0.00993  0.21517  1.0000
  H   H4722     1.0  0.60740  0.04186  0.21393  1.0000
  C   C2750     1.0  0.64520  0.12929  0.19568  1.0000
  H   H4723     1.0  0.64278  0.07166  0.22567  1.0000
  C   C2751     1.0  0.59485  0.16497  0.17791  1.0000
  H   H4724     1.0  0.60670  0.17482  0.15403  1.0000
  C   C2752     1.0  0.57938  0.17721  0.15359  1.0000
  C   C2753     1.0  0.61045  0.01697  0.19912  1.0000
  H   H4725     1.0  0.63420  0.04626  0.19371  1.0000
  H   H4726     1.0  0.61736  0.01941  0.22738  1.0000
  C   C2754     1.0  0.63215  0.23290  0.13354  1.0000
  S   S784      1.0  0.59932  0.13780  0.22619  1.0000
  C   C2755     1.0  0.58688  0.16661  0.17011  1.0000
  N   N197      1.0  0.62449  0.19212  0.03416  1.0000
  C   C2756     1.0  0.63171  0.19583  0.02294  1.0000
  C   C2757     1.0  0.62169  0.18130  0.03438  1.0000
  C   C2758     1.0  0.63054  0.19040  0.04332  1.0000
  C   C2759     1.0  0.61402  0.20106  0.03592  1.0000
  C   C2760     1.0  0.63704  0.20571  0.02179  1.0000
  C   C2761     1.0  0.61453  0.18191  0.02613  1.0000
  C   C2762     1.0  0.64184  0.18189  0.04260  1.0000
  C   C2763     1.0  0.60457  0.19785  0.04594  1.0000
  H   H4727     1.0  0.63860  0.18885  0.02048  1.0000
  H   H4728     1.0  0.62676  0.19843  0.01635  1.0000
  H   H4729     1.0  0.61736  0.17763  0.04284  1.0000
  H   H4730     1.0  0.62948  0.17496  0.03239  1.0000
  H   H4731     1.0  0.63207  0.19842  0.04384  1.0000
  H   H4732     1.0  0.62531  0.18754  0.05158  1.0000
  H   H4733     1.0  0.61607  0.20856  0.03703  1.0000
  H   H4734     1.0  0.61032  0.20382  0.02843  1.0000
  H   H4735     1.0  0.64130  0.20827  0.01299  1.0000
  H   H4736     1.0  0.63067  0.21308  0.02398  1.0000
  H   H4737     1.0  0.64349  0.20352  0.02682  1.0000
  H   H4738     1.0  0.60625  0.18765  0.02760  1.0000
  H   H4739     1.0  0.61893  0.18432  0.01738  1.0000
  H   H4740     1.0  0.61291  0.17352  0.02718  1.0000
  H   H4741     1.0  0.64786  0.18394  0.03467  1.0000
  H   H4742     1.0  0.64069  0.17328  0.04393  1.0000
  H   H4743     1.0  0.64576  0.18199  0.04934  1.0000
  H   H4744     1.0  0.60048  0.20516  0.04982  1.0000
  H   H4745     1.0  0.60738  0.19092  0.05260  1.0000
  H   H4746     1.0  0.59784  0.19599  0.04317  1.0000
  H   H4747     1.0  0.60727  0.15499  0.16009  1.0000
  H   H4748     1.0  0.60359  0.03737  0.20403  1.0000
  C   C2764     1.0  0.60484  0.15951  0.15212  1.0000
  N   N198      1.0  0.58876  0.17523  0.15952  1.0000
  H   H4749     1.0  0.53560  0.23609  0.08478  1.0000
  H   H4750     1.0  0.64382  0.15546  0.19834  1.0000
  C   C2765     1.0  0.64267  0.22799  0.12794  1.0000
  H   H4751     1.0  0.55708  0.22901  0.12993  1.0000
  H   H4752     1.0  0.64508  0.21902  0.12899  1.0000
  H   H4753     1.0  0.50090  0.23335  0.13487  1.0000
  S   S785      1.0  0.60876  0.23257  0.03536  1.0000
  H   H4754     1.0  0.58124  0.23065  0.07241  1.0000
  H   H4755     1.0  0.69044  0.22116  0.09023  1.0000
  H   H4756     1.0  0.64661  0.12345  0.20365  1.0000
  H   H4757     1.0  0.68314  0.12321  0.18094  1.0000
  C   C2766     1.0  0.62914  0.06405  0.22683  1.0000
  C   C2767     1.0  0.67657  0.12947  0.18501  1.0000
  C   C2768     1.0  0.65674  0.13974  0.19937  1.0000
  H   H4758     1.0  0.58177  0.23506  0.11516  1.0000
  H   H4759     1.0  0.59961  0.02018  0.22370  1.0000
  S   S786      1.0  0.61191  0.05457  0.22709  1.0000
  H   H4760     1.0  0.54449  0.23614  0.09336  1.0000
  C   C2769     1.0  0.56797  0.23173  0.13876  1.0000
  H   H4761     1.0  0.63202  0.23111  0.98444  1.0000
  C   C2770     1.0  0.59089  0.23252  0.11185  1.0000
  H   H4762     1.0  0.68547  0.23548  0.09101  1.0000
  H   H4763     1.0  0.55062  0.23472  0.07945  1.0000
  H   H4764     1.0  0.67083  0.23577  0.05414  1.0000
  C   C2771     1.0  0.54311  0.23896  0.08474  1.0000
  H   H4765     1.0  0.66076  0.23815  0.09799  1.0000
  H   H4766     1.0  0.63076  0.23756  0.10366  1.0000
  C   C2772     1.0  0.62647  0.23626  0.09776  1.0000
  C   C2773     1.0  0.65826  0.23673  0.09092  1.0000
  H   H4767     1.0  0.59756  0.99923  0.23073  1.0000
  H   H4768     1.0  0.63379  0.05563  0.22919  1.0000
  Fe  Fe393     1.0  0.62509  0.23589  0.02437  1.0000
  N   N199      1.0  0.60642  0.23840  0.09510  1.0000
  H   H4769     1.0  0.59047  0.23885  0.05350  1.0000
  H   H4770     1.0  0.58887  0.23572  0.99005  1.0000
  H   H4771     1.0  0.51723  0.23760  0.09928  1.0000
  C   C2774     1.0  0.66241  0.23856  0.07078  1.0000
  H   H4772     1.0  0.66858  0.08534  0.23050  1.0000
  C   C2775     1.0  0.61372  0.23904  0.10236  1.0000
  N   N200      1.0  0.66701  0.23874  0.08039  1.0000
  Fe  Fe394     1.0  0.54860  0.08590  0.27380  1.0000
  S   S787      1.0  0.54438  0.07902  0.29207  1.0000
  S   S788      1.0  0.55453  0.07558  0.26083  1.0000
  Fe  Fe395     1.0  0.54492  0.10956  0.27676  1.0000
  S   S789      1.0  0.54047  0.10463  0.29536  1.0000
  S   S790      1.0  0.54728  0.12653  0.26702  1.0000
  Fe  Fe396     1.0  0.55502  0.09000  0.29336  1.0000
  S   S791      1.0  0.57006  0.08191  0.30130  1.0000
  Fe  Fe397     1.0  0.53032  0.09416  0.29215  1.0000
  S   S792      1.0  0.51205  0.09403  0.29986  1.0000
  S   S793      1.0  0.56004  0.09584  0.27503  1.0000
  S   S794      1.0  0.53386  0.10026  0.27368  1.0000
  Fe  Fe398     1.0  0.60414  0.03068  0.26526  1.0000
  S   S795      1.0  0.60576  0.02696  0.24875  1.0000
  S   S796      1.0  0.58827  0.03201  0.27824  1.0000
  Fe  Fe399     1.0  0.62794  0.03395  0.26036  1.0000
  S   S797      1.0  0.63195  0.02993  0.24346  1.0000
  S   S798      1.0  0.63966  0.04156  0.26518  1.0000
  Fe  Fe400     1.0  0.61514  0.04084  0.24186  1.0000
  H   H4773     1.0  0.74903  0.11743  0.40654  1.0000
  Fe  Fe401     1.0  0.62232  0.01625  0.25167  1.0000
  S   S799      1.0  0.61172  0.04560  0.25809  1.0000
  S   S800      1.0  0.62012  0.01910  0.26885  1.0000
  H   H4774     1.0  0.62243  0.07844  0.25233  1.0000
  C   C2776     1.0  0.82736  0.20502  0.46989  1.0000
  Fe  Fe402     1.0  0.94501  0.21278  0.40672  1.0000
  C   C2777     1.0  0.82484  0.23507  0.40062  1.0000
  S   S801      1.0  0.96290  0.20308  0.40587  1.0000
  Fe  Fe403     1.0  0.91961  0.21492  0.41413  1.0000
  H   H4775     1.0  0.77784  0.09993  0.45912  1.0000
  S   S802      1.0  0.90337  0.20975  0.42343  1.0000
  Fe  Fe404     1.0  0.92950  0.22846  0.39224  1.0000
  H   H4776     1.0  0.68924  0.09255  0.32202  1.0000
  C   C2778     1.0  0.90676  0.23581  0.44909  1.0000
  H   H4777     1.0  0.60680  0.00719  0.24063  1.0000
  S   S803      1.0  0.93206  0.21005  0.39915  1.0000
  S   S804      1.0  0.93277  0.21573  0.42251  1.0000
  N   N201      1.0  0.59860  0.08267  0.26230  1.0000
  C   C2779     1.0  0.72941  0.01703  0.39796  1.0000
  H   H4778     1.0  0.73792  0.01885  0.39573  1.0000
  C   C2780     1.0  0.60783  0.11533  0.35267  1.0000
  H   H4779     1.0  0.60669  0.09353  0.34109  1.0000
  Fe  Fe405     1.0  0.83631  0.18692  0.40983  1.0000
  S   S805      1.0  0.82943  0.20542  0.40694  1.0000
  S   S806      1.0  0.82527  0.17403  0.41421  1.0000
  Fe  Fe406     1.0  0.86001  0.19012  0.40807  1.0000
  S   S807      1.0  0.85501  0.20876  0.40470  1.0000
  S   S808      1.0  0.87812  0.18180  0.40810  1.0000
  Fe  Fe407     1.0  0.84000  0.20598  0.41828  1.0000
  S   S809      1.0  0.83337  0.21783  0.43006  1.0000
  Fe  Fe408     1.0  0.84507  0.20675  0.39370  1.0000
  S   S810      1.0  0.84454  0.21733  0.37664  1.0000
  S   S811      1.0  0.84561  0.18734  0.42251  1.0000
  S   S812      1.0  0.85134  0.18821  0.39575  1.0000
  Fe  Fe409     1.0  0.79391  0.14148  0.38986  1.0000
  S   S813      1.0  0.77548  0.14927  0.39288  1.0000
  S   S814      1.0  0.80657  0.15300  0.38435  1.0000
  Fe  Fe410     1.0  0.78898  0.11783  0.39543  1.0000
  S   S815      1.0  0.77040  0.12408  0.39952  1.0000
  S   S816      1.0  0.79567  0.09912  0.39717  1.0000
  Fe  Fe411     1.0  0.77313  0.13720  0.38414  1.0000
  S   S817      1.0  0.76128  0.14354  0.37212  1.0000
  Fe  Fe412     1.0  0.77431  0.13547  0.40784  1.0000
  S   S818      1.0  0.76338  0.13937  0.42376  1.0000
  S   S819      1.0  0.79180  0.13061  0.37943  1.0000
  S   S820      1.0  0.79274  0.12804  0.40538  1.0000
  Fe  Fe413     1.0  0.68848  0.11339  0.36041  1.0000
  S   S821      1.0  0.70671  0.11247  0.35206  1.0000
  S   S822      1.0  0.67637  0.11837  0.34843  1.0000
  Fe  Fe414     1.0  0.69453  0.10464  0.38353  1.0000
  S   S823      1.0  0.71303  0.10249  0.37659  1.0000
  S   S824      1.0  0.68950  0.09783  0.40207  1.0000
  Fe  Fe415     1.0  0.70869  0.11929  0.36576  1.0000
  S   S825      1.0  0.71926  0.13242  0.36178  1.0000
  Fe  Fe416     1.0  0.70952  0.09592  0.36363  1.0000
  S   S826      1.0  0.72044  0.08099  0.35722  1.0000
  S   S827      1.0  0.69005  0.12197  0.37321  1.0000
  S   S828      1.0  0.69139  0.09642  0.37143  1.0000
  Fe  Fe417     1.0  0.62033  0.09658  0.31129  1.0000
  S   S829      1.0  0.62801  0.08861  0.29669  1.0000
  S   S830      1.0  0.60185  0.10489  0.31432  1.0000
  Fe  Fe418     1.0  0.64255  0.09046  0.31945  1.0000
  S   S831      1.0  0.65178  0.08172  0.30535  1.0000
  S   S832      1.0  0.65007  0.08962  0.33428  1.0000
  Fe  Fe419     1.0  0.64239  0.09646  0.29479  1.0000
  S   S833      1.0  0.64952  0.10464  0.27733  1.0000
  Fe  Fe420     1.0  0.63649  0.07463  0.30842  1.0000
  S   S834      1.0  0.63648  0.05669  0.30912  1.0000
  S   S835      1.0  0.63413  0.10572  0.30854  1.0000
  S   S836      1.0  0.62789  0.08208  0.32336  1.0000
  C   C2781     1.0  0.61062  0.99912  0.23867  1.0000
  S   S837      1.0  0.60799  0.12703  0.25492  1.0000
  H   H4780     1.0  0.72347  0.11366  0.42027  1.0000
  C   C2782     1.0  0.77368  0.08516  0.35411  1.0000
  Fe  Fe421     1.0  0.74388  0.04184  0.40076  1.0000
  S   S838      1.0  0.75780  0.04354  0.38574  1.0000
  S   S839      1.0  0.72588  0.04414  0.40034  1.0000
  Fe  Fe422     1.0  0.75922  0.03624  0.41678  1.0000
  S   S840      1.0  0.77468  0.03692  0.40316  1.0000
  S   S841      1.0  0.75921  0.03215  0.43500  1.0000
  Fe  Fe423     1.0  0.76411  0.05259  0.39495  1.0000
  S   S842      1.0  0.76746  0.06997  0.38711  1.0000
  Fe  Fe424     1.0  0.76695  0.02777  0.39525  1.0000
  S   S843      1.0  0.77568  0.01215  0.38851  1.0000
  S   S844      1.0  0.74912  0.05231  0.40906  1.0000
  S   S845      1.0  0.75255  0.02569  0.40977  1.0000
  Fe  Fe425     1.0  0.71969  0.07861  0.46189  1.0000
  S   S846      1.0  0.70477  0.09210  0.46645  1.0000
  S   S847      1.0  0.71887  0.06078  0.46375  1.0000
  Fe  Fe426     1.0  0.73590  0.09380  0.45571  1.0000
  S   S848      1.0  0.72249  0.10873  0.45925  1.0000
  S   S849      1.0  0.75442  0.09273  0.45070  1.0000
  H   H4781     1.0  0.83660  0.20244  0.46725  1.0000
  Fe  Fe427     1.0  0.71267  0.10267  0.45063  1.0000
  S   S850      1.0  0.70403  0.11488  0.43737  1.0000
  S   S851      1.0  0.73002  0.08236  0.47149  1.0000
  S   S852      1.0  0.72687  0.08885  0.44565  1.0000
  H   H4782     1.0  0.61439  0.08680  0.27286  1.0000
  C   C2783     1.0  0.76843  0.00634  0.38221  1.0000
  C   C2784     1.0  0.75959  0.01292  0.37721  1.0000
  H   H4783     1.0  0.84688  0.23193  0.35553  1.0000
  C   C2785     1.0  0.91361  0.23765  0.43843  1.0000
  N   N202      1.0  0.82139  0.19465  0.45834  1.0000
  Fe  Fe428     1.0  0.86209  0.23385  0.46949  1.0000
  H   H4784     1.0  0.60441  0.06492  0.26502  1.0000
  C   C2786     1.0  0.74792  0.04015  0.44285  1.0000
  C   C2787     1.0  0.74425  0.05152  0.43871  1.0000
  C   C2788     1.0  0.73565  0.05801  0.44527  1.0000
  C   C2789     1.0  0.73038  0.05305  0.45584  1.0000
  C   C2790     1.0  0.73395  0.04163  0.45992  1.0000
  C   C2791     1.0  0.74286  0.03525  0.45354  1.0000
  H   H4785     1.0  0.74816  0.05532  0.43049  1.0000
  H   H4786     1.0  0.73284  0.06676  0.44199  1.0000
  H   H4787     1.0  0.72989  0.03773  0.46808  1.0000
  H   H4788     1.0  0.74572  0.02647  0.45683  1.0000
  C   C2792     1.0  0.61985  0.12194  0.26083  1.0000
  C   C2793     1.0  0.61829  0.11917  0.27238  1.0000
  C   C2794     1.0  0.62745  0.11425  0.27744  1.0000
  C   C2795     1.0  0.63828  0.11214  0.27096  1.0000
  C   C2796     1.0  0.63996  0.11543  0.25938  1.0000
  C   C2797     1.0  0.63073  0.12028  0.25430  1.0000
  H   H4789     1.0  0.60995  0.12057  0.27746  1.0000
  H   H4790     1.0  0.62609  0.11205  0.28638  1.0000
  H   H4791     1.0  0.64835  0.11395  0.25434  1.0000
  H   H4792     1.0  0.63202  0.12261  0.24538  1.0000
  C   C2798     1.0  0.66911  0.11022  0.34463  1.0000
  C   C2799     1.0  0.66591  0.11382  0.33431  1.0000
  C   C2800     1.0  0.66018  0.10764  0.33093  1.0000
  C   C2801     1.0  0.65738  0.09782  0.33794  1.0000
  C   C2802     1.0  0.66039  0.09433  0.34836  1.0000
  C   C2803     1.0  0.66626  0.10042  0.35166  1.0000
  H   H4793     1.0  0.66795  0.12143  0.32883  1.0000
  H   H4794     1.0  0.65790  0.11051  0.32293  1.0000
  H   H4795     1.0  0.65820  0.08682  0.35392  1.0000
  H   H4796     1.0  0.66846  0.09762  0.35970  1.0000
  C   C2804     1.0  0.72136  0.07020  0.36893  1.0000
  C   C2805     1.0  0.71432  0.07170  0.37913  1.0000
  C   C2806     1.0  0.71532  0.06338  0.38868  1.0000
  C   C2807     1.0  0.72368  0.05371  0.38813  1.0000
  C   C2808     1.0  0.73068  0.05211  0.37792  1.0000
  C   C2809     1.0  0.72937  0.06029  0.36826  1.0000
  H   H4797     1.0  0.70814  0.07931  0.37977  1.0000
  H   H4798     1.0  0.70985  0.06464  0.39652  1.0000
  H   H4799     1.0  0.73708  0.04456  0.37748  1.0000
  H   H4800     1.0  0.73471  0.05902  0.36036  1.0000
  C   C2810     1.0  0.69373  0.10272  0.41164  1.0000
  C   C2811     1.0  0.69545  0.11355  0.40941  1.0000
  C   C2812     1.0  0.69817  0.11730  0.41752  1.0000
  C   C2813     1.0  0.70000  0.11004  0.42761  1.0000
  C   C2814     1.0  0.69839  0.09917  0.42978  1.0000
  C   C2815     1.0  0.69489  0.09570  0.42197  1.0000
  H   H4801     1.0  0.69423  0.11917  0.40161  1.0000
  H   H4802     1.0  0.69877  0.12589  0.41598  1.0000
  H   H4803     1.0  0.69941  0.09362  0.43765  1.0000
  H   H4804     1.0  0.69293  0.08761  0.42391  1.0000
  C   C2816     1.0  0.76164  0.12654  0.43230  1.0000
  C   C2817     1.0  0.76926  0.11683  0.42996  1.0000
  C   C2818     1.0  0.76726  0.10642  0.43604  1.0000
  C   C2819     1.0  0.75747  0.10574  0.44418  1.0000
  C   C2820     1.0  0.75001  0.11545  0.44672  1.0000
  C   C2821     1.0  0.75217  0.12588  0.44088  1.0000
  H   H4805     1.0  0.77661  0.11731  0.42335  1.0000
  H   H4806     1.0  0.77308  0.09892  0.43410  1.0000
  H   H4807     1.0  0.74263  0.11497  0.45324  1.0000
  H   H4808     1.0  0.74631  0.13342  0.44270  1.0000
  C   C2822     1.0  0.78763  0.09093  0.39476  1.0000
  C   C2823     1.0  0.77711  0.09570  0.39217  1.0000
  C   C2824     1.0  0.77086  0.08907  0.39032  1.0000
  C   C2825     1.0  0.77502  0.07757  0.39103  1.0000
  C   C2826     1.0  0.78547  0.07272  0.39379  1.0000
  C   C2827     1.0  0.79179  0.07940  0.39555  1.0000
  H   H4809     1.0  0.77383  0.10454  0.39141  1.0000
  H   H4810     1.0  0.76274  0.09295  0.38838  1.0000
  H   H4811     1.0  0.78888  0.06391  0.39416  1.0000
  H   H4812     1.0  0.79998  0.07565  0.39743  1.0000
  C   C2828     1.0  0.74976  0.13944  0.37000  1.0000
  C   C2829     1.0  0.74364  0.14701  0.36249  1.0000
  C   C2830     1.0  0.73445  0.14459  0.36023  1.0000
  C   C2831     1.0  0.73112  0.13449  0.36535  1.0000
  C   C2832     1.0  0.73728  0.12671  0.37283  1.0000
  C   C2833     1.0  0.74657  0.12919  0.37521  1.0000
  H   H4813     1.0  0.74597  0.15491  0.35837  1.0000
  H   H4814     1.0  0.72985  0.15066  0.35442  1.0000
  H   H4815     1.0  0.73482  0.11887  0.37683  1.0000
  H   H4816     1.0  0.75127  0.12319  0.38095  1.0000
  C   C2834     1.0  0.81944  0.16896  0.40577  1.0000
  C   C2835     1.0  0.81337  0.16048  0.41080  1.0000
  C   C2836     1.0  0.80916  0.15570  0.40444  1.0000
  C   C2837     1.0  0.81106  0.15926  0.39288  1.0000
  C   C2838     1.0  0.81707  0.16781  0.38784  1.0000
  C   C2839     1.0  0.82115  0.17269  0.39422  1.0000
  H   H4817     1.0  0.81195  0.15750  0.41971  1.0000
  H   H4818     1.0  0.80458  0.14915  0.40849  1.0000
  H   H4819     1.0  0.81861  0.17067  0.37892  1.0000
  H   H4820     1.0  0.82573  0.17924  0.39018  1.0000
  H   H4821     1.0  0.72106  0.00550  0.39588  1.0000
  H   H4822     1.0  0.67842  0.07873  0.32393  1.0000
  H   H4823     1.0  0.69996  0.06620  0.34249  1.0000
  H   H4824     1.0  0.64778  0.07627  0.24054  1.0000
  H   H4825     1.0  0.75085  0.99861  0.39666  1.0000
  H   H4826     1.0  0.90170  0.23528  0.38510  1.0000
  H   H4827     1.0  0.95280  0.23691  0.44444  1.0000
  C   C2840     1.0  0.85334  0.21949  0.45430  1.0000
  C   C2841     1.0  0.85663  0.21056  0.44885  1.0000
  C   C2842     1.0  0.85114  0.21040  0.44073  1.0000
  C   C2843     1.0  0.84201  0.21896  0.43831  1.0000
  C   C2844     1.0  0.83890  0.22802  0.44355  1.0000
  C   C2845     1.0  0.84464  0.22838  0.45140  1.0000
  H   H4828     1.0  0.86336  0.20366  0.45103  1.0000
  H   H4829     1.0  0.85366  0.20340  0.43672  1.0000
  H   H4830     1.0  0.92918  0.20376  0.44640  1.0000
  H   H4831     1.0  0.50380  0.08521  0.26043  1.0000
  H   H4832     1.0  0.61151  0.13237  0.34707  1.0000
  H   H4833     1.0  0.59269  0.07851  0.28017  1.0000
  C   C2846     1.0  0.89666  0.20220  0.41856  1.0000
  C   C2847     1.0  0.90269  0.19431  0.41217  1.0000
  C   C2848     1.0  0.89699  0.18791  0.40912  1.0000
  C   C2849     1.0  0.88525  0.18961  0.41219  1.0000
  C   C2850     1.0  0.87926  0.19762  0.41844  1.0000
  C   C2851     1.0  0.88495  0.20377  0.42173  1.0000
  H   H4834     1.0  0.91174  0.19296  0.40980  1.0000
  H   H4835     1.0  0.90168  0.18173  0.40430  1.0000
  H   H4836     1.0  0.87023  0.19890  0.42094  1.0000
  H   H4837     1.0  0.88023  0.20977  0.42677  1.0000
  H   H4838     1.0  0.83302  0.17107  0.45866  1.0000
  H   H4839     1.0  0.88479  0.19906  0.45784  1.0000
  H   H4840     1.0  0.73868  0.13394  0.39776  1.0000
  H   H4841     1.0  0.74202  0.15104  0.39971  1.0000
  H   H4842     1.0  0.82425  0.19954  0.47784  1.0000
  C   C2852     1.0  0.74558  0.99688  0.40510  1.0000
  H   H4843     1.0  0.59984  0.11266  0.35394  1.0000
  H   H4844     1.0  0.60977  0.09396  0.25379  1.0000
  H   H4845     1.0  0.76955  0.11957  0.46883  1.0000
  N   N203      1.0  0.69901  0.08369  0.33447  1.0000
  C   C2853     1.0  0.98196  0.21023  0.42791  1.0000
  C   C2854     1.0  0.98673  0.21044  0.41668  1.0000
  C   C2855     1.0  0.98081  0.20830  0.40992  1.0000
  C   C2856     1.0  0.96996  0.20629  0.41429  1.0000
  C   C2857     1.0  0.96504  0.20647  0.42543  1.0000
  C   C2858     1.0  0.97107  0.20832  0.43224  1.0000
  C   C2859     1.0  0.75163  0.09347  0.37014  1.0000
  H   H4846     1.0  0.98455  0.20834  0.40126  1.0000
  H   H4847     1.0  0.95669  0.20490  0.42887  1.0000
  H   H4848     1.0  0.58364  0.08960  0.27342  1.0000
  C   C2860     1.0  0.63616  0.04558  0.27804  1.0000
  C   C2861     1.0  0.63835  0.03772  0.28762  1.0000
  C   C2862     1.0  0.63797  0.04124  0.29724  1.0000
  C   C2863     1.0  0.63565  0.05262  0.29729  1.0000
  C   C2864     1.0  0.63294  0.06046  0.28788  1.0000
  C   C2865     1.0  0.63313  0.05693  0.27833  1.0000
  H   H4849     1.0  0.64091  0.02896  0.28744  1.0000
  H   H4850     1.0  0.64004  0.03512  0.30450  1.0000
  H   H4851     1.0  0.63102  0.06924  0.28784  1.0000
  H   H4852     1.0  0.63156  0.06304  0.27098  1.0000
  H   H4853     1.0  0.88125  0.20406  0.47373  1.0000
  C   C2866     1.0  0.60765  0.04451  0.28759  1.0000
  H   H4854     1.0  0.50670  0.09190  0.24048  1.0000
  C   C2867     1.0  0.50786  0.06958  0.28771  1.0000
  C   C2868     1.0  0.75231  0.07693  0.36354  1.0000
  H   H4855     1.0  0.59627  0.10054  0.25964  1.0000
  C   C2869     1.0  0.55589  0.12505  0.25401  1.0000
  C   C2870     1.0  0.55671  0.11575  0.24983  1.0000
  H   H4856     1.0  0.82522  0.21098  0.45310  1.0000
  C   C2871     1.0  0.53082  0.08940  0.24972  1.0000
  C   C2872     1.0  0.56247  0.13284  0.24809  1.0000
  C   C2873     1.0  0.65091  0.07137  0.24805  1.0000
  H   H4857     1.0  0.55163  0.10973  0.25434  1.0000
  H   H4858     1.0  0.63432  0.09047  0.24378  1.0000
  C   C2874     1.0  0.69994  0.10455  0.32809  1.0000
  C   C2875     1.0  0.52587  0.06611  0.25956  1.0000
  C   C2876     1.0  0.57881  0.08916  0.30387  1.0000
  C   C2877     1.0  0.59020  0.08414  0.30318  1.0000
  C   C2878     1.0  0.59731  0.08895  0.30626  1.0000
  C   C2879     1.0  0.59308  0.09884  0.31013  1.0000
  C   C2880     1.0  0.58167  0.10391  0.31081  1.0000
  C   C2881     1.0  0.57456  0.09916  0.30756  1.0000
  H   H4859     1.0  0.59353  0.07641  0.30040  1.0000
  H   H4860     1.0  0.60598  0.08481  0.30595  1.0000
  H   H4861     1.0  0.57828  0.11136  0.31411  1.0000
  H   H4862     1.0  0.56573  0.10296  0.30837  1.0000
  C   C2882     1.0  0.50639  0.08626  0.29411  1.0000
  N   N204      1.0  0.75198  0.08928  0.36013  1.0000
  H   H4863     1.0  0.83117  0.17838  0.44480  1.0000
  C   C2883     1.0  0.74173  0.09506  0.35537  1.0000
  S   S853      1.0  0.92562  0.23560  0.37537  1.0000
  C   C2884     1.0  0.51256  0.07596  0.29184  1.0000
  C   C2885     1.0  0.70921  0.08024  0.32581  1.0000
  H   H4864     1.0  0.51259  0.06147  0.28631  1.0000
  H   H4865     1.0  0.52090  0.07279  0.29351  1.0000
  C   C2886     1.0  0.56338  0.06295  0.26549  1.0000
  C   C2887     1.0  0.56117  0.05731  0.27658  1.0000
  C   C2888     1.0  0.56867  0.04761  0.28041  1.0000
  C   C2889     1.0  0.57851  0.04364  0.27319  1.0000
  C   C2890     1.0  0.58066  0.04919  0.26206  1.0000
  C   C2891     1.0  0.57304  0.05877  0.25818  1.0000
  H   H4866     1.0  0.55357  0.06032  0.28218  1.0000
  H   H4867     1.0  0.56689  0.04324  0.28897  1.0000
  H   H4868     1.0  0.58819  0.04614  0.25639  1.0000
  H   H4869     1.0  0.57480  0.06312  0.24959  1.0000
  H   H4870     1.0  0.76881  0.09008  0.46545  1.0000
  H   H4871     1.0  0.72241  0.11157  0.40257  1.0000
  H   H4872     1.0  0.73421  0.09214  0.36079  1.0000
  H   H4873     1.0  0.65375  0.09132  0.23308  1.0000
  H   H4874     1.0  0.65933  0.05891  0.23812  1.0000
  C   C2892     1.0  0.74189  0.09128  0.38022  1.0000
  H   H4875     1.0  0.70591  0.07342  0.34855  1.0000
  H   H4876     1.0  0.75725  0.02178  0.37695  1.0000
  C   C2893     1.0  0.75389  0.00807  0.37239  1.0000
  H   H4877     1.0  0.72625  0.14171  0.40466  1.0000
  H   H4878     1.0  0.74715  0.01326  0.36844  1.0000
  H   H4879     1.0  0.73696  0.11079  0.40132  1.0000
  H   H4880     1.0  0.57598  0.07247  0.28127  1.0000
  H   H4881     1.0  0.71929  0.14678  0.42180  1.0000
  C   C2894     1.0  0.91138  0.20409  0.44956  1.0000
  C   C2895     1.0  0.53225  0.10151  0.24466  1.0000
  H   H4882     1.0  0.70968  0.07171  0.32482  1.0000
  C   C2896     1.0  0.80374  0.19162  0.47393  1.0000
  H   H4883     1.0  0.75025  0.12231  0.41774  1.0000
  C   C2897     1.0  0.75662  0.99652  0.37289  1.0000
  C   C2898     1.0  0.58430  0.09312  0.24983  1.0000
  H   H4884     1.0  0.81891  0.23203  0.39778  1.0000
  H   H4885     1.0  0.82825  0.22847  0.40723  1.0000
  C   C2899     1.0  0.85308  0.23436  0.37885  1.0000
  H   H4886     1.0  0.88323  0.21958  0.45649  1.0000
  H   H4887     1.0  0.76351  0.11408  0.46109  1.0000
  C   C2900     1.0  0.89896  0.20588  0.46762  1.0000
  H   H4888     1.0  0.99494  0.18777  0.41624  1.0000
  H   H4889     1.0  0.72744  0.07693  0.32146  1.0000
  H   H4890     1.0  0.75180  0.10249  0.36801  1.0000
  H   H4891     1.0  0.95162  0.23398  0.43204  1.0000
  C   C2901     1.0  0.68629  0.07595  0.32709  1.0000
  H   H4892     1.0  0.51856  0.06529  0.26657  1.0000
  C   C2902     1.0  0.71812  0.13865  0.42732  1.0000
  C   C2903     1.0  0.80562  0.20639  0.44780  1.0000
  S   S854      1.0  0.98920  0.21253  0.43676  1.0000
  C   C2904     1.0  0.63600  0.09443  0.24966  1.0000
  H   H4893     1.0  0.90944  0.21326  0.44648  1.0000
  C   C2905     1.0  0.75375  0.07107  0.35404  1.0000
  H   H4894     1.0  0.76245  0.10073  0.34986  1.0000
  C   C2906     1.0  0.58929  0.08145  0.27249  1.0000
  C   C2907     1.0  0.59469  0.08373  0.25187  1.0000
  H   H4895     1.0  0.70622  0.09274  0.34201  1.0000
  H   H4896     1.0  0.89262  0.22029  0.44293  1.0000
  H   H4897     1.0  0.72810  0.12345  0.39517  1.0000
  C   C2908     1.0  0.72059  0.08003  0.32812  1.0000
  H   H4898     1.0  0.70445  0.10998  0.32989  1.0000
  C   C2909     1.0  0.66152  0.08544  0.24818  1.0000
  C   C2910     1.0  0.83348  0.18892  0.45492  1.0000
  H   H4899     1.0  0.60185  0.13012  0.35972  1.0000
  C   C2911     1.0  0.60453  0.12810  0.35136  1.0000
  H   H4900     1.0  0.61037  0.11160  0.36078  1.0000
  H   H4901     1.0  0.78388  0.04104  0.43665  1.0000
  C   C2912     1.0  0.72522  0.12072  0.41323  1.0000
  C   C2913     1.0  0.60699  0.09350  0.27127  1.0000
  S   S855      1.0  0.85933  0.21858  0.46557  1.0000
  H   H4902     1.0  0.60178  0.00190  0.26714  1.0000
  H   H4903     1.0  0.84460  0.17494  0.44818  1.0000
  H   H4904     1.0  0.60965  0.10153  0.26946  1.0000
  H   H4905     1.0  0.50393  0.10646  0.25458  1.0000
  H   H4906     1.0  0.57683  0.07656  0.26674  1.0000
  C   C2914     1.0  0.58196  0.07333  0.27313  1.0000
  H   H4907     1.0  0.51462  0.07237  0.24828  1.0000
  C   C2915     1.0  0.60287  0.09291  0.26120  1.0000
  N   N205      1.0  0.78713  0.16830  0.35835  1.0000
  C   C2916     1.0  0.79957  0.16337  0.35651  1.0000
  C   C2917     1.0  0.78125  0.15908  0.35961  1.0000
  C   C2918     1.0  0.78378  0.17231  0.36909  1.0000
  C   C2919     1.0  0.78484  0.17786  0.34870  1.0000
  C   C2920     1.0  0.80712  0.17114  0.35628  1.0000
  C   C2921     1.0  0.78541  0.15255  0.35022  1.0000
  C   C2922     1.0  0.77119  0.17673  0.37333  1.0000
  C   C2923     1.0  0.77319  0.18048  0.34584  1.0000
  H   H4908     1.0  0.80142  0.15569  0.36299  1.0000
  H   H4909     1.0  0.80269  0.16065  0.34846  1.0000
  H   H4910     1.0  0.77208  0.16219  0.36036  1.0000
  H   H4911     1.0  0.78210  0.15289  0.36750  1.0000
  H   H4912     1.0  0.78675  0.16549  0.37585  1.0000
  H   H4913     1.0  0.78788  0.17919  0.36845  1.0000
  H   H4914     1.0  0.78603  0.18569  0.35004  1.0000
  H   H4915     1.0  0.79101  0.17641  0.34090  1.0000
  H   H4916     1.0  0.80534  0.17930  0.35050  1.0000
  H   H4917     1.0  0.80637  0.17242  0.36470  1.0000
  H   H4918     1.0  0.81602  0.16712  0.35346  1.0000
  H   H4919     1.0  0.78674  0.15809  0.34188  1.0000
  H   H4920     1.0  0.79330  0.14633  0.35128  1.0000
  H   H4921     1.0  0.77908  0.14780  0.35066  1.0000
  H   H4922     1.0  0.76814  0.18494  0.36818  1.0000
  H   H4923     1.0  0.76995  0.17813  0.38181  1.0000
  H   H4924     1.0  0.76595  0.17076  0.37413  1.0000
  H   H4925     1.0  0.77224  0.17392  0.34219  1.0000
  H   H4926     1.0  0.77226  0.18836  0.33947  1.0000
  H   H4927     1.0  0.76616  0.18162  0.35302  1.0000
  N   N206      1.0  0.71088  0.05970  0.42734  1.0000
  C   C2924     1.0  0.71536  0.06842  0.41774  1.0000
  C   C2925     1.0  0.70228  0.05604  0.42379  1.0000
  C   C2926     1.0  0.72055  0.04992  0.42898  1.0000
  C   C2927     1.0  0.70622  0.06456  0.43758  1.0000
  C   C2928     1.0  0.72343  0.07441  0.41985  1.0000
  C   C2929     1.0  0.69159  0.06496  0.42188  1.0000
  C   C2930     1.0  0.71843  0.04032  0.43903  1.0000
  C   C2931     1.0  0.69779  0.05880  0.44710  1.0000
  H   H4928     1.0  0.71977  0.06473  0.41035  1.0000
  H   H4929     1.0  0.70847  0.07522  0.41500  1.0000
  H   H4930     1.0  0.69953  0.04871  0.42973  1.0000
  H   H4931     1.0  0.70607  0.05304  0.41592  1.0000
  H   H4932     1.0  0.72374  0.04624  0.42152  1.0000
  H   H4933     1.0  0.72772  0.05260  0.42989  1.0000
  H   H4934     1.0  0.71318  0.06484  0.44116  1.0000
  H   H4935     1.0  0.70186  0.07339  0.43533  1.0000
  H   H4936     1.0  0.71943  0.07903  0.42661  1.0000
  H   H4937     1.0  0.73135  0.06872  0.42155  1.0000
  H   H4938     1.0  0.72576  0.08071  0.41223  1.0000
  H   H4939     1.0  0.68774  0.06932  0.42882  1.0000
  H   H4940     1.0  0.69319  0.07119  0.41400  1.0000
  H   H4941     1.0  0.68525  0.06087  0.42107  1.0000
  H   H4942     1.0  0.72621  0.03368  0.43890  1.0000
  H   H4943     1.0  0.71169  0.03646  0.43881  1.0000
  H   H4944     1.0  0.71674  0.04301  0.44697  1.0000
  H   H4945     1.0  0.70030  0.05752  0.45510  1.0000
  H   H4946     1.0  0.69713  0.05059  0.44642  1.0000
  H   H4947     1.0  0.68931  0.06434  0.44797  1.0000
  C   C2932     1.0  0.72624  0.99524  0.41545  1.0000
  H   H4948     1.0  0.73849  0.09872  0.38396  1.0000
  H   H4949     1.0  0.58937  0.99697  0.27434  1.0000
  H   H4950     1.0  0.74644  0.07413  0.35003  1.0000
  C   C2933     1.0  0.97189  0.23750  0.40042  1.0000
  H   H4951     1.0  0.53822  0.08410  0.24523  1.0000
  H   H4952     1.0  0.88625  0.20962  0.48209  1.0000
  S   S856      1.0  0.91626  0.23320  0.40672  1.0000
  S   S857      1.0  0.60706  0.11083  0.23425  1.0000
  S   S858      1.0  0.74855  0.99072  0.36746  1.0000
  H   H4953     1.0  0.51349  0.10333  0.26394  1.0000
  H   H4954     1.0  0.77880  0.10184  0.47751  1.0000
  C   C2934     1.0  0.90884  0.18066  0.45348  1.0000
  H   H4955     1.0  0.89404  0.19987  0.44487  1.0000
  H   H4956     1.0  0.77827  0.98970  0.38619  1.0000
  H   H4957     1.0  0.83183  0.23467  0.44177  1.0000
  H   H4958     1.0  0.81314  0.18898  0.44871  1.0000
  H   H4959     1.0  0.60025  0.09341  0.27887  1.0000
  H   H4960     1.0  0.76192  0.09042  0.34330  1.0000
  C   C2935     1.0  0.51128  0.08844  0.25999  1.0000
  H   H4961     1.0  0.75085  0.10259  0.46955  1.0000
  H   H4962     1.0  0.68906  0.06821  0.36092  1.0000
  H   H4963     1.0  0.57544  0.13699  0.23381  1.0000
  H   H4964     1.0  0.66069  0.09248  0.25216  1.0000
  H   H4965     1.0  0.74448  0.07518  0.36952  1.0000
  H   H4966     1.0  0.52899  0.07249  0.24209  1.0000
  H   H4967     1.0  0.96728  0.20826  0.44090  1.0000
  H   H4968     1.0  0.81273  0.21057  0.46298  1.0000
  H   H4969     1.0  0.59297  0.07570  0.25159  1.0000
  H   H4970     1.0  0.75426  0.06201  0.35757  1.0000
  H   H4971     1.0  0.83794  0.19450  0.44782  1.0000
  H   H4972     1.0  0.69303  0.07265  0.32049  1.0000
  H   H4973     1.0  0.79905  0.20614  0.45550  1.0000
  H   H4974     1.0  0.75247  0.08446  0.47812  1.0000
  H   H4975     1.0  0.62409  0.06368  0.25599  1.0000
  C   C2936     1.0  0.88660  0.21569  0.44920  1.0000
  H   H4976     1.0  0.78044  0.08759  0.34697  1.0000
  C   C2937     1.0  0.66164  0.09034  0.23569  1.0000
  C   C2938     1.0  0.69877  0.07437  0.34467  1.0000
  H   H4977     1.0  0.80177  0.20605  0.44110  1.0000
  H   H4978     1.0  0.68118  0.08959  0.33552  1.0000
  C   C2939     1.0  0.52221  0.07448  0.24932  1.0000
  H   H4979     1.0  0.81573  0.17930  0.46623  1.0000
  H   H4980     1.0  0.66878  0.06593  0.24030  1.0000
  Fe  Fe429     1.0  0.71595  0.09692  0.47464  1.0000
  C   C2940     1.0  0.57024  0.13105  0.23826  1.0000
  H   H4981     1.0  0.90309  0.18226  0.44781  1.0000
  H   H4982     1.0  0.71747  0.99800  0.41420  1.0000
  H   H4983     1.0  0.82578  0.21351  0.47149  1.0000
  C   C2941     1.0  0.82132  0.20563  0.46073  1.0000
  H   H4984     1.0  0.87554  0.23446  0.38341  1.0000
  H   H4985     1.0  0.74308  0.10724  0.48172  1.0000
  H   H4986     1.0  0.52932  0.05772  0.25758  1.0000
  H   H4987     1.0  0.72448  0.02357  0.39238  1.0000
  H   H4988     1.0  0.75344  0.13259  0.46134  1.0000
  H   H4989     1.0  0.67010  0.08029  0.24853  1.0000
  C   C2942     1.0  0.66118  0.06247  0.24428  1.0000
  H   H4990     1.0  0.91724  0.18188  0.44856  1.0000
  N   N207      1.0  0.65284  0.07863  0.25460  1.0000
  C   C2943     1.0  0.65692  0.07094  0.26465  1.0000
  H   H4991     1.0  0.96635  0.22932  0.41704  1.0000
  C   C2944     1.0  0.64183  0.08608  0.25863  1.0000
  H   H4992     1.0  0.74463  0.00420  0.40867  1.0000
  C   C2945     1.0  0.65775  0.07655  0.27357  1.0000
  H   H4993     1.0  0.56473  0.10700  0.23656  1.0000
  H   H4994     1.0  0.90001  0.23158  0.45072  1.0000
  H   H4995     1.0  0.87946  0.21670  0.44530  1.0000
  H   H4996     1.0  0.65151  0.06483  0.26889  1.0000
  H   H4997     1.0  0.66543  0.06580  0.26217  1.0000
  H   H4998     1.0  0.52532  0.10778  0.24821  1.0000
  H   H4999     1.0  0.64416  0.06687  0.25301  1.0000
  H   H5000     1.0  0.63577  0.08099  0.26413  1.0000
  H   H5001     1.0  0.64290  0.09129  0.26379  1.0000
  S   S859      1.0  0.94341  0.23086  0.39841  1.0000
  H   H5002     1.0  0.85312  0.23003  0.38734  1.0000
  H   H5003     1.0  0.66249  0.08329  0.27000  1.0000
  H   H5004     1.0  0.64933  0.07982  0.27837  1.0000
  H   H5005     1.0  0.66222  0.07023  0.27967  1.0000
  H   H5006     1.0  0.98635  0.23275  0.41768  1.0000
  H   H5007     1.0  0.91219  0.23470  0.43188  1.0000
  Fe  Fe430     1.0  0.61041  0.12596  0.23717  1.0000
  H   H5008     1.0  0.73471  0.00512  0.38750  1.0000
  C   C2946     1.0  0.56413  0.11421  0.23976  1.0000
  C   C2947     1.0  0.81584  0.19659  0.44871  1.0000
  H   H5009     1.0  0.64082  0.10093  0.24504  1.0000
  C   C2948     1.0  0.88877  0.20330  0.47692  1.0000
  N   N208      1.0  0.73437  0.99551  0.40437  1.0000
  N   N209      1.0  0.77131  0.06438  0.43437  1.0000
  C   C2949     1.0  0.76749  0.05731  0.44565  1.0000
  C   C2950     1.0  0.77620  0.05664  0.42637  1.0000
  C   C2951     1.0  0.76125  0.07289  0.43096  1.0000
  C   C2952     1.0  0.77979  0.07013  0.43542  1.0000
  C   C2953     1.0  0.76034  0.06364  0.45478  1.0000
  C   C2954     1.0  0.78631  0.04729  0.42903  1.0000
  C   C2955     1.0  0.76161  0.07714  0.41843  1.0000
  C   C2956     1.0  0.78576  0.07693  0.42467  1.0000
  H   H5010     1.0  0.76257  0.05159  0.44505  1.0000
  H   H5011     1.0  0.77478  0.05177  0.44902  1.0000
  H   H5012     1.0  0.77892  0.06116  0.41775  1.0000
  H   H5013     1.0  0.76964  0.05257  0.42590  1.0000
  H   H5014     1.0  0.75351  0.06956  0.43436  1.0000
  H   H5015     1.0  0.75958  0.08034  0.43452  1.0000
  H   H5016     1.0  0.77571  0.07614  0.44095  1.0000
  H   H5017     1.0  0.78630  0.06424  0.43974  1.0000
  H   H5018     1.0  0.75237  0.06893  0.45268  1.0000
  H   H5019     1.0  0.75797  0.05748  0.46251  1.0000
  H   H5020     1.0  0.76506  0.06873  0.45676  1.0000
  H   H5021     1.0  0.78955  0.04273  0.42215  1.0000
  H   H5022     1.0  0.79328  0.05060  0.42968  1.0000
  H   H5023     1.0  0.76116  0.07050  0.41457  1.0000
  H   H5024     1.0  0.76912  0.08056  0.41399  1.0000
  H   H5025     1.0  0.75417  0.08393  0.41716  1.0000
  H   H5026     1.0  0.78046  0.08527  0.42214  1.0000
  H   H5027     1.0  0.78857  0.07254  0.41778  1.0000
  H   H5028     1.0  0.79364  0.07809  0.42599  1.0000
  H   H5029     1.0  0.69173  0.09662  0.34389  1.0000
  H   H5030     1.0  0.69137  0.10939  0.32727  1.0000
  H   H5031     1.0  0.70462  0.10265  0.31997  1.0000
  N   N210      1.0  0.89237  0.22428  0.38290  1.0000
  C   C2957     1.0  0.90210  0.22051  0.37396  1.0000
  C   C2958     1.0  0.96589  0.23814  0.41251  1.0000
  C   C2959     1.0  0.88715  0.21476  0.39010  1.0000
  C   C2960     1.0  0.89668  0.22900  0.39011  1.0000
  C   C2961     1.0  0.91117  0.21046  0.37787  1.0000
  H   H5032     1.0  0.75908  0.07250  0.36813  1.0000
  C   C2962     1.0  0.88279  0.20848  0.38397  1.0000
  Fe  Fe431     1.0  0.93041  0.23363  0.41371  1.0000
  H   H5033     1.0  0.89915  0.21845  0.36748  1.0000
  H   H5034     1.0  0.90655  0.22741  0.36948  1.0000
  H   H5035     1.0  0.54006  0.10242  0.24637  1.0000
  H   H5036     1.0  0.88155  0.22965  0.37106  1.0000
  H   H5037     1.0  0.89311  0.20861  0.39486  1.0000
  H   H5038     1.0  0.87990  0.21771  0.39656  1.0000
  H   H5039     1.0  0.90280  0.22244  0.39442  1.0000
  H   H5040     1.0  0.72536  0.01792  0.40658  1.0000
  H   H5041     1.0  0.91530  0.21223  0.38359  1.0000
  H   H5042     1.0  0.90786  0.20278  0.38174  1.0000
  H   H5043     1.0  0.91785  0.20867  0.37054  1.0000
  C   C2963     1.0  0.73460  0.13645  0.40583  1.0000
  H   H5044     1.0  0.59745  0.13171  0.34703  1.0000
  C   C2964     1.0  0.68814  0.07560  0.35398  1.0000
  H   H5045     1.0  0.87963  0.20139  0.39002  1.0000
  H   H5046     1.0  0.88947  0.20493  0.37749  1.0000
  H   H5047     1.0  0.87562  0.21383  0.38033  1.0000
  H   H5048     1.0  0.70870  0.08561  0.31746  1.0000
  H   H5049     1.0  0.57864  0.10884  0.27160  1.0000
  H   H5050     1.0  0.97155  0.23140  0.43324  1.0000
  H   H5051     1.0  0.84199  0.23526  0.45558  1.0000
  C   C2965     1.0  0.81596  0.18709  0.46841  1.0000
  H   H5052     1.0  0.71891  0.12079  0.48157  1.0000
  S   S860      1.0  0.62801  0.99880  0.24818  1.0000
  H   H5053     1.0  0.53332  0.10356  0.23552  1.0000
  H   H5054     1.0  0.72200  0.07432  0.33608  1.0000
  H   H5055     1.0  0.74257  0.09294  0.34727  1.0000
  H   H5056     1.0  0.91318  0.20061  0.44204  1.0000
  C   C2966     1.0  0.68872  0.08600  0.32981  1.0000
  H   H5057     1.0  0.92183  0.20639  0.45967  1.0000
  H   H5058     1.0  0.61138  0.05085  0.28087  1.0000
  N   N211      1.0  0.57680  0.13215  0.28123  1.0000
  C   C2967     1.0  0.57835  0.13241  0.29243  1.0000
  C   C2968     1.0  0.56435  0.13541  0.28165  1.0000
  C   C2969     1.0  0.58266  0.14067  0.27268  1.0000
  C   C2970     1.0  0.58199  0.12058  0.27916  1.0000
  C   C2971     1.0  0.59057  0.12979  0.29383  1.0000
  C   C2972     1.0  0.55738  0.12712  0.28972  1.0000
  C   C2973     1.0  0.57958  0.14449  0.26119  1.0000
  C   C2974     1.0  0.57947  0.11763  0.26932  1.0000
  H   H5059     1.0  0.57422  0.14070  0.29453  1.0000
  H   H5060     1.0  0.57425  0.12628  0.29909  1.0000
  H   H5061     1.0  0.56239  0.13665  0.27344  1.0000
  H   H5062     1.0  0.56078  0.14369  0.28392  1.0000
  H   H5063     1.0  0.58103  0.14844  0.27579  1.0000
  H   H5064     1.0  0.59190  0.13756  0.27116  1.0000
  H   H5065     1.0  0.59128  0.11900  0.27766  1.0000
  H   H5066     1.0  0.57972  0.11411  0.28669  1.0000
  H   H5067     1.0  0.59550  0.13573  0.28792  1.0000
  H   H5068     1.0  0.59052  0.13045  0.30231  1.0000
  H   H5069     1.0  0.59487  0.12111  0.29318  1.0000
  H   H5070     1.0  0.56030  0.11868  0.28784  1.0000
  H   H5071     1.0  0.55717  0.12662  0.29853  1.0000
  H   H5072     1.0  0.54855  0.13007  0.28874  1.0000
  H   H5073     1.0  0.57096  0.14967  0.26157  1.0000
  H   H5074     1.0  0.58064  0.13752  0.25718  1.0000
  H   H5075     1.0  0.58534  0.14982  0.25557  1.0000
  C   C2975     1.0  0.62081  0.99324  0.24158  1.0000
  H   H5076     1.0  0.57150  0.12238  0.26707  1.0000
  C   C2976     1.0  0.88784  0.23403  0.39940  1.0000
  C   C2977     1.0  0.50704  0.10049  0.26170  1.0000
  N   N212      1.0  0.51999  0.08666  0.24959  1.0000
  H   H5077     1.0  0.89654  0.18498  0.46771  1.0000
  H   H5078     1.0  0.60143  0.08543  0.24440  1.0000
  C   C2978     1.0  0.60778  0.07239  0.26372  1.0000
  H   H5079     1.0  0.58632  0.11871  0.26185  1.0000
  C   C2979     1.0  0.89170  0.20317  0.45254  1.0000
  H   H5080     1.0  0.72727  0.00133  0.41971  1.0000
  H   H5081     1.0  0.74489  0.08410  0.38664  1.0000
  H   H5082     1.0  0.90612  0.20328  0.47185  1.0000
  H   H5083     1.0  0.73481  0.08940  0.37815  1.0000
  H   H5084     1.0  0.75940  0.08950  0.37323  1.0000
  C   C2980     1.0  0.76221  0.09178  0.35143  1.0000
  C   C2981     1.0  0.92243  0.20140  0.45358  1.0000
  H   H5085     1.0  0.98049  0.23226  0.39996  1.0000
  H   H5086     1.0  0.72146  0.08847  0.32806  1.0000
  H   H5087     1.0  0.89810  0.21507  0.46490  1.0000
  H   H5088     1.0  0.53209  0.08735  0.25836  1.0000
  H   H5089     1.0  0.62775  0.09885  0.25376  1.0000
  H   H5090     1.0  0.77467  0.07603  0.35537  1.0000
  C   C2982     1.0  0.73879  0.10788  0.35343  1.0000
  H   H5091     1.0  0.57772  0.08961  0.24858  1.0000
  H   H5092     1.0  0.74588  0.11176  0.34838  1.0000
  H   H5093     1.0  0.71562  0.13990  0.43597  1.0000
  C   C2983     1.0  0.61802  0.07163  0.25397  1.0000
  H   H5094     1.0  0.60652  0.03807  0.28391  1.0000
  H   H5095     1.0  0.53247  0.06835  0.26218  1.0000
  H   H5096     1.0  0.77526  0.08705  0.36142  1.0000
  H   H5097     1.0  0.73567  0.11061  0.36141  1.0000
  N   N213      1.0  0.61641  0.11084  0.34333  1.0000
  C   C2984     1.0  0.61934  0.09829  0.34695  1.0000
  C   C2985     1.0  0.62715  0.11491  0.34068  1.0000
  C   C2986     1.0  0.61163  0.11360  0.33307  1.0000
  C   C2987     1.0  0.60982  0.09214  0.34876  1.0000
  C   C2988     1.0  0.63271  0.11296  0.35056  1.0000
  C   C2989     1.0  0.61230  0.12503  0.32517  1.0000
  H   H5098     1.0  0.62641  0.09468  0.34074  1.0000
  H   H5099     1.0  0.62230  0.09569  0.35486  1.0000
  H   H5100     1.0  0.62602  0.12395  0.33701  1.0000
  H   H5101     1.0  0.63345  0.11093  0.33415  1.0000
  H   H5102     1.0  0.61600  0.10737  0.32782  1.0000
  H   H5103     1.0  0.60267  0.11297  0.33531  1.0000
  H   H5104     1.0  0.61319  0.08303  0.35110  1.0000
  H   H5105     1.0  0.60275  0.09436  0.35562  1.0000
  H   H5106     1.0  0.63576  0.10398  0.35389  1.0000
  H   H5107     1.0  0.64022  0.11673  0.34765  1.0000
  H   H5108     1.0  0.62710  0.11701  0.35729  1.0000
  H   H5109     1.0  0.62108  0.12538  0.32073  1.0000
  H   H5110     1.0  0.60863  0.13209  0.32937  1.0000
  H   H5111     1.0  0.60754  0.12619  0.31868  1.0000
  N   N214      1.0  0.59280  0.04455  0.30597  1.0000
  C   C2990     1.0  0.58214  0.05171  0.31116  1.0000
  C   C2991     1.0  0.60157  0.04305  0.31251  1.0000
  C   C2992     1.0  0.59109  0.03327  0.30618  1.0000
  C   C2993     1.0  0.59634  0.05021  0.29404  1.0000
  C   C2994     1.0  0.57167  0.05298  0.30659  1.0000
  C   C2995     1.0  0.60614  0.05348  0.31121  1.0000
  C   C2996     1.0  0.58664  0.02647  0.31773  1.0000
  C   C2997     1.0  0.75195  0.12641  0.46928  1.0000
  H   H5112     1.0  0.57994  0.04859  0.32030  1.0000
  H   H5113     1.0  0.58329  0.06029  0.31011  1.0000
  H   H5114     1.0  0.60885  0.03618  0.31055  1.0000
  H   H5115     1.0  0.59819  0.04037  0.32155  1.0000
  H   H5116     1.0  0.58530  0.03397  0.30075  1.0000
  H   H5117     1.0  0.59910  0.02800  0.30257  1.0000
  H   H5118     1.0  0.59006  0.05060  0.28926  1.0000
  H   H5119     1.0  0.59636  0.05913  0.29314  1.0000
  H   H5120     1.0  0.56448  0.05848  0.31104  1.0000
  H   H5121     1.0  0.57275  0.05710  0.29769  1.0000
  H   H5122     1.0  0.56920  0.04495  0.30798  1.0000
  H   H5123     1.0  0.59949  0.06028  0.31428  1.0000
  H   H5124     1.0  0.61258  0.05129  0.31630  1.0000
  H   H5125     1.0  0.61037  0.05654  0.30254  1.0000
  H   H5126     1.0  0.57832  0.03079  0.32178  1.0000
  H   H5127     1.0  0.59264  0.02438  0.32324  1.0000
  H   H5128     1.0  0.58556  0.01846  0.31674  1.0000
  C   C2998     1.0  0.72857  0.11640  0.40242  1.0000
  H   H5129     1.0  0.68491  0.06918  0.33451  1.0000
  H   H5130     1.0  0.68047  0.07589  0.35126  1.0000
  N   N215      1.0  0.85434  0.14921  0.39602  1.0000
  C   C2999     1.0  0.86326  0.13927  0.39943  1.0000
  C   C3000     1.0  0.84332  0.14561  0.39903  1.0000
  C   C3001     1.0  0.85310  0.15835  0.40194  1.0000
  C   C3002     1.0  0.85766  0.15366  0.38370  1.0000
  C   C3003     1.0  0.87489  0.14168  0.39817  1.0000
  C   C3004     1.0  0.84258  0.13710  0.39284  1.0000
  C   C3005     1.0  0.85119  0.15495  0.41471  1.0000
  C   C3006     1.0  0.84876  0.16292  0.37844  1.0000
  H   H5131     1.0  0.86053  0.13494  0.40819  1.0000
  H   H5132     1.0  0.86468  0.13293  0.39443  1.0000
  H   H5133     1.0  0.83635  0.15289  0.39769  1.0000
  H   H5134     1.0  0.84122  0.14179  0.40802  1.0000
  H   H5135     1.0  0.86049  0.16232  0.39886  1.0000
  H   H5136     1.0  0.84585  0.16520  0.40011  1.0000
  H   H5137     1.0  0.86523  0.15725  0.38172  1.0000
  H   H5138     1.0  0.86011  0.14683  0.37909  1.0000
  H   H5139     1.0  0.88062  0.13378  0.40115  1.0000
  H   H5140     1.0  0.87873  0.14481  0.38938  1.0000
  H   H5141     1.0  0.87464  0.14759  0.40321  1.0000
  H   H5142     1.0  0.83392  0.13555  0.39550  1.0000
  H   H5143     1.0  0.84407  0.14020  0.38373  1.0000
  H   H5144     1.0  0.84833  0.12895  0.39493  1.0000
  H   H5145     1.0  0.85049  0.16241  0.41795  1.0000
  H   H5146     1.0  0.85823  0.14855  0.41762  1.0000
  H   H5147     1.0  0.84320  0.15213  0.41849  1.0000
  H   H5148     1.0  0.84118  0.15992  0.37892  1.0000
  H   H5149     1.0  0.85234  0.16575  0.36949  1.0000
  H   H5150     1.0  0.84628  0.17034  0.38218  1.0000
  H   H5151     1.0  0.84434  0.23398  0.40613  1.0000
  H   H5152     1.0  0.58045  0.09772  0.25657  1.0000
  H   H5153     1.0  0.59466  0.99754  0.25950  1.0000
  H   H5154     1.0  0.71704  0.12660  0.41293  1.0000
  H   H5155     1.0  0.75363  0.10235  0.42239  1.0000
  H   H5156     1.0  0.74089  0.10731  0.43142  1.0000
  H   H5157     1.0  0.73540  0.13231  0.42856  1.0000
  C   C3007     1.0  0.74479  0.10692  0.42265  1.0000
  C   C3008     1.0  0.84950  0.22980  0.37195  1.0000
  H   H5158     1.0  0.56176  0.14010  0.25124  1.0000
  H   H5159     1.0  0.83160  0.23641  0.39320  1.0000
  H   H5160     1.0  0.74064  0.10192  0.41983  1.0000
  H   H5161     1.0  0.72710  0.12214  0.43286  1.0000
  H   H5162     1.0  0.58660  0.09934  0.24212  1.0000
  H   H5163     1.0  0.58687  0.06487  0.27233  1.0000
  H   H5164     1.0  0.61571  0.07137  0.24634  1.0000
  N   N216      1.0  0.73337  0.12634  0.41507  1.0000
  C   C3009     1.0  0.74470  0.11861  0.41506  1.0000
  H   H5165     1.0  0.92519  0.19241  0.45706  1.0000
  C   C3010     1.0  0.69936  0.09412  0.33762  1.0000
  C   C3011     1.0  0.59693  0.99563  0.26766  1.0000
  H   H5166     1.0  0.61084  0.07125  0.27138  1.0000
  H   H5167     1.0  0.66290  0.05541  0.25133  1.0000
  C   C3012     1.0  0.72896  0.12950  0.42623  1.0000
  H   H5168     1.0  0.75039  0.13956  0.40726  1.0000
  H   H5169     1.0  0.71099  0.13630  0.42576  1.0000
  H   H5170     1.0  0.90983  0.17172  0.45768  1.0000
  H   H5171     1.0  0.61403  0.04058  0.29267  1.0000
  H   H5172     1.0  0.91027  0.18545  0.46788  1.0000
  C   C3013     1.0  0.74165  0.14401  0.40706  1.0000
  H   H5173     1.0  0.82190  0.19830  0.44062  1.0000
  H   H5174     1.0  0.76157  0.07185  0.34771  1.0000
  C   C3014     1.0  0.90420  0.18783  0.46235  1.0000
  H   H5175     1.0  0.73185  0.11119  0.34890  1.0000
  N   N217      1.0  0.90156  0.20026  0.45801  1.0000
  H   H5176     1.0  0.68698  0.08296  0.35749  1.0000
  H   H5177     1.0  0.73803  0.14767  0.41450  1.0000
  C   C3015     1.0  0.77142  0.99485  0.38238  1.0000
  H   H5178     1.0  0.51458  0.08366  0.26750  1.0000
  C   C3016     1.0  0.72978  0.00548  0.39608  1.0000
  C   C3017     1.0  0.88361  0.23282  0.37739  1.0000
  H   H5179     1.0  0.99674  0.18645  0.43468  1.0000
  H   H5180     1.0  0.99499  0.21220  0.41325  1.0000
  H   H5181     1.0  0.49982  0.10069  0.26890  1.0000
  C   C3018     1.0  0.84958  0.23541  0.36093  1.0000
  H   H5182     1.0  0.88710  0.22770  0.40733  1.0000
  H   H5183     1.0  0.75098  0.13080  0.47597  1.0000
  H   H5184     1.0  0.80822  0.21451  0.44535  1.0000
  H   H5185     1.0  0.87941  0.23744  0.39754  1.0000
  S   S861      1.0  0.90073  0.23649  0.47113  1.0000
  H   H5186     1.0  0.74401  0.12400  0.46987  1.0000
  C   C3019     1.0  0.51523  0.09332  0.23962  1.0000
  H   H5187     1.0  0.51396  0.10241  0.23892  1.0000
  C   C3020     1.0  0.83548  0.17772  0.45147  1.0000
  C   C3021     1.0  0.75112  0.10195  0.47830  1.0000
  C   C3022     1.0  0.77543  0.09353  0.46660  1.0000
  H   H5188     1.0  0.83803  0.18707  0.46172  1.0000
  C   C3023     1.0  0.76206  0.11639  0.46920  1.0000
  C   C3024     1.0  0.90877  0.23934  0.45765  1.0000
  H   H5189     1.0  0.82107  0.18402  0.47488  1.0000
  H   H5190     1.0  0.79777  0.19033  0.46971  1.0000
  H   H5191     1.0  0.96726  0.23333  0.39711  1.0000
  H   H5192     1.0  0.84823  0.23595  0.41772  1.0000
  C   C3025     1.0  0.60531  0.99453  0.23319  1.0000
  H   H5193     1.0  0.78293  0.08663  0.46710  1.0000
  C   C3026     1.0  0.77191  0.09808  0.47731  1.0000
  H   H5194     1.0  0.99168  0.18108  0.40300  1.0000
  H   H5195     1.0  0.80196  0.20046  0.47438  1.0000
  C   C3027     1.0  0.57109  0.12172  0.23410  1.0000
  N   N218      1.0  0.76087  0.10639  0.47867  1.0000
  H   H5196     1.0  0.89078  0.19491  0.48228  1.0000
  C   C3028     1.0  0.76542  0.98992  0.37793  1.0000
  H   H5197     1.0  0.80207  0.18709  0.48274  1.0000
  H   H5198     1.0  0.66347  0.09880  0.23348  1.0000
  H   H5199     1.0  0.72358  0.98965  0.38936  1.0000
  H   H5200     1.0  0.55619  0.10205  0.71263  1.0000
  C   C3029     1.0  0.56249  0.14219  0.70198  1.0000
  Fe  Fe432     1.0  0.95847  0.21941  0.61478  1.0000
  S   S862      1.0  0.97500  0.21241  0.62032  1.0000
  Fe  Fe433     1.0  0.93314  0.21954  0.61940  1.0000
  C   C3030     1.0  0.73513  0.15914  0.59193  1.0000
  S   S863      1.0  0.91727  0.21413  0.63024  1.0000
  H   H5201     1.0  0.71127  0.10748  0.54357  1.0000
  C   C3031     1.0  0.66527  0.18920  0.61802  1.0000
  H   H5202     1.0  0.91587  0.19968  0.57863  1.0000
  S   S864      1.0  0.94848  0.21084  0.60877  1.0000
  N   N219      1.0  0.64588  0.13682  0.72731  1.0000
  H   H5203     1.0  0.65768  0.11344  0.65204  1.0000
  H   H5204     1.0  0.81160  0.20001  0.57827  1.0000
  C   C3032     1.0  0.92313  0.21734  0.57350  1.0000
  H   H5205     1.0  0.99359  0.21747  0.59791  1.0000
  H   H5206     1.0  0.73449  0.04050  0.57338  1.0000
  Fe  Fe434     1.0  0.75101  0.05784  0.60043  1.0000
  S   S865      1.0  0.76887  0.04889  0.59640  1.0000
  S   S866      1.0  0.74083  0.06314  0.58746  1.0000
  Fe  Fe435     1.0  0.75183  0.05738  0.62382  1.0000
  S   S867      1.0  0.76981  0.04809  0.62179  1.0000
  S   S868      1.0  0.74294  0.06405  0.63916  1.0000
  Fe  Fe436     1.0  0.77223  0.06019  0.60533  1.0000
  S   S869      1.0  0.78586  0.07002  0.59738  1.0000
  Fe  Fe437     1.0  0.76446  0.03781  0.61307  1.0000
  S   S870      1.0  0.76960  0.01910  0.61458  1.0000
  S   S871      1.0  0.75463  0.07002  0.60794  1.0000
  S   S872      1.0  0.74625  0.04618  0.61657  1.0000
  Fe  Fe438     1.0  0.75154  0.11011  0.54262  1.0000
  S   S873      1.0  0.73552  0.11020  0.53831  1.0000
  S   S874      1.0  0.76483  0.09507  0.54689  1.0000
  Fe  Fe439     1.0  0.74639  0.13471  0.54137  1.0000
  S   S875      1.0  0.72988  0.13733  0.53659  1.0000
  S   S876      1.0  0.75248  0.14897  0.54342  1.0000
  Fe  Fe440     1.0  0.72757  0.12204  0.54981  1.0000
  S   S877      1.0  0.71078  0.12055  0.56121  1.0000
  Fe  Fe441     1.0  0.73891  0.12536  0.52534  1.0000
  S   S878      1.0  0.73572  0.12889  0.50794  1.0000
  S   S879      1.0  0.74328  0.12036  0.55550  1.0000
  S   S880      1.0  0.75573  0.12435  0.52873  1.0000
  S   S881      1.0  0.74792  0.99884  0.58740  1.0000
  C   C3033     1.0  0.67249  0.16790  0.63489  1.0000
  S   S882      1.0  0.62126  0.13061  0.71024  1.0000
  S   S883      1.0  0.62161  0.10763  0.70320  1.0000
  Fe  Fe442     1.0  0.63354  0.11456  0.70821  1.0000
  S   S884      1.0  0.65207  0.11285  0.70055  1.0000
  Fe  Fe443     1.0  0.60881  0.12293  0.70707  1.0000
  S   S885      1.0  0.59628  0.13226  0.69640  1.0000
  C   C3034     1.0  0.88521  0.22957  0.53028  1.0000
  Fe  Fe444     1.0  0.69600  0.11081  0.63343  1.0000
  S   S886      1.0  0.68301  0.12578  0.62810  1.0000
  S   S887      1.0  0.69490  0.09323  0.63459  1.0000
  Fe  Fe445     1.0  0.71058  0.12440  0.63648  1.0000
  S   S888      1.0  0.69875  0.14063  0.63189  1.0000
  S   S889      1.0  0.72756  0.12155  0.64023  1.0000
  Fe  Fe446     1.0  0.68509  0.13173  0.64225  1.0000
  S   S890      1.0  0.66914  0.14022  0.65239  1.0000
  Fe  Fe447     1.0  0.69758  0.13345  0.61816  1.0000
  S   S891      1.0  0.69887  0.14480  0.60118  1.0000
  S   S892      1.0  0.69705  0.11616  0.64830  1.0000
  S   S893      1.0  0.71042  0.11786  0.62201  1.0000
  Fe  Fe448     1.0  0.79129  0.12583  0.60810  1.0000
  S   S894      1.0  0.77760  0.13351  0.59874  1.0000
  S   S895      1.0  0.79369  0.10754  0.61669  1.0000
  Fe  Fe449     1.0  0.80000  0.14769  0.60274  1.0000
  S   S896      1.0  0.78680  0.15688  0.59272  1.0000
  S   S897      1.0  0.81448  0.15574  0.60247  1.0000
  Fe  Fe450     1.0  0.77499  0.14801  0.60655  1.0000
  S   S898      1.0  0.75707  0.15664  0.61219  1.0000
  Fe  Fe451     1.0  0.79038  0.14160  0.58575  1.0000
  S   S899      1.0  0.79223  0.14185  0.56761  1.0000
  S   S900      1.0  0.78775  0.13977  0.61715  1.0000
  S   S901      1.0  0.80453  0.13292  0.59452  1.0000
  Fe  Fe452     1.0  0.84595  0.21352  0.63287  1.0000
  S   S902      1.0  0.85269  0.19494  0.63706  1.0000
  S   S903      1.0  0.83912  0.22441  0.64566  1.0000
  Fe  Fe453     1.0  0.84784  0.21317  0.60897  1.0000
  S   S904      1.0  0.85536  0.19488  0.61093  1.0000
  H   H5207     1.0  0.77577  0.99793  0.60818  1.0000
  Fe  Fe454     1.0  0.84189  0.19310  0.62639  1.0000
  S   S905      1.0  0.82892  0.18205  0.63096  1.0000
  Fe  Fe455     1.0  0.86552  0.19835  0.62116  1.0000
  S   S906      1.0  0.88415  0.19088  0.61960  1.0000
  S   S907      1.0  0.83398  0.21138  0.62388  1.0000
  S   S908      1.0  0.85918  0.21688  0.61759  1.0000
  C   C3035     1.0  0.71967  0.10733  0.49590  1.0000
  C   C3036     1.0  0.68648  0.13336  0.54457  1.0000
  C   C3037     1.0  0.96724  0.23757  0.65956  1.0000
  C   C3038     1.0  0.81830  0.16281  0.61078  1.0000
  C   C3039     1.0  0.81097  0.16627  0.62017  1.0000
  C   C3040     1.0  0.81436  0.17211  0.62621  1.0000
  C   C3041     1.0  0.82506  0.17474  0.62292  1.0000
  C   C3042     1.0  0.83239  0.17125  0.61357  1.0000
  C   C3043     1.0  0.82904  0.16531  0.60760  1.0000
  H   H5208     1.0  0.80270  0.16441  0.62279  1.0000
  H   H5209     1.0  0.80862  0.17463  0.63348  1.0000
  H   H5210     1.0  0.84072  0.17295  0.61104  1.0000
  H   H5211     1.0  0.83487  0.16255  0.60049  1.0000
  C   C3044     1.0  0.73556  0.13144  0.63232  1.0000
  C   C3045     1.0  0.74727  0.12831  0.63042  1.0000
  C   C3046     1.0  0.75389  0.13599  0.62417  1.0000
  C   C3047     1.0  0.74881  0.14698  0.62009  1.0000
  C   C3048     1.0  0.73709  0.15021  0.62213  1.0000
  C   C3049     1.0  0.73046  0.14239  0.62807  1.0000
  H   H5212     1.0  0.75125  0.11995  0.63381  1.0000
  H   H5213     1.0  0.76294  0.13346  0.62273  1.0000
  H   H5214     1.0  0.73313  0.15876  0.61912  1.0000
  H   H5215     1.0  0.72143  0.14493  0.62965  1.0000
  C   C3050     1.0  0.65661  0.12100  0.68741  1.0000
  C   C3051     1.0  0.64901  0.12873  0.68148  1.0000
  C   C3052     1.0  0.65295  0.13480  0.67082  1.0000
  C   C3053     1.0  0.66446  0.13300  0.66599  1.0000
  C   C3054     1.0  0.67205  0.12539  0.67200  1.0000
  C   C3055     1.0  0.66813  0.11949  0.68272  1.0000
  H   H5216     1.0  0.64011  0.12997  0.68505  1.0000
  H   H5217     1.0  0.64704  0.14072  0.66622  1.0000
  H   H5218     1.0  0.68094  0.12412  0.66843  1.0000
  H   H5219     1.0  0.67405  0.11361  0.68733  1.0000
  C   C3056     1.0  0.57390  0.14012  0.69681  1.0000
  H   H5220     1.0  0.57637  0.14166  0.68785  1.0000
  C   C3057     1.0  0.76350  0.14652  0.55034  1.0000
  C   C3058     1.0  0.76567  0.13704  0.55872  1.0000
  C   C3059     1.0  0.77388  0.13598  0.56472  1.0000
  C   C3060     1.0  0.78042  0.14402  0.56189  1.0000
  C   C3061     1.0  0.77838  0.15332  0.55335  1.0000
  C   C3062     1.0  0.76979  0.15470  0.54781  1.0000
  H   H5221     1.0  0.76082  0.13071  0.56078  1.0000
  H   H5222     1.0  0.77531  0.12886  0.57138  1.0000
  H   H5223     1.0  0.78349  0.15949  0.55097  1.0000
  H   H5224     1.0  0.76818  0.16205  0.54136  1.0000
  C   C3063     1.0  0.70703  0.12795  0.57187  1.0000
  C   C3064     1.0  0.71333  0.13535  0.57198  1.0000
  C   C3065     1.0  0.71052  0.14071  0.58090  1.0000
  C   C3066     1.0  0.70187  0.13824  0.58999  1.0000
  C   C3067     1.0  0.69546  0.13096  0.58982  1.0000
  C   C3068     1.0  0.69784  0.12609  0.58061  1.0000
  H   H5225     1.0  0.72029  0.13701  0.56516  1.0000
  H   H5226     1.0  0.71506  0.14673  0.58084  1.0000
  H   H5227     1.0  0.68855  0.12927  0.59669  1.0000
  H   H5228     1.0  0.69281  0.12055  0.58041  1.0000
  C   C3069     1.0  0.72980  0.12027  0.50344  1.0000
  C   C3070     1.0  0.72818  0.10981  0.50981  1.0000
  C   C3071     1.0  0.72303  0.10342  0.50610  1.0000
  H   H5229     1.0  0.99393  0.20890  0.63015  1.0000
  H   H5230     1.0  0.74117  0.12956  0.59426  1.0000
  H   H5231     1.0  0.74619  0.14290  0.57211  1.0000
  H   H5232     1.0  0.73074  0.10669  0.51767  1.0000
  H   H5233     1.0  0.72149  0.09549  0.51122  1.0000
  N   N220      1.0  0.51044  0.14732  0.71487  1.0000
  C   C3072     1.0  0.74493  0.13340  0.59875  1.0000
  C   C3073     1.0  0.72921  0.07150  0.63863  1.0000
  C   C3074     1.0  0.72256  0.06827  0.63347  1.0000
  C   C3075     1.0  0.71169  0.07455  0.63288  1.0000
  C   C3076     1.0  0.70773  0.08441  0.63686  1.0000
  C   C3077     1.0  0.71434  0.08755  0.64211  1.0000
  C   C3078     1.0  0.72492  0.08094  0.64326  1.0000
  H   H5234     1.0  0.72576  0.06086  0.63005  1.0000
  H   H5235     1.0  0.70653  0.07193  0.62903  1.0000
  H   H5236     1.0  0.71136  0.09507  0.64529  1.0000
  H   H5237     1.0  0.72988  0.08335  0.64750  1.0000
  C   C3079     1.0  0.78684  0.08037  0.60365  1.0000
  C   C3080     1.0  0.78088  0.09142  0.60101  1.0000
  C   C3081     1.0  0.78297  0.09992  0.60480  1.0000
  C   C3082     1.0  0.79096  0.09737  0.61134  1.0000
  C   C3083     1.0  0.79664  0.08629  0.61418  1.0000
  C   C3084     1.0  0.79472  0.07788  0.61024  1.0000
  H   H5238     1.0  0.77481  0.09344  0.59587  1.0000
  H   H5239     1.0  0.77841  0.10842  0.60272  1.0000
  H   H5240     1.0  0.80278  0.08423  0.61927  1.0000
  H   H5241     1.0  0.79951  0.06944  0.61216  1.0000
  C   C3085     1.0  0.76320  0.01321  0.60759  1.0000
  C   C3086     1.0  0.76812  0.00251  0.60546  1.0000
  C   C3087     1.0  0.76337  0.99784  0.59953  1.0000
  C   C3088     1.0  0.75362  0.00382  0.59577  1.0000
  C   C3089     1.0  0.74847  0.01431  0.59830  1.0000
  C   C3090     1.0  0.75328  0.01904  0.60408  1.0000
  H   H5242     1.0  0.88909  0.22757  0.53757  1.0000
  H   H5243     1.0  0.74079  0.01885  0.59562  1.0000
  H   H5244     1.0  0.74935  0.02722  0.60577  1.0000
  C   C3091     1.0  0.74747  0.07200  0.57616  1.0000
  C   C3092     1.0  0.74241  0.07727  0.56712  1.0000
  C   C3093     1.0  0.74774  0.08440  0.55809  1.0000
  C   C3094     1.0  0.75828  0.08595  0.55796  1.0000
  C   C3095     1.0  0.76344  0.08046  0.56687  1.0000
  C   C3096     1.0  0.75792  0.07372  0.57608  1.0000
  H   H5245     1.0  0.73435  0.07591  0.56713  1.0000
  H   H5246     1.0  0.74379  0.08851  0.55114  1.0000
  H   H5247     1.0  0.77159  0.08160  0.56677  1.0000
  H   H5248     1.0  0.76183  0.06982  0.58307  1.0000
  C   C3097     1.0  0.90879  0.20841  0.62529  1.0000
  C   C3098     1.0  0.91223  0.19747  0.62371  1.0000
  C   C3099     1.0  0.90464  0.19227  0.62183  1.0000
  C   C3100     1.0  0.89348  0.19788  0.62168  1.0000
  C   C3101     1.0  0.89013  0.20894  0.62294  1.0000
  C   C3102     1.0  0.89776  0.21417  0.62470  1.0000
  H   H5249     1.0  0.92062  0.19283  0.62440  1.0000
  H   H5250     1.0  0.90734  0.18374  0.62081  1.0000
  H   H5251     1.0  0.88161  0.21341  0.62272  1.0000
  H   H5252     1.0  0.89503  0.22260  0.62592  1.0000
  C   C3103     1.0  0.70612  0.11082  0.53716  1.0000
  H   H5253     1.0  0.71901  0.99741  0.63508  1.0000
  S   S909      1.0  0.62946  0.10623  0.72629  1.0000
  C   C3104     1.0  0.90855  0.23348  0.51977  1.0000
  C   C3105     1.0  0.86572  0.21696  0.58598  1.0000
  C   C3106     1.0  0.87593  0.21759  0.57844  1.0000
  H   H5254     1.0  0.55623  0.14541  0.69697  1.0000
  H   H5255     1.0  0.86566  0.21138  0.59399  1.0000
  H   H5256     1.0  0.88361  0.21253  0.58070  1.0000
  H   H5257     1.0  0.75791  0.15537  0.57056  1.0000
  H   H5258     1.0  0.75437  0.14543  0.59669  1.0000
  H   H5259     1.0  0.80550  0.18854  0.67357  1.0000
  H   H5260     1.0  0.72121  0.15615  0.60594  1.0000
  N   N221      1.0  0.69826  0.12972  0.52526  1.0000
  H   H5261     1.0  0.81807  0.20111  0.61262  1.0000
  H   H5262     1.0  0.98352  0.22863  0.59220  1.0000
  C   C3107     1.0  0.80506  0.20377  0.67756  1.0000
  C   C3108     1.0  0.58211  0.13586  0.70318  1.0000
  H   H5263     1.0  0.83124  0.21371  0.58342  1.0000
  H   H5264     1.0  0.52701  0.13711  0.71021  1.0000
  C   C3109     1.0  0.98044  0.22167  0.62443  1.0000
  C   C3110     1.0  0.83099  0.21297  0.56697  1.0000
  Fe  Fe456     1.0  0.61662  0.10050  0.72137  1.0000
  H   H5265     1.0  0.83287  0.23855  0.60969  1.0000
  C   C3111     1.0  0.66572  0.15475  0.61427  1.0000
  C   C3112     1.0  0.76886  0.03162  0.55792  1.0000
  C   C3113     1.0  0.72542  0.99760  0.61278  1.0000
  H   H5266     1.0  0.68732  0.18183  0.61568  1.0000
  C   C3114     1.0  0.91994  0.22249  0.56210  1.0000
  H   H5267     1.0  0.69811  0.17198  0.60908  1.0000
  H   H5268     1.0  0.63002  0.14422  0.72232  1.0000
  H   H5269     1.0  0.66195  0.13476  0.73123  1.0000
  H   H5270     1.0  0.70790  0.14451  0.53120  1.0000
  C   C3115     1.0  0.59525  0.10164  0.69643  1.0000
  H   H5271     1.0  0.56487  0.13443  0.72892  1.0000
  H   H5272     1.0  0.94971  0.22388  0.64873  1.0000
  N   N222      1.0  0.67116  0.16763  0.62361  1.0000
  H   H5273     1.0  0.90055  0.22192  0.51110  1.0000
  C   C3116     1.0  0.89919  0.23077  0.50654  1.0000
  H   H5274     1.0  0.73395  0.00678  0.62498  1.0000
  H   H5275     1.0  0.63644  0.15041  0.70265  1.0000
  H   H5276     1.0  0.67762  0.13616  0.54872  1.0000
  H   H5277     1.0  0.59102  0.11093  0.70922  1.0000
  C   C3117     1.0  0.89351  0.23059  0.66306  1.0000
  C   C3118     1.0  0.99467  0.22499  0.63205  1.0000
  H   H5278     1.0  0.73504  0.00252  0.64447  1.0000
  N   N223      1.0  0.76017  0.08867  0.63755  1.0000
  C   C3119     1.0  0.75045  0.09568  0.63239  1.0000
  C   C3120     1.0  0.75534  0.08313  0.64922  1.0000
  C   C3121     1.0  0.76643  0.08001  0.63074  1.0000
  C   C3122     1.0  0.76758  0.09623  0.63730  1.0000
  C   C3123     1.0  0.75337  0.10127  0.61997  1.0000
  C   C3124     1.0  0.74853  0.09101  0.65709  1.0000
  C   C3125     1.0  0.77339  0.06916  0.63649  1.0000
  C   C3126     1.0  0.77766  0.09100  0.64291  1.0000
  H   H5279     1.0  0.74429  0.09058  0.63323  1.0000
  H   H5280     1.0  0.74581  0.10255  0.63673  1.0000
  H   H5281     1.0  0.76190  0.07730  0.65342  1.0000
  H   H5282     1.0  0.74980  0.07778  0.64906  1.0000
  H   H5283     1.0  0.76053  0.07724  0.62753  1.0000
  H   H5284     1.0  0.77218  0.08367  0.62329  1.0000
  H   H5285     1.0  0.77128  0.09991  0.62861  1.0000
  H   H5286     1.0  0.76271  0.10367  0.64071  1.0000
  H   H5287     1.0  0.75866  0.10740  0.61841  1.0000
  H   H5288     1.0  0.75743  0.09509  0.61467  1.0000
  H   H5289     1.0  0.74547  0.10601  0.61729  1.0000
  H   H5290     1.0  0.75349  0.09660  0.65783  1.0000
  H   H5291     1.0  0.74062  0.09599  0.65458  1.0000
  H   H5292     1.0  0.74606  0.08592  0.66552  1.0000
  H   H5293     1.0  0.76785  0.06379  0.64246  1.0000
  H   H5294     1.0  0.77923  0.07060  0.64070  1.0000
  H   H5295     1.0  0.77857  0.06437  0.63011  1.0000
  H   H5296     1.0  0.78500  0.08713  0.63714  1.0000
  H   H5297     1.0  0.77583  0.08491  0.65076  1.0000
  H   H5298     1.0  0.78006  0.09768  0.64525  1.0000
  N   N224      1.0  0.91357  0.21532  0.58331  1.0000
  C   C3127     1.0  0.91817  0.21244  0.59367  1.0000
  H   H5299     1.0  0.99141  0.23490  0.60431  1.0000
  C   C3128     1.0  0.90891  0.20611  0.58209  1.0000
  C   C3129     1.0  0.92835  0.20258  0.59426  1.0000
  H   H5300     1.0  0.85703  0.23749  0.63420  1.0000
  C   C3130     1.0  0.90241  0.19962  0.59279  1.0000
  H   H5301     1.0  0.91176  0.21048  0.60127  1.0000
  H   H5302     1.0  0.92077  0.21977  0.59460  1.0000
  H   H5303     1.0  0.96820  0.23625  0.61927  1.0000
  S   S910      1.0  0.93006  0.23497  0.60625  1.0000
  H   H5304     1.0  0.92994  0.20018  0.60279  1.0000
  H   H5305     1.0  0.92692  0.19516  0.59238  1.0000
  H   H5306     1.0  0.93607  0.20496  0.58860  1.0000
  H   H5307     1.0  0.68875  0.12294  0.50509  1.0000
  C   C3131     1.0  0.68684  0.13203  0.53283  1.0000
  H   H5308     1.0  0.72699  0.00602  0.61150  1.0000
  H   H5309     1.0  0.89593  0.19667  0.59069  1.0000
  H   H5310     1.0  0.89799  0.20448  0.59918  1.0000
  H   H5311     1.0  0.90800  0.19194  0.59640  1.0000
  N   N225      1.0  0.81924  0.19491  0.66175  1.0000
  C   C3132     1.0  0.82595  0.18361  0.65978  1.0000
  C   C3133     1.0  0.82750  0.20195  0.66052  1.0000
  C   C3134     1.0  0.81912  0.17530  0.65962  1.0000
  C   C3135     1.0  0.83548  0.19769  0.66866  1.0000
  H   H5312     1.0  0.83221  0.18450  0.65175  1.0000
  H   H5313     1.0  0.83090  0.17928  0.66626  1.0000
  H   H5314     1.0  0.83276  0.20289  0.65197  1.0000
  H   H5315     1.0  0.81663  0.18774  0.67950  1.0000
  H   H5316     1.0  0.81393  0.17255  0.66791  1.0000
  H   H5317     1.0  0.81381  0.17862  0.65338  1.0000
  H   H5318     1.0  0.82507  0.16772  0.65725  1.0000
  H   H5319     1.0  0.84168  0.19001  0.66699  1.0000
  H   H5320     1.0  0.84040  0.20410  0.66744  1.0000
  H   H5321     1.0  0.83088  0.19638  0.67744  1.0000
  H   H5322     1.0  0.55453  0.11454  0.70205  1.0000
  H   H5323     1.0  0.66367  0.16982  0.65156  1.0000
  H   H5324     1.0  0.76714  0.03647  0.54971  1.0000
  C   C3136     1.0  0.50165  0.13312  0.71089  1.0000
  H   H5325     1.0  0.83208  0.19583  0.60634  1.0000
  H   H5326     1.0  0.74241  0.03752  0.58377  1.0000
  C   C3137     1.0  0.69773  0.12326  0.51719  1.0000
  H   H5327     1.0  0.88899  0.22807  0.67176  1.0000
  C   C3138     1.0  0.75144  0.04337  0.56682  1.0000
  C   C3139     1.0  0.73938  0.14825  0.57705  1.0000
  H   H5328     1.0  0.75375  0.16774  0.58945  1.0000
  C   C3140     1.0  0.75899  0.16360  0.58264  1.0000
  H   H5329     1.0  0.72787  0.13214  0.48814  1.0000
  H   H5330     1.0  0.65720  0.19543  0.61865  1.0000
  H   H5331     1.0  0.71728  0.16024  0.59295  1.0000
  H   H5332     1.0  0.67794  0.15995  0.63834  1.0000
  C   C3141     1.0  0.80861  0.21278  0.65010  1.0000
  H   H5333     1.0  0.87544  0.22306  0.66582  1.0000
  C   C3142     1.0  0.75092  0.14259  0.59111  1.0000
  C   C3143     1.0  0.75193  0.15968  0.57696  1.0000
  H   H5334     1.0  0.72917  0.15343  0.56463  1.0000
  C   C3144     1.0  0.89477  0.22654  0.59309  1.0000
  H   H5335     1.0  0.73916  0.16169  0.56201  1.0000
  H   H5336     1.0  0.83327  0.22125  0.56445  1.0000
  H   H5337     1.0  0.60452  0.10036  0.69473  1.0000
  C   C3145     1.0  0.63894  0.14506  0.71954  1.0000
  C   C3146     1.0  0.82633  0.21037  0.57962  1.0000
  H   H5338     1.0  0.88105  0.23188  0.50836  1.0000
  C   C3147     1.0  0.88363  0.21656  0.65110  1.0000
  H   H5339     1.0  0.57369  0.10670  0.69710  1.0000
  C   C3148     1.0  0.57140  0.10912  0.70527  1.0000
  H   H5340     1.0  0.69569  0.14537  0.51321  1.0000
  H   H5341     1.0  0.96774  0.23068  0.65559  1.0000
  C   C3149     1.0  0.64276  0.14452  0.70718  1.0000
  Fe  Fe457     1.0  0.94593  0.22688  0.59606  1.0000
  H   H5342     1.0  0.90876  0.22204  0.65266  1.0000
  H   H5343     1.0  0.74683  0.00791  0.63581  1.0000
  C   C3150     1.0  0.94503  0.23147  0.65198  1.0000
  H   H5344     1.0  0.57305  0.11763  0.70348  1.0000
  H   H5345     1.0  0.69108  0.13958  0.54456  1.0000
  C   C3151     1.0  0.58716  0.07978  0.71688  1.0000
  S   S911      1.0  0.94800  0.22728  0.57803  1.0000
  C   C3152     1.0  0.75073  0.08971  0.48428  1.0000
  C   C3153     1.0  0.70727  0.12290  0.53147  1.0000
  H   H5346     1.0  0.74490  0.02788  0.57488  1.0000
  H   H5347     1.0  0.89262  0.21571  0.64719  1.0000
  H   H5348     1.0  0.74886  0.05171  0.56899  1.0000
  H   H5349     1.0  0.92663  0.22829  0.51787  1.0000
  H   H5350     1.0  0.65080  0.14724  0.70337  1.0000
  H   H5351     1.0  0.69426  0.16915  0.62382  1.0000
  C   C3154     1.0  0.66574  0.13204  0.71467  1.0000
  H   H5352     1.0  0.68693  0.15755  0.61684  1.0000
  C   C3155     1.0  0.72160  0.11764  0.48938  1.0000
  H   H5353     1.0  0.50325  0.15688  0.70083  1.0000
  H   H5354     1.0  0.70933  0.10534  0.53107  1.0000
  H   H5355     1.0  0.73361  0.14269  0.58181  1.0000
  C   C3156     1.0  0.85576  0.22382  0.58329  1.0000
  H   H5356     1.0  0.83858  0.20673  0.56432  1.0000
  C   C3157     1.0  0.83785  0.19095  0.58431  1.0000
  C   C3158     1.0  0.81794  0.18236  0.58340  1.0000
  C   C3159     1.0  0.84727  0.19624  0.58480  1.0000
  H   H5357     1.0  0.81912  0.18865  0.60076  1.0000
  H   H5358     1.0  0.83776  0.18338  0.59111  1.0000
  H   H5359     1.0  0.84086  0.18767  0.57656  1.0000
  H   H5360     1.0  0.81479  0.17982  0.57738  1.0000
  H   H5361     1.0  0.82572  0.17617  0.58483  1.0000
  H   H5362     1.0  0.81140  0.18181  0.59118  1.0000
  H   H5363     1.0  0.84969  0.20230  0.57704  1.0000
  H   H5364     1.0  0.85488  0.18960  0.58587  1.0000
  C   C3160     1.0  0.73322  0.15738  0.56877  1.0000
  H   H5365     1.0  0.75830  0.13850  0.58547  1.0000
  H   H5366     1.0  0.59319  0.09457  0.69450  1.0000
  C   C3161     1.0  0.74296  0.03679  0.57518  1.0000
  H   H5367     1.0  0.73865  0.13644  0.60576  1.0000
  H   H5368     1.0  0.76673  0.01480  0.56774  1.0000
  H   H5369     1.0  0.81770  0.21561  0.58120  1.0000
  H   H5370     1.0  0.88907  0.22133  0.59309  1.0000
  C   C3162     1.0  0.90307  0.22047  0.66091  1.0000
  H   H5371     1.0  0.69318  0.13564  0.50247  1.0000
  H   H5372     1.0  0.70998  0.13851  0.51266  1.0000
  H   H5373     1.0  0.92772  0.22218  0.55550  1.0000
  C   C3163     1.0  0.81232  0.19995  0.65296  1.0000
  H   H5374     1.0  0.89988  0.21286  0.66221  1.0000
  H   H5375     1.0  0.70782  0.12688  0.53793  1.0000
  C   C3164     1.0  0.68241  0.16641  0.61558  1.0000
  C   C3165     1.0  0.76481  0.02074  0.56004  1.0000
  H   H5376     1.0  0.53473  0.15019  0.69392  1.0000
  H   H5377     1.0  0.79693  0.20683  0.67488  1.0000
  N   N226      1.0  0.74406  0.15236  0.58445  1.0000
  H   H5378     1.0  0.89725  0.22445  0.60117  1.0000
  H   H5379     1.0  0.86642  0.23758  0.55748  1.0000
  H   H5380     1.0  0.72662  0.16353  0.57291  1.0000
  H   H5381     1.0  0.81586  0.21671  0.64560  1.0000
  C   C3166     1.0  0.84282  0.23600  0.64791  1.0000
  H   H5382     1.0  0.91575  0.23144  0.56142  1.0000
  H   H5383     1.0  0.80274  0.21514  0.64440  1.0000
  H   H5384     1.0  0.58501  0.13136  0.71977  1.0000
  H   H5385     1.0  0.76348  0.16976  0.57643  1.0000
  H   H5386     1.0  0.67206  0.14986  0.62918  1.0000
  H   H5387     1.0  0.55511  0.11555  0.71544  1.0000
  H   H5388     1.0  0.75639  0.10559  0.50719  1.0000
  C   C3167     1.0  0.70173  0.14040  0.51849  1.0000
  H   H5389     1.0  0.71689  0.99720  0.61786  1.0000
  H   H5390     1.0  0.69512  0.11527  0.52164  1.0000
  H   H5391     1.0  0.68978  0.12533  0.54988  1.0000
  C   C3168     1.0  0.98963  0.23634  0.63067  1.0000
  H   H5392     1.0  0.75898  0.06078  0.55295  1.0000
  H   H5393     1.0  0.68121  0.13280  0.51359  1.0000
  C   C3169     1.0  0.72661  0.12408  0.49315  1.0000
  H   H5394     1.0  0.52003  0.14235  0.72767  1.0000
  H   H5395     1.0  0.50568  0.16511  0.70878  1.0000
  H   H5396     1.0  0.88767  0.22219  0.52654  1.0000
  H   H5397     1.0  0.76741  0.98975  0.59762  1.0000
  H   H5398     1.0  0.90112  0.22824  0.57577  1.0000
  H   H5399     1.0  0.90839  0.21863  0.66706  1.0000
  H   H5400     1.0  0.65678  0.16324  0.64565  1.0000
  H   H5401     1.0  0.87595  0.23096  0.53317  1.0000
  C   C3170     1.0  0.52728  0.15361  0.69990  1.0000
  H   H5402     1.0  0.64713  0.12299  0.71976  1.0000
  H   H5403     1.0  0.68143  0.13969  0.52886  1.0000
  H   H5404     1.0  0.89752  0.23739  0.66300  1.0000
  C   C3171     1.0  0.70264  0.14851  0.52500  1.0000
  H   H5405     1.0  0.65605  0.17814  0.64122  1.0000
  C   C3172     1.0  0.64460  0.12524  0.72795  1.0000
  C   C3173     1.0  0.65793  0.13801  0.72392  1.0000
  H   H5406     1.0  0.68135  0.16870  0.60684  1.0000
  H   H5407     1.0  0.52210  0.16063  0.69500  1.0000
  N   N227      1.0  0.76380  0.03855  0.56661  1.0000
  C   C3174     1.0  0.76968  0.04812  0.56363  1.0000
  C   C3175     1.0  0.76549  0.03193  0.57794  1.0000
  H   H5408     1.0  0.67083  0.11378  0.65422  1.0000
  C   C3176     1.0  0.76792  0.05676  0.55282  1.0000
  C   C3177     1.0  0.77775  0.02722  0.57922  1.0000
  H   H5409     1.0  0.76701  0.05274  0.57048  1.0000
  H   H5410     1.0  0.77891  0.04508  0.56261  1.0000
  H   H5411     1.0  0.76149  0.02468  0.58057  1.0000
  H   H5412     1.0  0.76127  0.03710  0.58427  1.0000
  H   H5413     1.0  0.72447  0.14618  0.59764  1.0000
  H   H5414     1.0  0.73266  0.16783  0.58723  1.0000
  H   H5415     1.0  0.77160  0.05310  0.54538  1.0000
  C   C3178     1.0  0.57723  0.08940  0.71406  1.0000
  H   H5416     1.0  0.77228  0.06354  0.55185  1.0000
  H   H5417     1.0  0.78255  0.02177  0.57335  1.0000
  H   H5418     1.0  0.78214  0.03388  0.57851  1.0000
  H   H5419     1.0  0.77775  0.02197  0.58770  1.0000
  N   N228      1.0  0.67316  0.09039  0.66762  1.0000
  C   C3179     1.0  0.68341  0.09499  0.66600  1.0000
  C   C3180     1.0  0.66723  0.09702  0.65838  1.0000
  C   C3181     1.0  0.67721  0.07843  0.66642  1.0000
  C   C3182     1.0  0.66603  0.09118  0.67906  1.0000
  C   C3183     1.0  0.69145  0.08878  0.67391  1.0000
  C   C3184     1.0  0.66817  0.07206  0.66734  1.0000
  C   C3185     1.0  0.65335  0.09164  0.68088  1.0000
  H   H5420     1.0  0.68848  0.09522  0.65739  1.0000
  H   H5421     1.0  0.68096  0.10375  0.66706  1.0000
  H   H5422     1.0  0.65964  0.09412  0.65878  1.0000
  H   H5423     1.0  0.67269  0.09580  0.65018  1.0000
  H   H5424     1.0  0.68320  0.07794  0.65828  1.0000
  H   H5425     1.0  0.68193  0.07338  0.67291  1.0000
  H   H5426     1.0  0.66939  0.08416  0.68545  1.0000
  H   H5427     1.0  0.66650  0.09887  0.68126  1.0000
  H   H5428     1.0  0.69766  0.09388  0.67287  1.0000
  H   H5429     1.0  0.68703  0.08749  0.68275  1.0000
  H   H5430     1.0  0.69636  0.08072  0.67180  1.0000
  H   H5431     1.0  0.67240  0.06361  0.66580  1.0000
  H   H5432     1.0  0.66297  0.07602  0.66105  1.0000
  H   H5433     1.0  0.66287  0.07082  0.67583  1.0000
  H   H5434     1.0  0.65035  0.08723  0.68951  1.0000
  H   H5435     1.0  0.65102  0.08774  0.67537  1.0000
  H   H5436     1.0  0.64848  0.10037  0.68042  1.0000
  N   N229      1.0  0.79524  0.10210  0.56597  1.0000
  C   C3186     1.0  0.79408  0.10863  0.57461  1.0000
  C   C3187     1.0  0.78511  0.10690  0.56079  1.0000
  C   C3188     1.0  0.80586  0.10372  0.55741  1.0000
  C   C3189     1.0  0.79598  0.09000  0.57165  1.0000
  C   C3190     1.0  0.80383  0.10543  0.58072  1.0000
  C   C3191     1.0  0.77366  0.10566  0.56861  1.0000
  C   C3192     1.0  0.80664  0.10212  0.54569  1.0000
  C   C3193     1.0  0.79598  0.08188  0.56468  1.0000
  H   H5437     1.0  0.79317  0.11768  0.57078  1.0000
  H   H5438     1.0  0.78642  0.10782  0.58119  1.0000
  H   H5439     1.0  0.78565  0.10316  0.55376  1.0000
  H   H5440     1.0  0.78467  0.11593  0.55702  1.0000
  H   H5441     1.0  0.80715  0.11235  0.55609  1.0000
  H   H5442     1.0  0.81334  0.09806  0.56037  1.0000
  H   H5443     1.0  0.80377  0.08657  0.57493  1.0000
  H   H5444     1.0  0.78926  0.08897  0.57923  1.0000
  H   H5445     1.0  0.80446  0.09693  0.58605  1.0000
  H   H5446     1.0  0.81198  0.10628  0.57497  1.0000
  H   H5447     1.0  0.80214  0.11122  0.58637  1.0000
  H   H5448     1.0  0.77117  0.11087  0.57487  1.0000
  H   H5449     1.0  0.76711  0.10854  0.56359  1.0000
  H   H5450     1.0  0.77345  0.09689  0.57281  1.0000
  H   H5451     1.0  0.80493  0.09406  0.54575  1.0000
  H   H5452     1.0  0.81527  0.10235  0.54073  1.0000
  H   H5453     1.0  0.80090  0.10904  0.54127  1.0000
  H   H5454     1.0  0.80465  0.07854  0.56043  1.0000
  H   H5455     1.0  0.79060  0.08546  0.55855  1.0000
  H   H5456     1.0  0.79240  0.07478  0.57029  1.0000
  N   N230      1.0  0.71718  0.09236  0.59822  1.0000
  C   C3194     1.0  0.71634  0.08553  0.59067  1.0000
  C   C3195     1.0  0.71909  0.10355  0.59135  1.0000
  C   C3196     1.0  0.70653  0.09408  0.60691  1.0000
  C   C3197     1.0  0.72673  0.08626  0.60395  1.0000
  C   C3198     1.0  0.71267  0.07440  0.59647  1.0000
  C   C3199     1.0  0.73026  0.10350  0.58270  1.0000
  C   C3200     1.0  0.69561  0.09919  0.60263  1.0000
  C   C3201     1.0  0.72974  0.09276  0.61092  1.0000
  H   H5457     1.0  0.71056  0.09041  0.58505  1.0000
  H   H5458     1.0  0.72455  0.08344  0.58498  1.0000
  H   H5459     1.0  0.71839  0.10940  0.59669  1.0000
  H   H5460     1.0  0.71245  0.10751  0.58655  1.0000
  H   H5461     1.0  0.70545  0.08612  0.61285  1.0000
  H   H5462     1.0  0.70689  0.09975  0.61196  1.0000
  H   H5463     1.0  0.72486  0.07842  0.60971  1.0000
  H   H5464     1.0  0.73446  0.08354  0.59786  1.0000
  H   H5465     1.0  0.71307  0.06989  0.59003  1.0000
  H   H5466     1.0  0.71833  0.06884  0.60188  1.0000
  H   H5467     1.0  0.70393  0.07563  0.60134  1.0000
  H   H5468     1.0  0.73071  0.09918  0.57610  1.0000
  H   H5469     1.0  0.73073  0.11226  0.57854  1.0000
  H   H5470     1.0  0.73772  0.09982  0.58642  1.0000
  H   H5471     1.0  0.69415  0.09432  0.59741  1.0000
  H   H5472     1.0  0.69539  0.10790  0.59809  1.0000
  H   H5473     1.0  0.68843  0.09939  0.60989  1.0000
  H   H5474     1.0  0.73301  0.10015  0.60573  1.0000
  H   H5475     1.0  0.73640  0.08728  0.61522  1.0000
  H   H5476     1.0  0.72259  0.09531  0.61754  1.0000
  H   H5477     1.0  0.86501  0.23857  0.67207  1.0000
  H   H5478     1.0  0.75123  0.12661  0.60257  1.0000
  H   H5479     1.0  0.66153  0.12922  0.70977  1.0000
  C   C3202     1.0  0.66296  0.17767  0.61903  1.0000
  H   H5480     1.0  0.81080  0.20209  0.59688  1.0000
  H   H5481     1.0  0.76533  0.09476  0.50064  1.0000
  H   H5482     1.0  0.88992  0.22741  0.49626  1.0000
  C   C3203     1.0  0.72406  0.15502  0.59725  1.0000
  H   H5483     1.0  0.70667  0.15517  0.51910  1.0000
  S   S912      1.0  0.84322  0.22376  0.59319  1.0000
  H   H5484     1.0  0.74726  0.16742  0.57230  1.0000
  C   C3204     1.0  0.57417  0.10446  0.72417  1.0000
  C   C3205     1.0  0.87623  0.22526  0.56832  1.0000
  C   C3206     1.0  0.66667  0.15740  0.62501  1.0000
  H   H5485     1.0  0.75576  0.02236  0.56018  1.0000
  H   H5486     1.0  0.57581  0.08844  0.70620  1.0000
  H   H5487     1.0  0.99694  0.22482  0.58355  1.0000
  H   H5488     1.0  0.88274  0.20866  0.65726  1.0000
  H   H5489     1.0  0.85253  0.23808  0.60384  1.0000
  H   H5490     1.0  0.76928  0.01642  0.55312  1.0000
  C   C3207     1.0  0.57880  0.13408  0.71477  1.0000
  C   C3208     1.0  0.66153  0.16990  0.64368  1.0000
  H   H5491     1.0  0.65816  0.15795  0.63048  1.0000
  C   C3209     1.0  0.69084  0.17283  0.61619  1.0000
  H   H5492     1.0  0.70615  0.12094  0.51193  1.0000
  H   H5493     1.0  0.66888  0.18964  0.62478  1.0000
  H   H5494     1.0  0.74964  0.04486  0.55845  1.0000
  C   C3210     1.0  0.55919  0.13986  0.71356  1.0000
  C   C3211     1.0  0.81995  0.19432  0.57867  1.0000
  H   H5495     1.0  0.65833  0.14698  0.72118  1.0000
  H   H5496     1.0  0.80958  0.21063  0.67519  1.0000
  C   C3212     1.0  0.56736  0.13590  0.71997  1.0000
  H   H5497     1.0  0.66271  0.14686  0.61648  1.0000
  C   C3213     1.0  0.85595  0.23103  0.57289  1.0000
  H   H5498     1.0  0.82455  0.19447  0.56992  1.0000
  H   H5499     1.0  0.84508  0.20044  0.59180  1.0000
  H   H5500     1.0  0.76556  0.15664  0.58574  1.0000
  H   H5501     1.0  0.76563  0.11443  0.48904  1.0000
  H   H5502     1.0  0.90340  0.20939  0.57598  1.0000
  H   H5503     1.0  0.67083  0.19184  0.60989  1.0000
  H   H5504     1.0  0.74778  0.99946  0.62091  1.0000
  H   H5505     1.0  0.51877  0.15658  0.72091  1.0000
  N   N231      1.0  0.82621  0.19827  0.58485  1.0000
  C   C3214     1.0  0.81963  0.19741  0.59668  1.0000
  C   C3215     1.0  0.66357  0.10969  0.65773  1.0000
  H   H5506     1.0  0.66263  0.17746  0.61051  1.0000
  H   H5507     1.0  0.81705  0.19765  0.64492  1.0000
  H   H5508     1.0  0.65922  0.11171  0.66591  1.0000
  H   H5509     1.0  0.73855  0.15995  0.59874  1.0000
  H   H5510     1.0  0.80421  0.21638  0.65744  1.0000
  H   H5511     1.0  0.67392  0.15336  0.60838  1.0000
  H   H5512     1.0  0.92942  0.20946  0.57256  1.0000
  C   C3216     1.0  0.81184  0.19324  0.67320  1.0000
  H   H5513     1.0  0.82332  0.21061  0.66132  1.0000
  H   H5514     1.0  0.56963  0.08759  0.72040  1.0000
  H   H5515     1.0  0.77816  0.02938  0.55670  1.0000
  S   S913      1.0  0.94349  0.22635  0.62672  1.0000
  C   C3217     1.0  0.82416  0.20147  0.60452  1.0000
  H   H5516     1.0  0.82453  0.21341  0.56240  1.0000
  H   H5517     1.0  0.82516  0.21021  0.60148  1.0000
  H   H5518     1.0  0.80460  0.19654  0.65523  1.0000
  H   H5519     1.0  0.80332  0.20170  0.68677  1.0000
  H   H5520     1.0  0.65953  0.16127  0.61009  1.0000
  C   C3218     1.0  0.59034  0.10261  0.70862  1.0000
  H   H5521     1.0  0.65420  0.17755  0.62377  1.0000
  C   C3219     1.0  0.75771  0.10146  0.50019  1.0000
  H   H5522     1.0  0.67691  0.17443  0.63449  1.0000
  H   H5523     1.0  0.74205  0.08933  0.48908  1.0000
  N   N232      1.0  0.57843  0.10111  0.71311  1.0000
  C   C3220     1.0  0.86622  0.23178  0.56541  1.0000
  S   S914      1.0  0.60301  0.11525  0.72486  1.0000
  H   H5524     1.0  0.58978  0.07994  0.72437  1.0000
  C   C3221     1.0  0.97551  0.23304  0.62291  1.0000
  H   H5525     1.0  0.82778  0.23545  0.62435  1.0000
  C   C3222     1.0  0.90486  0.22608  0.58318  1.0000
  H   H5526     1.0  0.75020  0.09796  0.50173  1.0000
  C   C3223     1.0  0.88861  0.23324  0.50178  1.0000
  H   H5527     1.0  0.90885  0.23308  0.58249  1.0000
  C   C3224     1.0  0.55859  0.11025  0.70919  1.0000
  S   S915      1.0  0.54481  0.14209  0.71978  1.0000
  H   H5528     1.0  0.67086  0.13779  0.70865  1.0000
  H   H5529     1.0  0.89843  0.23090  0.64089  1.0000
  H   H5530     1.0  0.94532  0.22918  0.66084  1.0000
  H   H5531     1.0  0.59614  0.09660  0.71363  1.0000
  H   H5532     1.0  0.57445  0.11329  0.72321  1.0000
  H   H5533     1.0  0.68234  0.12524  0.53418  1.0000
  H   H5534     1.0  0.91456  0.21791  0.56036  1.0000
  H   H5535     1.0  0.64339  0.13622  0.70568  1.0000
  H   H5536     1.0  0.75096  0.11671  0.49030  1.0000
  H   H5537     1.0  0.87910  0.23683  0.63515  1.0000
  H   H5538     1.0  0.71569  0.12243  0.52581  1.0000
  H   H5539     1.0  0.69735  0.11024  0.54132  1.0000
  H   H5540     1.0  0.69422  0.15269  0.52900  1.0000
  C   C3225     1.0  0.68968  0.12916  0.50923  1.0000
  C   C3226     1.0  0.51409  0.14977  0.72407  1.0000
  S   S916      1.0  0.88909  0.22787  0.56013  1.0000
  H   H5541     1.0  0.87903  0.21698  0.64470  1.0000
  H   H5542     1.0  0.63885  0.15377  0.71962  1.0000
  C   C3227     1.0  0.87832  0.22656  0.65683  1.0000
  C   C3228     1.0  0.99263  0.22573  0.59212  1.0000
  H   H5543     1.0  0.63559  0.12481  0.73072  1.0000
  C   C3229     1.0  0.74279  0.00064  0.63812  1.0000
  H   H5544     1.0  0.92181  0.22649  0.50674  1.0000
  H   H5545     1.0  0.74871  0.99337  0.64182  1.0000
  H   H5546     1.0  0.75630  0.08578  0.49018  1.0000
  H   H5547     1.0  0.90638  0.23101  0.49925  1.0000
  C   C3230     1.0  0.99006  0.21769  0.62896  1.0000
  H   H5548     1.0  0.93619  0.23313  0.65117  1.0000
  H   H5549     1.0  0.49948  0.16160  0.73113  1.0000
  H   H5550     1.0  0.50178  0.09896  0.72360  1.0000
  H   H5551     1.0  0.77208  0.09074  0.48428  1.0000
  C   C3231     1.0  0.50277  0.15740  0.70950  1.0000
  H   H5552     1.0  0.92781  0.22286  0.57481  1.0000
  H   H5553     1.0  0.59457  0.07972  0.70988  1.0000
  H   H5554     1.0  0.53057  0.15682  0.70530  1.0000
  H   H5555     1.0  0.59222  0.10951  0.69072  1.0000
  S   S917      1.0  0.95706  0.23468  0.60115  1.0000
  H   H5556     1.0  0.51901  0.14126  0.69979  1.0000
  N   N233      1.0  0.88545  0.23481  0.65533  1.0000
  H   H5557     1.0  0.72552  0.99647  0.60446  1.0000
  H   H5558     1.0  0.96951  0.23365  0.66773  1.0000
  Fe  Fe458     1.0  0.61630  0.12183  0.72795  1.0000
  H   H5559     1.0  0.84825  0.23632  0.57078  1.0000
  C   C3232     1.0  0.74014  0.99913  0.62762  1.0000
  H   H5560     1.0  0.87046  0.23089  0.65381  1.0000
  C   C3233     1.0  0.52094  0.14421  0.70632  1.0000
  H   H5561     1.0  0.82918  0.23693  0.66214  1.0000
  H   H5562     1.0  0.58934  0.09697  0.73123  1.0000
  S   S918      1.0  0.71190  0.09984  0.49218  1.0000
  C   C3234     1.0  0.50524  0.13723  0.71941  1.0000
  C   C3235     1.0  0.99651  0.23435  0.59587  1.0000
  C   C3236     1.0  0.75884  0.11030  0.48929  1.0000
  S   S919      1.0  0.61189  0.08382  0.72693  1.0000
  H   H5563     1.0  0.90769  0.22503  0.52484  1.0000
  H   H5564     1.0  0.56525  0.10398  0.72753  1.0000
  H   H5565     1.0  0.50890  0.12778  0.70635  1.0000
  H   H5566     1.0  0.95914  0.23791  0.64098  1.0000
  H   H5567     1.0  0.58464  0.07172  0.71848  1.0000
  H   H5568     1.0  0.88972  0.23521  0.59219  1.0000
  C   C3237     1.0  0.89183  0.23791  0.64353  1.0000
  C   C3238     1.0  0.92049  0.23212  0.51244  1.0000
  H   H5569     1.0  0.67184  0.12478  0.71819  1.0000
  H   H5570     1.0  0.51115  0.13008  0.72342  1.0000
  N   N234      1.0  0.89917  0.23850  0.51363  1.0000
  H   H5571     1.0  0.90810  0.23839  0.52592  1.0000
  S   S920      1.0  0.87111  0.23067  0.48332  1.0000
  S   S921      1.0  0.53194  0.11695  0.73221  1.0000
  C   C3239     1.0  0.93966  0.23888  0.57088  1.0000
  Fe  Fe459     1.0  0.60088  0.21446  0.97054  1.0000
  Fe  Fe460     1.0  0.60497  0.21583  0.94547  1.0000
  H   H5572     1.0  0.63229  0.13769  0.74186  1.0000
  S   S922      1.0  0.61564  0.21190  0.92910  1.0000
  Fe  Fe461     1.0  0.58130  0.21963  0.95901  1.0000
  C   C3240     1.0  0.57696  0.10822  0.77748  1.0000
  S   S923      1.0  0.61127  0.22376  0.95567  1.0000
  S   S924      1.0  0.59598  0.20513  0.96045  1.0000
  H   H5573     1.0  0.64938  0.23088  0.85338  1.0000
  Fe  Fe462     1.0  0.59356  0.05851  0.78786  1.0000
  S   S925      1.0  0.59726  0.04566  0.80298  1.0000
  S   S926      1.0  0.60627  0.06894  0.77883  1.0000
  Fe  Fe463     1.0  0.56952  0.05588  0.79289  1.0000
  S   S927      1.0  0.57121  0.04319  0.80856  1.0000
  S   S928      1.0  0.55237  0.06141  0.78923  1.0000
  Fe  Fe464     1.0  0.58060  0.05440  0.81141  1.0000
  S   S929      1.0  0.57769  0.05917  0.82775  1.0000
  Fe  Fe465     1.0  0.58754  0.03584  0.79835  1.0000
  S   S930      1.0  0.59318  0.01752  0.79793  1.0000
  S   S931      1.0  0.57744  0.06770  0.79659  1.0000
  S   S932      1.0  0.58534  0.04802  0.78236  1.0000
  Fe  Fe466     1.0  0.54213  0.10470  0.74376  1.0000
  C   C3241     1.0  0.57624  0.17516  0.78339  1.0000
  H   H5574     1.0  0.57321  0.18418  0.78030  1.0000
  Fe  Fe467     1.0  0.53712  0.11984  0.75993  1.0000
  S   S933      1.0  0.52624  0.13355  0.74979  1.0000
  S   S934      1.0  0.54053  0.11829  0.77688  1.0000
  H   H5575     1.0  0.54482  0.05240  0.76724  1.0000
  H   H5576     1.0  0.61168  0.10264  0.75383  1.0000
  H   H5577     1.0  0.56783  0.11114  0.77792  1.0000
  S   S935      1.0  0.52875  0.10672  0.75907  1.0000
  S   S936      1.0  0.55121  0.11681  0.74534  1.0000
  C   C3242     1.0  0.57300  0.19690  0.93983  1.0000
  Fe  Fe468     1.0  0.61246  0.18972  0.85808  1.0000
  S   S937      1.0  0.61108  0.20800  0.85033  1.0000
  S   S938      1.0  0.61783  0.17579  0.84824  1.0000
  Fe  Fe469     1.0  0.60489  0.19433  0.88164  1.0000
  S   S939      1.0  0.60198  0.21286  0.87575  1.0000
  S   S940      1.0  0.60177  0.18662  0.90003  1.0000
  Fe  Fe470     1.0  0.59488  0.21009  0.86275  1.0000
  S   S941      1.0  0.58004  0.22198  0.85703  1.0000
  Fe  Fe471     1.0  0.61843  0.20947  0.86394  1.0000
  S   S942      1.0  0.63135  0.22008  0.86046  1.0000
  S   S943      1.0  0.59578  0.19188  0.86992  1.0000
  S   S944      1.0  0.62182  0.19083  0.87042  1.0000
  C   C3243     1.0  0.56199  0.18896  0.80068  1.0000
  C   C3244     1.0  0.54975  0.09028  0.79364  1.0000
  C   C3245     1.0  0.58028  0.12711  0.75753  1.0000
  C   C3246     1.0  0.55620  0.19538  0.81010  1.0000
  C   C3247     1.0  0.61799  0.08114  0.74651  1.0000
  Fe  Fe472     1.0  0.58325  0.12082  0.81978  1.0000
  S   S945      1.0  0.58683  0.12142  0.80159  1.0000
  S   S946      1.0  0.57623  0.10746  0.83323  1.0000
  Fe  Fe473     1.0  0.59043  0.14279  0.81708  1.0000
  S   S947      1.0  0.59458  0.14523  0.79837  1.0000
  S   S948      1.0  0.58880  0.15608  0.82698  1.0000
  Fe  Fe474     1.0  0.57876  0.13951  0.80003  1.0000
  S   S949      1.0  0.56773  0.14791  0.78755  1.0000
  Fe  Fe475     1.0  0.60235  0.12689  0.80109  1.0000
  S   S950      1.0  0.61774  0.11881  0.78997  1.0000
  S   S951      1.0  0.57382  0.13860  0.81838  1.0000
  S   S952      1.0  0.59955  0.12473  0.81965  1.0000
  H   H5578     1.0  0.63026  0.16505  0.88152  1.0000
  H   H5579     1.0  0.55724  0.03013  0.77931  1.0000
  C   C3248     1.0  0.62302  0.11614  0.76835  1.0000
  C   C3249     1.0  0.61594  0.12223  0.77618  1.0000
  C   C3250     1.0  0.60740  0.13110  0.77296  1.0000
  H   H5580     1.0  0.58397  0.99134  0.78167  1.0000
  H   H5581     1.0  0.53713  0.21830  0.88088  1.0000
  H   H5582     1.0  0.62963  0.10923  0.77080  1.0000
  H   H5583     1.0  0.60184  0.13580  0.77890  1.0000
  C   C3251     1.0  0.57856  0.09828  0.78732  1.0000
  C   C3252     1.0  0.60963  0.17053  0.84227  1.0000
  C   C3253     1.0  0.61495  0.16207  0.83624  1.0000
  C   C3254     1.0  0.60878  0.15749  0.83157  1.0000
  C   C3255     1.0  0.59715  0.16129  0.83286  1.0000
  C   C3256     1.0  0.59183  0.16968  0.83896  1.0000
  C   C3257     1.0  0.59800  0.17428  0.84361  1.0000
  H   H5584     1.0  0.62393  0.15906  0.83514  1.0000
  H   H5585     1.0  0.61304  0.15106  0.82692  1.0000
  H   H5586     1.0  0.58285  0.17269  0.84010  1.0000
  H   H5587     1.0  0.59374  0.18075  0.84821  1.0000
  H   H5588     1.0  0.57958  0.11513  0.77921  1.0000
  H   H5589     1.0  0.65066  0.21916  0.91637  1.0000
  H   H5590     1.0  0.58630  0.22395  0.91797  1.0000
  C   C3258     1.0  0.54780  0.12690  0.77969  1.0000
  C   C3259     1.0  0.55128  0.12383  0.78982  1.0000
  C   C3260     1.0  0.55759  0.13008  0.79219  1.0000
  C   C3261     1.0  0.56008  0.13973  0.78463  1.0000
  C   C3262     1.0  0.55633  0.14300  0.77463  1.0000
  C   C3263     1.0  0.55040  0.13648  0.77206  1.0000
  H   H5591     1.0  0.54927  0.11649  0.79579  1.0000
  H   H5592     1.0  0.56033  0.12755  0.79996  1.0000
  H   H5593     1.0  0.55820  0.15048  0.76875  1.0000
  H   H5594     1.0  0.54773  0.13895  0.76426  1.0000
  H   H5595     1.0  0.61999  0.15482  0.86236  1.0000
  H   H5596     1.0  0.54036  0.06194  0.82761  1.0000
  C   C3264     1.0  0.60737  0.14594  0.88936  1.0000
  H   H5597     1.0  0.51628  0.08764  0.80637  1.0000
  S   S953      1.0  0.50041  0.12292  0.74863  1.0000
  H   H5598     1.0  0.60433  0.15022  0.85836  1.0000
  H   H5599     1.0  0.53106  0.23118  0.86756  1.0000
  H   H5600     1.0  0.54247  0.09010  0.79054  1.0000
  C   C3265     1.0  0.60811  0.07232  0.76437  1.0000
  C   C3266     1.0  0.60098  0.06992  0.75911  1.0000
  H   H5601     1.0  0.58143  0.17103  0.88206  1.0000
  H   H5602     1.0  0.54040  0.10084  0.80510  1.0000
  C   C3267     1.0  0.58151  0.22546  0.91145  1.0000
  C   C3268     1.0  0.60236  0.07318  0.74753  1.0000
  H   H5603     1.0  0.59436  0.06567  0.76396  1.0000
  H   H5604     1.0  0.59230  0.17202  0.88783  1.0000
  C   C3269     1.0  0.59539  0.10490  0.76512  1.0000
  C   C3270     1.0  0.60987  0.14366  0.86331  1.0000
  C   C3271     1.0  0.57716  0.07289  0.82855  1.0000
  C   C3272     1.0  0.57827  0.08164  0.81917  1.0000
  C   C3273     1.0  0.57783  0.09243  0.82043  1.0000
  C   C3274     1.0  0.57640  0.09439  0.83102  1.0000
  C   C3275     1.0  0.57507  0.08569  0.84030  1.0000
  C   C3276     1.0  0.57547  0.07502  0.83907  1.0000
  H   H5605     1.0  0.57959  0.08011  0.81100  1.0000
  H   H5606     1.0  0.57864  0.09921  0.81328  1.0000
  H   H5607     1.0  0.57386  0.08717  0.84851  1.0000
  H   H5608     1.0  0.57453  0.06836  0.84635  1.0000
  C   C3277     1.0  0.58383  0.01169  0.79443  1.0000
  C   C3278     1.0  0.58797  0.00250  0.78934  1.0000
  H   H5609     1.0  0.51602  0.23344  0.90898  1.0000
  C   C3279     1.0  0.56915  0.00266  0.78810  1.0000
  C   C3280     1.0  0.56499  0.01154  0.79359  1.0000
  C   C3281     1.0  0.57230  0.01615  0.79661  1.0000
  H   H5610     1.0  0.58293  0.20828  0.92945  1.0000
  C   C3282     1.0  0.54622  0.09114  0.82929  1.0000
  H   H5611     1.0  0.55607  0.01501  0.79533  1.0000
  H   H5612     1.0  0.56902  0.02316  0.80063  1.0000
  C   C3283     1.0  0.55253  0.06803  0.77538  1.0000
  C   C3284     1.0  0.54239  0.07350  0.77223  1.0000
  C   C3285     1.0  0.54234  0.07919  0.76125  1.0000
  C   C3286     1.0  0.55242  0.07942  0.75344  1.0000
  C   C3287     1.0  0.56256  0.07353  0.75645  1.0000
  C   C3288     1.0  0.56262  0.06790  0.76747  1.0000
  H   H5613     1.0  0.53457  0.07350  0.77830  1.0000
  H   H5614     1.0  0.53448  0.08348  0.75885  1.0000
  H   H5615     1.0  0.57039  0.07372  0.75042  1.0000
  H   H5616     1.0  0.57047  0.06370  0.76987  1.0000
  H   H5617     1.0  0.57695  0.10189  0.74055  1.0000
  H   H5618     1.0  0.64585  0.13346  0.74489  1.0000
  C   C3289     1.0  0.55581  0.23053  0.95367  1.0000
  C   C3290     1.0  0.56915  0.22326  0.86860  1.0000
  C   C3291     1.0  0.56918  0.21498  0.87832  1.0000
  C   C3292     1.0  0.56093  0.21654  0.88788  1.0000
  H   H5619     1.0  0.55509  0.18843  0.79711  1.0000
  N   N235      1.0  0.58303  0.10604  0.76615  1.0000
  H   H5620     1.0  0.57558  0.20741  0.87851  1.0000
  H   H5621     1.0  0.56086  0.21012  0.89537  1.0000
  C   C3293     1.0  0.57481  0.20428  0.91389  1.0000
  H   H5622     1.0  0.62362  0.23021  0.90891  1.0000
  H   H5623     1.0  0.55247  0.06914  0.80876  1.0000
  H   H5624     1.0  0.57580  0.12976  0.76540  1.0000
  H   H5625     1.0  0.54892  0.16536  0.82479  1.0000
  C   C3294     1.0  0.61137  0.20492  0.92129  1.0000
  C   C3295     1.0  0.61449  0.20763  0.90968  1.0000
  C   C3296     1.0  0.61168  0.20200  0.90314  1.0000
  C   C3297     1.0  0.60590  0.19341  0.90816  1.0000
  C   C3298     1.0  0.60293  0.19051  0.91980  1.0000
  C   C3299     1.0  0.60551  0.19636  0.92636  1.0000
  H   H5626     1.0  0.61911  0.21413  0.90568  1.0000
  H   H5627     1.0  0.61416  0.20422  0.89420  1.0000
  H   H5628     1.0  0.59853  0.18382  0.92376  1.0000
  H   H5629     1.0  0.60323  0.19407  0.93531  1.0000
  H   H5630     1.0  0.57678  0.13344  0.75078  1.0000
  H   H5631     1.0  0.59304  0.15571  0.87363  1.0000
  C   C3300     1.0  0.61579  0.14879  0.86913  1.0000
  H   H5632     1.0  0.54368  0.09014  0.83845  1.0000
  H   H5633     1.0  0.57433  0.09176  0.78731  1.0000
  C   C3301     1.0  0.63949  0.22580  0.93010  1.0000
  C   C3302     1.0  0.61465  0.16264  0.87959  1.0000
  H   H5634     1.0  0.58557  0.09392  0.75621  1.0000
  Fe  Fe476     1.0  0.51915  0.12006  0.74758  1.0000
  C   C3303     1.0  0.53062  0.21339  0.88523  1.0000
  C   C3304     1.0  0.55255  0.16852  0.81592  1.0000
  H   H5635     1.0  0.59028  0.02470  0.76631  1.0000
  H   H5636     1.0  0.61631  0.13917  0.85729  1.0000
  H   H5637     1.0  0.60508  0.13759  0.86908  1.0000
  H   H5638     1.0  0.56258  0.10179  0.76891  1.0000
  H   H5639     1.0  0.59891  0.09690  0.77036  1.0000
  H   H5640     1.0  0.63816  0.15116  0.74905  1.0000
  S   S954      1.0  0.56350  0.21842  0.96086  1.0000
  H   H5641     1.0  0.56942  0.11656  0.75842  1.0000
  H   H5642     1.0  0.58639  0.15972  0.89250  1.0000
  H   H5643     1.0  0.54671  0.04854  0.75093  1.0000
  H   H5644     1.0  0.55657  0.04750  0.73797  1.0000
  C   C3305     1.0  0.58907  0.16614  0.88518  1.0000
  H   H5645     1.0  0.58921  0.12737  0.75604  1.0000
  C   C3306     1.0  0.64096  0.13921  0.73880  1.0000
  H   H5646     1.0  0.55424  0.99522  0.81310  1.0000
  C   C3307     1.0  0.50144  0.10939  0.73450  1.0000
  N   N236      1.0  0.51409  0.23023  0.88804  1.0000
  S   S955      1.0  0.59000  0.22975  0.94359  1.0000
  C   C3308     1.0  0.63349  0.23127  0.86493  1.0000
  H   H5647     1.0  0.62772  0.15158  0.88844  1.0000
  N   N237      1.0  0.60867  0.15434  0.87852  1.0000
  H   H5648     1.0  0.58616  0.16949  0.80520  1.0000
  C   C3309     1.0  0.61663  0.07787  0.75806  1.0000
  H   H5649     1.0  0.61472  0.16969  0.87222  1.0000
  H   H5650     1.0  0.65446  0.22708  0.89774  1.0000
  C   C3310     1.0  0.58194  0.03051  0.76684  1.0000
  H   H5651     1.0  0.54712  0.09987  0.82547  1.0000
  H   H5652     1.0  0.52547  0.22122  0.89898  1.0000
  Fe  Fe477     1.0  0.53978  0.12939  0.73512  1.0000
  C   C3311     1.0  0.55514  0.04961  0.74617  1.0000
  C   C3312     1.0  0.58081  0.17805  0.80376  1.0000
  H   H5653     1.0  0.52739  0.21100  0.87920  1.0000
  H   H5654     1.0  0.60112  0.09951  0.74909  1.0000
  H   H5655     1.0  0.52826  0.07485  0.81868  1.0000
  H   H5656     1.0  0.59882  0.16760  0.86828  1.0000
  H   H5657     1.0  0.57060  0.21470  0.93725  1.0000
  H   H5658     1.0  0.50388  0.21195  0.88959  1.0000
  C   C3313     1.0  0.62695  0.15811  0.88081  1.0000
  H   H5659     1.0  0.64140  0.21362  0.90175  1.0000
  H   H5660     1.0  0.62275  0.14208  0.87198  1.0000
  H   H5661     1.0  0.56492  0.19456  0.94105  1.0000
  H   H5662     1.0  0.60394  0.15008  0.89656  1.0000
  H   H5663     1.0  0.61025  0.16646  0.88687  1.0000
  H   H5664     1.0  0.57827  0.18063  0.82079  1.0000
  S   S956      1.0  0.58523  0.22784  0.97041  1.0000
  C   C3314     1.0  0.56949  0.22342  0.91638  1.0000
  H   H5665     1.0  0.53489  0.20557  0.89012  1.0000
  H   H5666     1.0  0.58238  0.11399  0.74899  1.0000
  N   N238      1.0  0.61335  0.08233  0.80810  1.0000
  C   C3315     1.0  0.60669  0.09261  0.80181  1.0000
  C   C3316     1.0  0.60787  0.08130  0.82025  1.0000
  C   C3317     1.0  0.61279  0.07241  0.80411  1.0000
  C   C3318     1.0  0.62525  0.08379  0.80563  1.0000
  C   C3319     1.0  0.61013  0.09460  0.78903  1.0000
  C   C3320     1.0  0.60718  0.09119  0.82532  1.0000
  C   C3321     1.0  0.61461  0.06092  0.81208  1.0000
  C   C3322     1.0  0.63343  0.07491  0.81214  1.0000
  H   H5667     1.0  0.59764  0.09240  0.80411  1.0000
  H   H5668     1.0  0.60729  0.10029  0.80395  1.0000
  H   H5669     1.0  0.61201  0.07373  0.82550  1.0000
  H   H5670     1.0  0.59920  0.08010  0.82172  1.0000
  H   H5671     1.0  0.60439  0.07351  0.80226  1.0000
  H   H5672     1.0  0.61892  0.07166  0.79612  1.0000
  H   H5673     1.0  0.62923  0.08380  0.79676  1.0000
  H   H5674     1.0  0.62558  0.09217  0.80644  1.0000
  H   H5675     1.0  0.60467  0.10243  0.78551  1.0000
  H   H5676     1.0  0.61884  0.09582  0.78584  1.0000
  H   H5677     1.0  0.60904  0.08782  0.78582  1.0000
  H   H5678     1.0  0.60385  0.08903  0.83442  1.0000
  H   H5679     1.0  0.61550  0.09314  0.82404  1.0000
  H   H5680     1.0  0.60121  0.09874  0.82210  1.0000
  H   H5681     1.0  0.62224  0.05903  0.81541  1.0000
  H   H5682     1.0  0.61551  0.05436  0.80752  1.0000
  H   H5683     1.0  0.60719  0.06021  0.81905  1.0000
  H   H5684     1.0  0.63721  0.06771  0.80805  1.0000
  H   H5685     1.0  0.62968  0.07194  0.82094  1.0000
  H   H5686     1.0  0.64026  0.07870  0.81238  1.0000
  N   N239      1.0  0.56288  0.03342  0.76149  1.0000
  C   C3323     1.0  0.57405  0.02579  0.76294  1.0000
  C   C3324     1.0  0.55592  0.02649  0.75958  1.0000
  C   C3325     1.0  0.55736  0.03737  0.77217  1.0000
  C   C3326     1.0  0.56498  0.04313  0.75195  1.0000
  H   H5687     1.0  0.64696  0.11578  0.74464  1.0000
  C   C3327     1.0  0.56111  0.02085  0.74959  1.0000
  C   C3328     1.0  0.54525  0.04424  0.77313  1.0000
  S   S957      1.0  0.55237  0.08817  0.74036  1.0000
  H   H5688     1.0  0.57283  0.01787  0.76897  1.0000
  H   H5689     1.0  0.57892  0.02326  0.75505  1.0000
  H   H5690     1.0  0.54749  0.03132  0.75847  1.0000
  H   H5691     1.0  0.58751  0.09458  0.78739  1.0000
  C   C3329     1.0  0.61079  0.07891  0.74125  1.0000
  H   H5692     1.0  0.56220  0.04269  0.77370  1.0000
  H   H5693     1.0  0.56785  0.04929  0.75467  1.0000
  H   H5694     1.0  0.58320  0.03876  0.76169  1.0000
  H   H5695     1.0  0.52525  0.09729  0.80162  1.0000
  C   C3330     1.0  0.58066  0.99808  0.78604  1.0000
  H   H5696     1.0  0.57735  0.18829  0.90962  1.0000
  H   H5697     1.0  0.56806  0.01363  0.75140  1.0000
  C   C3331     1.0  0.58018  0.09759  0.73353  1.0000
  H   H5698     1.0  0.56411  0.02675  0.74193  1.0000
  H   H5699     1.0  0.53934  0.03967  0.77230  1.0000
  H   H5700     1.0  0.55493  0.05869  0.74438  1.0000
  H   H5701     1.0  0.61886  0.23544  0.92689  1.0000
  H   H5702     1.0  0.56020  0.00054  0.82104  1.0000
  H   H5703     1.0  0.62459  0.08543  0.74169  1.0000
  H   H5704     1.0  0.53288  0.08236  0.83181  1.0000
  C   C3332     1.0  0.60271  0.10518  0.75334  1.0000
  H   H5705     1.0  0.57414  0.16206  0.79796  1.0000
  H   H5706     1.0  0.57461  0.10121  0.79517  1.0000
  H   H5707     1.0  0.59699  0.11156  0.76824  1.0000
  H   H5708     1.0  0.56729  0.09397  0.75835  1.0000
  C   C3333     1.0  0.57860  0.11560  0.75746  1.0000
  H   H5709     1.0  0.56150  0.17064  0.79452  1.0000
  H   H5710     1.0  0.59648  0.13473  0.89950  1.0000
  H   H5711     1.0  0.59330  0.14059  0.88635  1.0000
  H   H5712     1.0  0.60580  0.12980  0.88761  1.0000
  C   C3334     1.0  0.56890  0.09464  0.76621  1.0000
  H   H5713     1.0  0.64840  0.15375  0.73652  1.0000
  C   C3335     1.0  0.59752  0.16086  0.87584  1.0000
  H   H5714     1.0  0.63685  0.21744  0.91877  1.0000
  C   C3336     1.0  0.54838  0.06443  0.82648  1.0000
  H   H5715     1.0  0.51595  0.21364  0.89847  1.0000
  C   C3337     1.0  0.60620  0.13418  0.76193  1.0000
  H   H5716     1.0  0.59322  0.23471  0.88020  1.0000
  H   H5717     1.0  0.60148  0.11369  0.74815  1.0000
  H   H5718     1.0  0.58486  0.18247  0.79553  1.0000
  H   H5719     1.0  0.64691  0.21904  0.88746  1.0000
  H   H5720     1.0  0.56984  0.16276  0.81704  1.0000
  C   C3338     1.0  0.64175  0.22365  0.91827  1.0000
  H   H5721     1.0  0.55891  0.07529  0.81536  1.0000
  H   H5722     1.0  0.58630  0.22044  0.90517  1.0000
  H   H5723     1.0  0.53088  0.09593  0.82379  1.0000
  H   H5724     1.0  0.63278  0.22452  0.89331  1.0000
  H   H5725     1.0  0.54017  0.21704  0.93557  1.0000
  H   H5726     1.0  0.55338  0.16184  0.81152  1.0000
  H   H5727     1.0  0.58532  0.08801  0.77023  1.0000
  H   H5728     1.0  0.58544  0.17319  0.78278  1.0000
  C   C3339     1.0  0.56995  0.17091  0.79530  1.0000
  C   C3340     1.0  0.52616  0.23929  0.86942  1.0000
  C   C3341     1.0  0.52123  0.21960  0.89323  1.0000
  C   C3342     1.0  0.53739  0.08812  0.82499  1.0000
  H   H5729     1.0  0.61571  0.14097  0.89082  1.0000
  H   H5730     1.0  0.55425  0.01975  0.76707  1.0000
  H   H5731     1.0  0.56548  0.22916  0.92214  1.0000
  H   H5732     1.0  0.63243  0.15501  0.87343  1.0000
  N   N240      1.0  0.56907  0.17747  0.80382  1.0000
  H   H5733     1.0  0.54654  0.17603  0.81275  1.0000
  S   S958      1.0  0.55979  0.99816  0.78322  1.0000
  H   H5734     1.0  0.56029  0.19298  0.81723  1.0000
  C   C3343     1.0  0.60040  0.13731  0.89060  1.0000
  H   H5735     1.0  0.55514  0.05683  0.82598  1.0000
  H   H5736     1.0  0.56706  0.19433  0.79398  1.0000
  H   H5737     1.0  0.56722  0.08699  0.77244  1.0000
  H   H5738     1.0  0.51785  0.09459  0.81599  1.0000
  C   C3344     1.0  0.56075  0.23295  0.86834  1.0000
  C   C3345     1.0  0.61322  0.12814  0.75410  1.0000
  H   H5739     1.0  0.51396  0.22477  0.87339  1.0000
  H   H5740     1.0  0.57814  0.08923  0.73665  1.0000
  H   H5741     1.0  0.57481  0.17069  0.77773  1.0000
  C   C3346     1.0  0.62155  0.11898  0.75734  1.0000
  C   C3347     1.0  0.56409  0.17095  0.81495  1.0000
  H   H5742     1.0  0.56322  0.17500  0.82184  1.0000
  C   C3348     1.0  0.58207  0.18408  0.81210  1.0000
  C   C3349     1.0  0.50479  0.15333  0.73379  1.0000
  C   C3350     1.0  0.58124  0.09539  0.76461  1.0000
  H   H5743     1.0  0.54727  0.19475  0.81310  1.0000
  H   H5744     1.0  0.59115  0.18292  0.81182  1.0000
  H   H5745     1.0  0.62696  0.11425  0.75135  1.0000
  H   H5746     1.0  0.59976  0.14129  0.75947  1.0000
  C   C3351     1.0  0.62594  0.23662  0.87318  1.0000
  C   C3352     1.0  0.64033  0.15106  0.74007  1.0000
  H   H5747     1.0  0.55603  0.20440  0.80669  1.0000
  H   H5748     1.0  0.62217  0.07970  0.76212  1.0000
  H   H5749     1.0  0.55352  0.09715  0.78789  1.0000
  H   H5750     1.0  0.56489  0.22644  0.90947  1.0000
  H   H5751     1.0  0.57876  0.19319  0.80985  1.0000
  C   C3353     1.0  0.64126  0.22134  0.89517  1.0000
  C   C3354     1.0  0.55309  0.22662  0.88785  1.0000
  N   N241      1.0  0.54166  0.08376  0.81447  1.0000
  H   H5752     1.0  0.57882  0.03099  0.77569  1.0000
  H   H5753     1.0  0.55490  0.20272  0.92904  1.0000
  H   H5754     1.0  0.57401  0.20876  0.90530  1.0000
  H   H5755     1.0  0.58002  0.19028  0.93689  1.0000
  H   H5756     1.0  0.58391  0.20234  0.91361  1.0000
  C   C3355     1.0  0.57382  0.20836  0.93208  1.0000
  H   H5757     1.0  0.55457  0.08559  0.82777  1.0000
  H   H5758     1.0  0.64471  0.23774  0.89108  1.0000
  H   H5759     1.0  0.55402  0.09398  0.80713  1.0000
  H   H5760     1.0  0.62219  0.22152  0.97671  1.0000
  C   C3356     1.0  0.53211  0.08091  0.81166  1.0000
  H   H5761     1.0  0.54851  0.06722  0.83391  1.0000
  N   N242      1.0  0.56857  0.21158  0.92210  1.0000
  H   H5762     1.0  0.55276  0.21374  0.91766  1.0000
  H   H5763     1.0  0.56295  0.19451  0.91383  1.0000
  H   H5764     1.0  0.61825  0.23383  0.87739  1.0000
  C   C3357     1.0  0.55629  0.21125  0.92524  1.0000
  C   C3358     1.0  0.54878  0.21861  0.93336  1.0000
  H   H5765     1.0  0.49961  0.14705  0.73805  1.0000
  S   S959      1.0  0.54415  0.22936  0.90023  1.0000
  C   C3359     1.0  0.55076  0.07334  0.81578  1.0000
  C   C3360     1.0  0.52243  0.09079  0.80878  1.0000
  C   C3361     1.0  0.55283  0.23471  0.87802  1.0000
  H   H5766     1.0  0.54225  0.04611  0.78155  1.0000
  H   H5767     1.0  0.54797  0.22762  0.92955  1.0000
  H   H5768     1.0  0.55169  0.21660  0.94122  1.0000
  H   H5769     1.0  0.57159  0.18789  0.92400  1.0000
  C   C3362     1.0  0.57136  0.19313  0.91562  1.0000
  H   H5770     1.0  0.63374  0.22054  0.93591  1.0000
  H   H5771     1.0  0.64740  0.22323  0.93316  1.0000
  H   H5772     1.0  0.55607  0.08243  0.79311  1.0000
  C   C3363     1.0  0.54639  0.09263  0.80540  1.0000
  H   H5773     1.0  0.57347  0.19724  0.94827  1.0000
  C   C3364     1.0  0.50803  0.22822  0.88037  1.0000
  H   H5774     1.0  0.53519  0.07658  0.80458  1.0000
  H   H5775     1.0  0.57202  0.04025  0.74528  1.0000
  H   H5776     1.0  0.59689  0.99903  0.78762  1.0000
  H   H5777     1.0  0.63351  0.15723  0.73645  1.0000
  H   H5778     1.0  0.59678  0.07144  0.74347  1.0000
  H   H5779     1.0  0.50878  0.15424  0.74013  1.0000
  S   S960      1.0  0.61175  0.13290  0.74024  1.0000
  C   C3365     1.0  0.50532  0.23478  0.89729  1.0000
  H   H5780     1.0  0.55466  0.01745  0.74796  1.0000
  C   C3366     1.0  0.64533  0.23034  0.89808  1.0000
  C   C3367     1.0  0.55842  0.99277  0.82022  1.0000
  H   H5781     1.0  0.58094  0.23436  0.90716  1.0000
  H   H5782     1.0  0.52793  0.23806  0.88609  1.0000
  N   N243      1.0  0.63941  0.23362  0.90904  1.0000
  H   H5783     1.0  0.50315  0.23629  0.87642  1.0000
  C   C3368     1.0  0.64347  0.23489  0.85973  1.0000
  H   H5784     1.0  0.63567  0.23444  0.93098  1.0000
  C   C3369     1.0  0.65097  0.11575  0.73581  1.0000
  H   H5785     1.0  0.60704  0.23654  0.86372  1.0000
  H   H5786     1.0  0.54099  0.23103  0.96676  1.0000
  H   H5787     1.0  0.65992  0.11602  0.73431  1.0000
  H   H5788     1.0  0.65067  0.10763  0.73441  1.0000
  H   H5789     1.0  0.51031  0.10667  0.73441  1.0000
  H   H5790     1.0  0.65892  0.23382  0.91580  1.0000
  H   H5791     1.0  0.61546  0.23284  0.84568  1.0000
  H   H5792     1.0  0.59703  0.23332  0.85853  1.0000
  H   H5793     1.0  0.56905  0.23230  0.93914  1.0000
  H   H5794     1.0  0.50091  0.22823  0.90291  1.0000
  H   H5795     1.0  0.56064  0.23930  0.86078  1.0000
  C   C3370     1.0  0.54472  0.23492  0.95846  1.0000
  C   C3371     1.0  0.56055  0.23560  0.94294  1.0000
  H   H5796     1.0  0.57831  0.23720  0.88532  1.0000
  Fe  Fe478     1.0  0.59530  0.23663  0.95514  1.0000
  C   C3372     1.0  0.52105  0.23886  0.88190  1.0000
  C   C3373     1.0  0.62703  0.23728  0.90912  1.0000
  C   C3374     1.0  0.49975  0.22038  0.88568  1.0000
  H   H5797     1.0  0.55270  0.98980  0.82805  1.0000
  Fe  Fe479     1.0  0.53669  0.26586  0.11129  1.0000
  S   S961      1.0  0.54550  0.24802  0.11583  1.0000
  S   S962      1.0  0.51831  0.27118  0.11045  1.0000
  Fe  Fe480     1.0  0.55814  0.27457  0.10678  1.0000
  S   S963      1.0  0.56857  0.25754  0.11084  1.0000
  S   S964      1.0  0.56605  0.28960  0.10096  1.0000
  Fe  Fe481     1.0  0.55902  0.25271  0.10126  1.0000
  C   C3375     1.0  0.73905  0.39664  0.13331  1.0000
  Fe  Fe482     1.0  0.55429  0.25431  0.12511  1.0000
  S   S965      1.0  0.54960  0.27011  0.09584  1.0000
  S   S966      1.0  0.54436  0.27193  0.12193  1.0000
  H   H5798     1.0  0.59536  0.26371  0.00785  1.0000
  S   S967      1.0  0.59152  0.26145  0.04254  1.0000
  H   H5799     1.0  0.69373  0.26146  0.10569  1.0000
  C   C3376     1.0  0.52977  0.27605  0.07568  1.0000
  H   H5800     1.0  0.58011  0.25244  0.17174  1.0000
  H   H5801     1.0  0.73277  0.46567  0.99735  1.0000
  H   H5802     1.0  0.77340  0.48112  0.11311  1.0000
  H   H5803     1.0  0.56710  0.26348  0.07884  1.0000
  S   S968      1.0  0.62311  0.25263  0.02829  1.0000
  H   H5804     1.0  0.75376  0.38104  0.16089  1.0000
  H   H5805     1.0  0.71726  0.42337  0.08709  1.0000
  H   H5806     1.0  0.54428  0.26189  0.04602  1.0000
  H   H5807     1.0  0.53039  0.28494  0.07325  1.0000
  H   H5808     1.0  0.98692  0.40727  0.21136  1.0000
  H   H5809     1.0  0.59701  0.24419  0.07593  1.0000
  S   S969      1.0  0.91282  0.40721  0.21049  1.0000
  H   H5810     1.0  0.82974  0.35257  0.11942  1.0000
  C   C3377     1.0  0.83682  0.44383  0.21880  1.0000
  H   H5811     1.0  0.72783  0.39626  0.07953  1.0000
  H   H5812     1.0  0.73801  0.47095  0.12315  1.0000
  C   C3378     1.0  0.82954  0.35774  0.14110  1.0000
  N   N244      1.0  0.53944  0.25719  0.06993  1.0000
  Fe  Fe483     1.0  0.78974  0.37845  0.13176  1.0000
  S   S970      1.0  0.77119  0.38066  0.13829  1.0000
  S   S971      1.0  0.79705  0.38211  0.11326  1.0000
  Fe  Fe484     1.0  0.79525  0.37115  0.15497  1.0000
  S   S972      1.0  0.77708  0.37200  0.16325  1.0000
  S   S973      1.0  0.80824  0.36626  0.16587  1.0000
  Fe  Fe485     1.0  0.77544  0.36441  0.14997  1.0000
  S   S974      1.0  0.76514  0.35114  0.15454  1.0000
  Fe  Fe486     1.0  0.77419  0.38803  0.15095  1.0000
  S   S975      1.0  0.76218  0.40269  0.15683  1.0000
  S   S976      1.0  0.79408  0.36163  0.14288  1.0000
  S   S977      1.0  0.79236  0.38771  0.14325  1.0000
  Fe  Fe487     1.0  0.71207  0.34446  0.13234  1.0000
  S   S978      1.0  0.69326  0.35061  0.13615  1.0000
  S   S979      1.0  0.72325  0.33942  0.14487  1.0000
  Fe  Fe488     1.0  0.71246  0.34505  0.10865  1.0000
  S   S980      1.0  0.69402  0.35192  0.11006  1.0000
  S   S981      1.0  0.72436  0.34088  0.09327  1.0000
  Fe  Fe489     1.0  0.69648  0.36293  0.11995  1.0000
  S   S982      1.0  0.68809  0.38128  0.11779  1.0000
  Fe  Fe490     1.0  0.69228  0.33899  0.12594  1.0000
  S   S983      1.0  0.67912  0.32803  0.13117  1.0000
  S   S984      1.0  0.71516  0.35734  0.11676  1.0000
  S   S985      1.0  0.71077  0.33159  0.12394  1.0000
  Fe  Fe491     1.0  0.86262  0.38891  0.20377  1.0000
  S   S986      1.0  0.85454  0.39692  0.21832  1.0000
  S   S987      1.0  0.88126  0.38116  0.20131  1.0000
  Fe  Fe492     1.0  0.84081  0.39522  0.19485  1.0000
  S   S988      1.0  0.83135  0.40420  0.20870  1.0000
  S   S989      1.0  0.83195  0.39674  0.18076  1.0000
  Fe  Fe493     1.0  0.84670  0.41093  0.20623  1.0000
  S   S990      1.0  0.84682  0.42874  0.20583  1.0000
  Fe  Fe494     1.0  0.84008  0.38943  0.21967  1.0000
  C   C3379     1.0  0.79498  0.36502  0.00048  1.0000
  S   S991      1.0  0.85554  0.40343  0.19137  1.0000
  S   S992      1.0  0.84873  0.37991  0.20615  1.0000
  Fe  Fe495     1.0  0.62499  0.28875  0.10939  1.0000
  S   S993      1.0  0.63139  0.27517  0.09987  1.0000
  S   S994      1.0  0.60718  0.29106  0.11933  1.0000
  Fe  Fe496     1.0  0.64715  0.29696  0.10240  1.0000
  S   S995      1.0  0.65508  0.28397  0.09199  1.0000
  S   S996      1.0  0.65830  0.30900  0.10135  1.0000
  Fe  Fe497     1.0  0.63890  0.28800  0.08639  1.0000
  S   S997      1.0  0.63828  0.29005  0.06848  1.0000
  Fe  Fe498     1.0  0.64691  0.27222  0.10632  1.0000
  S   S998      1.0  0.65646  0.25467  0.11126  1.0000
  S   S999      1.0  0.63146  0.30204  0.09543  1.0000
  S   S1000     1.0  0.63997  0.28474  0.11720  1.0000
  Fe  Fe499     1.0  0.76861  0.38294  0.04118  1.0000
  S   S1001     1.0  0.75383  0.39730  0.04092  1.0000
  S   S1002     1.0  0.77600  0.37751  0.02476  1.0000
  Fe  Fe500     1.0  0.76733  0.38046  0.06608  1.0000
  S   S1003     1.0  0.75218  0.39439  0.06750  1.0000
  S   S1004     1.0  0.77165  0.37057  0.08260  1.0000
  Fe  Fe501     1.0  0.74613  0.38712  0.05678  1.0000
  S   S1005     1.0  0.72797  0.38662  0.06002  1.0000
  Fe  Fe502     1.0  0.76132  0.40330  0.05153  1.0000
  S   S1006     1.0  0.76067  0.42166  0.04824  1.0000
  S   S1007     1.0  0.76044  0.37228  0.05658  1.0000
  S   S1008     1.0  0.77705  0.38984  0.05053  1.0000
  Fe  Fe503     1.0  0.73683  0.43931  0.11278  1.0000
  S   S1009     1.0  0.72306  0.43967  0.12800  1.0000
  S   S1010     1.0  0.75502  0.43694  0.11252  1.0000
  Fe  Fe504     1.0  0.72098  0.44419  0.09748  1.0000
  S   S1011     1.0  0.70566  0.44559  0.11128  1.0000
  S   S1012     1.0  0.72018  0.44718  0.07960  1.0000
  Fe  Fe505     1.0  0.71454  0.45508  0.11754  1.0000
  S   S1013     1.0  0.70736  0.47177  0.12267  1.0000
  Fe  Fe506     1.0  0.71561  0.43008  0.12039  1.0000
  S   S1014     1.0  0.70985  0.41425  0.13042  1.0000
  S   S1015     1.0  0.72881  0.45510  0.10271  1.0000
  S   S1016     1.0  0.73041  0.42824  0.10623  1.0000
  H   H5813     1.0  0.81818  0.39592  0.13551  1.0000
  C   C3380     1.0  0.82240  0.38968  0.13026  1.0000
  S   S1017     1.0  0.75182  0.35117  0.00606  1.0000
  C   C3381     1.0  0.75779  0.35905  0.01144  1.0000
  C   C3382     1.0  0.76128  0.35432  0.02151  1.0000
  C   C3383     1.0  0.76634  0.36019  0.02593  1.0000
  C   C3384     1.0  0.76804  0.37083  0.02026  1.0000
  C   C3385     1.0  0.76443  0.37563  0.01025  1.0000
  C   C3386     1.0  0.75918  0.36984  0.00593  1.0000
  H   H5814     1.0  0.76022  0.34600  0.02585  1.0000
  H   H5815     1.0  0.76924  0.35633  0.03357  1.0000
  H   H5816     1.0  0.76578  0.38383  0.00579  1.0000
  H   H5817     1.0  0.75636  0.37367  0.99827  1.0000
  C   C3387     1.0  0.74945  0.42863  0.05708  1.0000
  C   C3388     1.0  0.74372  0.43932  0.05291  1.0000
  C   C3389     1.0  0.73476  0.44498  0.05990  1.0000
  C   C3390     1.0  0.73185  0.44020  0.07119  1.0000
  C   C3391     1.0  0.73785  0.42965  0.07544  1.0000
  C   C3392     1.0  0.74640  0.42375  0.06833  1.0000
  H   H5818     1.0  0.74605  0.44315  0.04422  1.0000
  H   H5819     1.0  0.73013  0.45312  0.05655  1.0000
  H   H5820     1.0  0.73567  0.42586  0.08410  1.0000
  H   H5821     1.0  0.75084  0.41554  0.07161  1.0000
  H   H5822     1.0  0.69027  0.27302  0.13056  1.0000
  H   H5823     1.0  0.70281  0.41617  0.07272  1.0000
  H   H5824     1.0  0.69301  0.42295  0.09837  1.0000
  C   C3393     1.0  0.71491  0.47675  0.12937  1.0000
  C   C3394     1.0  0.71833  0.47036  0.13910  1.0000
  C   C3395     1.0  0.72386  0.47471  0.14459  1.0000
  C   C3396     1.0  0.79004  0.35706  0.99694  1.0000
  H   H5825     1.0  0.71650  0.46215  0.14252  1.0000
  H   H5826     1.0  0.72630  0.46977  0.15221  1.0000
  H   H5827     1.0  0.71381  0.40508  0.06924  1.0000
  C   C3397     1.0  0.57355  0.24652  0.07689  1.0000
  H   H5828     1.0  0.78180  0.35680  0.00282  1.0000
  H   H5829     1.0  0.74631  0.38139  0.14315  1.0000
  H   H5830     1.0  0.59201  0.25659  0.08164  1.0000
  H   H5831     1.0  0.60008  0.24500  0.13877  1.0000
  H   H5832     1.0  0.73836  0.48623  0.10635  1.0000
  C   C3398     1.0  0.67346  0.32276  0.12273  1.0000
  C   C3399     1.0  0.67654  0.32520  0.11114  1.0000
  C   C3400     1.0  0.67174  0.32099  0.10481  1.0000
  C   C3401     1.0  0.66379  0.31426  0.10991  1.0000
  C   C3402     1.0  0.66066  0.31186  0.12152  1.0000
  C   C3403     1.0  0.66545  0.31609  0.12786  1.0000
  H   H5833     1.0  0.68267  0.33029  0.10702  1.0000
  H   H5834     1.0  0.67426  0.32291  0.09585  1.0000
  H   H5835     1.0  0.65453  0.30677  0.12561  1.0000
  H   H5836     1.0  0.66295  0.31418  0.13681  1.0000
  C   C3404     1.0  0.72472  0.35332  0.08340  1.0000
  C   C3405     1.0  0.71634  0.36284  0.08490  1.0000
  C   C3406     1.0  0.71704  0.37299  0.07734  1.0000
  C   C3407     1.0  0.72634  0.37369  0.06857  1.0000
  C   C3408     1.0  0.73455  0.36412  0.06691  1.0000
  C   C3409     1.0  0.73370  0.35390  0.07426  1.0000
  H   H5837     1.0  0.70936  0.36243  0.09192  1.0000
  H   H5838     1.0  0.71053  0.38032  0.07846  1.0000
  H   H5839     1.0  0.74146  0.36452  0.05985  1.0000
  H   H5840     1.0  0.74014  0.34652  0.07304  1.0000
  C   C3410     1.0  0.69462  0.39056  0.12060  1.0000
  C   C3411     1.0  0.68929  0.40187  0.11973  1.0000
  C   C3412     1.0  0.69429  0.40944  0.12191  1.0000
  C   C3413     1.0  0.70470  0.40576  0.12495  1.0000
  C   C3414     1.0  0.71017  0.39455  0.12546  1.0000
  C   C3415     1.0  0.70517  0.38698  0.12333  1.0000
  H   H5841     1.0  0.68115  0.40476  0.11757  1.0000
  H   H5842     1.0  0.68986  0.41800  0.12174  1.0000
  H   H5843     1.0  0.71821  0.39165  0.12777  1.0000
  H   H5844     1.0  0.70941  0.37833  0.12399  1.0000
  C   C3416     1.0  0.81480  0.37486  0.16990  1.0000
  C   C3417     1.0  0.82038  0.37033  0.17876  1.0000
  C   C3418     1.0  0.82573  0.37681  0.18219  1.0000
  C   C3419     1.0  0.82573  0.38791  0.17668  1.0000
  C   C3420     1.0  0.82037  0.39234  0.16764  1.0000
  C   C3421     1.0  0.81485  0.38594  0.16434  1.0000
  H   H5845     1.0  0.82050  0.36176  0.18308  1.0000
  H   H5846     1.0  0.82985  0.37323  0.18911  1.0000
  H   H5847     1.0  0.82036  0.40089  0.16326  1.0000
  H   H5848     1.0  0.81066  0.38959  0.15749  1.0000
  C   C3422     1.0  0.76064  0.41289  0.14481  1.0000
  C   C3423     1.0  0.75183  0.42225  0.14504  1.0000
  C   C3424     1.0  0.75020  0.42987  0.13512  1.0000
  C   C3425     1.0  0.75751  0.42818  0.12507  1.0000
  C   C3426     1.0  0.76658  0.41911  0.12497  1.0000
  C   C3427     1.0  0.76805  0.41139  0.13479  1.0000
  H   H5849     1.0  0.74610  0.42345  0.15280  1.0000
  H   H5850     1.0  0.74331  0.43704  0.13527  1.0000
  H   H5851     1.0  0.77225  0.41779  0.11727  1.0000
  H   H5852     1.0  0.77489  0.40421  0.13453  1.0000
  C   C3428     1.0  0.78993  0.37902  0.10470  1.0000
  C   C3429     1.0  0.78054  0.37425  0.10929  1.0000
  C   C3430     1.0  0.77488  0.37203  0.10237  1.0000
  C   C3431     1.0  0.77846  0.37459  0.09079  1.0000
  C   C3432     1.0  0.78792  0.37928  0.08616  1.0000
  C   C3433     1.0  0.79365  0.38145  0.09311  1.0000
  H   H5853     1.0  0.77770  0.37213  0.11818  1.0000
  H   H5854     1.0  0.76769  0.36829  0.10605  1.0000
  H   H5855     1.0  0.79103  0.38088  0.07727  1.0000
  H   H5856     1.0  0.80102  0.38497  0.08948  1.0000
  C   C3434     1.0  0.75338  0.34888  0.15104  1.0000
  C   C3435     1.0  0.74786  0.35602  0.14274  1.0000
  C   C3436     1.0  0.73863  0.35333  0.14048  1.0000
  C   C3437     1.0  0.73485  0.34359  0.14664  1.0000
  C   C3438     1.0  0.74039  0.33664  0.15489  1.0000
  C   C3439     1.0  0.74955  0.33922  0.15701  1.0000
  H   H5857     1.0  0.75079  0.36347  0.13798  1.0000
  H   H5858     1.0  0.73436  0.35881  0.13414  1.0000
  H   H5859     1.0  0.73758  0.32914  0.15972  1.0000
  H   H5860     1.0  0.75368  0.33363  0.16343  1.0000
  H   H5861     1.0  0.90523  0.37896  0.19560  1.0000
  H   H5862     1.0  0.82441  0.37448  0.11631  1.0000
  H   H5863     1.0  0.82080  0.35725  0.14573  1.0000
  C   C3440     1.0  0.84465  0.43386  0.21789  1.0000
  C   C3441     1.0  0.52837  0.25529  0.06944  1.0000
  H   H5864     1.0  0.73132  0.40314  0.13396  1.0000
  H   H5865     1.0  0.60279  0.25609  0.06936  1.0000
  C   C3442     1.0  0.82146  0.35777  0.12221  1.0000
  C   C3443     1.0  0.52389  0.26118  0.05882  1.0000
  H   H5866     1.0  0.66709  0.28709  0.11390  1.0000
  C   C3444     1.0  0.90426  0.39935  0.20859  1.0000
  C   C3445     1.0  0.90880  0.39084  0.20268  1.0000
  C   C3446     1.0  0.90167  0.38547  0.20026  1.0000
  C   C3447     1.0  0.88998  0.38855  0.20377  1.0000
  C   C3448     1.0  0.88549  0.39710  0.20963  1.0000
  C   C3449     1.0  0.89259  0.40240  0.21210  1.0000
  H   H5867     1.0  0.91778  0.38859  0.19971  1.0000
  H   H5868     1.0  0.68279  0.25538  0.13054  1.0000
  H   H5869     1.0  0.87655  0.39962  0.21232  1.0000
  H   H5870     1.0  0.88898  0.40891  0.21672  1.0000
  S   S1018     1.0  0.61564  0.24046  0.05455  1.0000
  C   C3450     1.0  0.64713  0.24629  0.11988  1.0000
  Fe  Fe507     1.0  0.74830  0.35647  0.98869  1.0000
  C   C3451     1.0  0.49877  0.26245  0.09527  1.0000
  H   H5871     1.0  0.78903  0.37317  0.00082  1.0000
  C   C3452     1.0  0.98594  0.40167  0.21941  1.0000
  H   H5872     1.0  0.69431  0.27639  0.11604  1.0000
  H   H5873     1.0  0.67174  0.25036  0.08697  1.0000
  C   C3453     1.0  0.63986  0.26018  0.05428  1.0000
  C   C3454     1.0  0.63564  0.25981  0.06567  1.0000
  C   C3455     1.0  0.63492  0.26896  0.07018  1.0000
  C   C3456     1.0  0.63838  0.27855  0.06327  1.0000
  C   C3457     1.0  0.64202  0.27910  0.05183  1.0000
  C   C3458     1.0  0.64288  0.26992  0.04738  1.0000
  H   H5874     1.0  0.63349  0.25223  0.07104  1.0000
  H   H5875     1.0  0.63198  0.26850  0.07899  1.0000
  H   H5876     1.0  0.64463  0.28650  0.04643  1.0000
  H   H5877     1.0  0.64637  0.27021  0.03863  1.0000
  C   C3459     1.0  0.82445  0.37799  0.13793  1.0000
  H   H5878     1.0  0.89999  0.36561  0.21391  1.0000
  H   H5879     1.0  0.96399  0.42713  0.22588  1.0000
  C   C3460     1.0  0.57777  0.28958  0.10588  1.0000
  C   C3461     1.0  0.57807  0.29917  0.10898  1.0000
  C   C3462     1.0  0.58724  0.29960  0.11284  1.0000
  C   C3463     1.0  0.59650  0.29066  0.11313  1.0000
  C   C3464     1.0  0.59643  0.28113  0.10968  1.0000
  C   C3465     1.0  0.58699  0.28053  0.10621  1.0000
  H   H5880     1.0  0.57104  0.30623  0.10866  1.0000
  H   H5881     1.0  0.58716  0.30691  0.11562  1.0000
  H   H5882     1.0  0.60349  0.27411  0.11006  1.0000
  H   H5883     1.0  0.58687  0.27313  0.10370  1.0000
  C   C3466     1.0  0.51288  0.26342  0.10448  1.0000
  C   C3467     1.0  0.51781  0.25223  0.10429  1.0000
  C   C3468     1.0  0.51334  0.24623  0.09945  1.0000
  H   H5884     1.0  0.67250  0.27092  0.14023  1.0000
  C   C3469     1.0  0.59787  0.25140  0.13146  1.0000
  H   H5885     1.0  0.59278  0.24937  0.10377  1.0000
  H   H5886     1.0  0.52507  0.24819  0.10787  1.0000
  H   H5887     1.0  0.81668  0.35966  0.11558  1.0000
  H   H5888     1.0  0.56645  0.27388  0.15073  1.0000
  C   C3470     1.0  0.75135  0.46022  0.13708  1.0000
  H   H5889     1.0  0.68985  0.39610  0.09552  1.0000
  H   H5890     1.0  0.72767  0.40321  0.10096  1.0000
  C   C3471     1.0  0.58374  0.25583  0.05534  1.0000
  C   C3472     1.0  0.57686  0.26278  0.06239  1.0000
  C   C3473     1.0  0.57191  0.25811  0.07325  1.0000
  H   H5891     1.0  0.68928  0.41062  0.09025  1.0000
  H   H5892     1.0  0.71667  0.42860  0.06867  1.0000
  H   H5893     1.0  0.57578  0.27172  0.05961  1.0000
  N   N245      1.0  0.65718  0.36001  0.12639  1.0000
  C   C3474     1.0  0.66422  0.36829  0.12522  1.0000
  C   C3475     1.0  0.66272  0.35360  0.11731  1.0000
  C   C3476     1.0  0.65746  0.35216  0.13753  1.0000
  C   C3477     1.0  0.64537  0.36629  0.12565  1.0000
  C   C3478     1.0  0.66085  0.37497  0.13445  1.0000
  C   C3479     1.0  0.66398  0.36063  0.10535  1.0000
  C   C3480     1.0  0.65102  0.34274  0.14054  1.0000
  C   C3481     1.0  0.63803  0.36040  0.12223  1.0000
  H   H5894     1.0  0.67320  0.36403  0.12482  1.0000
  H   H5895     1.0  0.66406  0.37461  0.11731  1.0000
  H   H5896     1.0  0.65840  0.34701  0.11769  1.0000
  H   H5897     1.0  0.67126  0.34895  0.11838  1.0000
  H   H5898     1.0  0.66630  0.34822  0.13825  1.0000
  H   H5899     1.0  0.65383  0.35671  0.14439  1.0000
  H   H5900     1.0  0.64073  0.36862  0.13370  1.0000
  H   H5901     1.0  0.64557  0.37432  0.11944  1.0000
  H   H5902     1.0  0.66534  0.38193  0.13174  1.0000
  H   H5903     1.0  0.65176  0.37873  0.13624  1.0000
  H   H5904     1.0  0.66348  0.36977  0.14217  1.0000
  H   H5905     1.0  0.65606  0.36645  0.10377  1.0000
  H   H5906     1.0  0.67071  0.36534  0.10336  1.0000
  H   H5907     1.0  0.66655  0.35494  0.09947  1.0000
  H   H5908     1.0  0.65369  0.33744  0.13435  1.0000
  H   H5909     1.0  0.64183  0.34604  0.14202  1.0000
  H   H5910     1.0  0.65282  0.33712  0.14845  1.0000
  H   H5911     1.0  0.62927  0.36239  0.12702  1.0000
  H   H5912     1.0  0.64054  0.35123  0.12373  1.0000
  H   H5913     1.0  0.63756  0.36378  0.11338  1.0000
  H   H5914     1.0  0.65273  0.26919  0.14212  1.0000
  C   C3482     1.0  0.50380  0.25131  0.09496  1.0000
  H   H5915     1.0  0.73774  0.39298  0.09428  1.0000
  H   H5916     1.0  0.73104  0.40872  0.08030  1.0000
  H   H5917     1.0  0.65387  0.24396  0.07114  1.0000
  N   N246      1.0  0.59990  0.29176  0.06978  1.0000
  C   C3483     1.0  0.58773  0.29329  0.07570  1.0000
  C   C3484     1.0  0.60664  0.29036  0.07833  1.0000
  C   C3485     1.0  0.60361  0.28103  0.06561  1.0000
  C   C3486     1.0  0.60165  0.30184  0.06068  1.0000
  C   C3487     1.0  0.57934  0.29287  0.06922  1.0000
  C   C3488     1.0  0.60458  0.30036  0.08376  1.0000
  C   C3489     1.0  0.60240  0.28162  0.05377  1.0000
  C   C3490     1.0  0.61403  0.30194  0.05493  1.0000
  H   H5918     1.0  0.58663  0.28676  0.08344  1.0000
  H   H5919     1.0  0.58471  0.30141  0.07832  1.0000
  H   H5920     1.0  0.61576  0.28841  0.07475  1.0000
  H   H5921     1.0  0.60518  0.28300  0.08516  1.0000
  H   H5922     1.0  0.61265  0.27725  0.06556  1.0000
  H   H5923     1.0  0.59915  0.27463  0.07144  1.0000
  H   H5924     1.0  0.59695  0.30284  0.05420  1.0000
  H   H5925     1.0  0.59809  0.30954  0.06405  1.0000
  H   H5926     1.0  0.57983  0.29894  0.06116  1.0000
  H   H5927     1.0  0.58037  0.28432  0.06809  1.0000
  H   H5928     1.0  0.57070  0.29508  0.07420  1.0000
  H   H5929     1.0  0.59580  0.30258  0.08831  1.0000
  H   H5930     1.0  0.60990  0.29805  0.08997  1.0000
  H   H5931     1.0  0.60706  0.30777  0.07768  1.0000
  H   H5932     1.0  0.60425  0.27301  0.05240  1.0000
  H   H5933     1.0  0.60859  0.28593  0.04738  1.0000
  H   H5934     1.0  0.59393  0.28565  0.05224  1.0000
  H   H5935     1.0  0.61458  0.30603  0.04603  1.0000
  H   H5936     1.0  0.61949  0.29351  0.05528  1.0000
  H   H5937     1.0  0.61745  0.30701  0.05849  1.0000
  H   H5938     1.0  0.69475  0.40090  0.08106  1.0000
  C   C3491     1.0  0.91976  0.36582  0.22040  1.0000
  H   H5939     1.0  0.71608  0.42351  0.05725  1.0000
  H   H5940     1.0  0.72763  0.41735  0.06378  1.0000
  S   S1019     1.0  0.55970  0.24474  0.14097  1.0000
  H   H5941     1.0  0.60401  0.24021  0.99419  1.0000
  C   C3492     1.0  0.91317  0.35874  0.23049  1.0000
  H   H5942     1.0  0.75378  0.48717  0.11058  1.0000
  S   S1020     1.0  0.96905  0.39635  0.21350  1.0000
  H   H5943     1.0  0.72939  0.37789  0.17057  1.0000
  C   C3493     1.0  0.87735  0.44572  0.21786  1.0000
  H   H5944     1.0  0.52167  0.25737  0.07669  1.0000
  H   H5945     1.0  0.89365  0.42586  0.21303  1.0000
  H   H5946     1.0  0.66307  0.25754  0.13810  1.0000
  S   S1021     1.0  0.93755  0.40895  0.22200  1.0000
  H   H5947     1.0  0.81678  0.39044  0.12468  1.0000
  H   H5948     1.0  0.87925  0.37578  0.22858  1.0000
  H   H5949     1.0  0.69990  0.43442  0.09162  1.0000
  H   H5950     1.0  0.52729  0.25604  0.05242  1.0000
  S   S1022     1.0  0.64393  0.24784  0.04917  1.0000
  H   H5951     1.0  0.76834  0.47629  0.12797  1.0000
  N   N247      1.0  0.72587  0.37377  0.03265  1.0000
  C   C3494     1.0  0.72486  0.36407  0.04247  1.0000
  C   C3495     1.0  0.71585  0.38303  0.03500  1.0000
  C   C3496     1.0  0.73652  0.37742  0.03176  1.0000
  C   C3497     1.0  0.72633  0.36977  0.02246  1.0000
  C   C3498     1.0  0.73516  0.35424  0.04268  1.0000
  C   C3499     1.0  0.70433  0.38045  0.03619  1.0000
  C   C3500     1.0  0.73736  0.38943  0.02551  1.0000
  C   C3501     1.0  0.72613  0.37850  0.01147  1.0000
  H   H5952     1.0  0.72305  0.36692  0.05037  1.0000
  H   H5953     1.0  0.71767  0.36040  0.04297  1.0000
  H   H5954     1.0  0.71626  0.39075  0.02849  1.0000
  H   H5955     1.0  0.71573  0.38548  0.04276  1.0000
  H   H5956     1.0  0.73793  0.37673  0.04017  1.0000
  H   H5957     1.0  0.74388  0.37180  0.02775  1.0000
  H   H5958     1.0  0.73412  0.36339  0.02073  1.0000
  H   H5959     1.0  0.71963  0.36513  0.02381  1.0000
  H   H5960     1.0  0.73701  0.35021  0.03555  1.0000
  H   H5961     1.0  0.74275  0.35674  0.04303  1.0000
  H   H5962     1.0  0.73333  0.34778  0.05033  1.0000
  H   H5963     1.0  0.70374  0.37809  0.02869  1.0000
  H   H5964     1.0  0.70231  0.37391  0.04367  1.0000
  H   H5965     1.0  0.69773  0.38808  0.03724  1.0000
  H   H5966     1.0  0.73530  0.39164  0.01725  1.0000
  H   H5967     1.0  0.74614  0.39030  0.02416  1.0000
  H   H5968     1.0  0.73200  0.39554  0.03055  1.0000
  H   H5969     1.0  0.73475  0.37953  0.00706  1.0000
  H   H5970     1.0  0.72068  0.38669  0.01243  1.0000
  H   H5971     1.0  0.72257  0.37560  0.00601  1.0000
  N   N248      1.0  0.82946  0.36831  0.13221  1.0000
  C   C3502     1.0  0.84112  0.36948  0.12584  1.0000
  C   C3503     1.0  0.83655  0.35614  0.14978  1.0000
  C   C3504     1.0  0.84823  0.35983  0.12028  1.0000
  H   H5972     1.0  0.82984  0.37842  0.14329  1.0000
  H   H5973     1.0  0.83274  0.35021  0.13749  1.0000
  H   H5974     1.0  0.84081  0.37709  0.11908  1.0000
  H   H5975     1.0  0.84597  0.37064  0.13134  1.0000
  H   H5976     1.0  0.83035  0.39208  0.12533  1.0000
  H   H5977     1.0  0.83319  0.36246  0.15498  1.0000
  H   H5978     1.0  0.83611  0.34795  0.15558  1.0000
  H   H5979     1.0  0.84552  0.35600  0.14596  1.0000
  H   H5980     1.0  0.84933  0.35174  0.12628  1.0000
  H   H5981     1.0  0.85675  0.36150  0.11643  1.0000
  H   H5982     1.0  0.84473  0.35924  0.11348  1.0000
  N   N249      1.0  0.77324  0.41900  0.08537  1.0000
  C   C3505     1.0  0.76947  0.42926  0.07693  1.0000
  C   C3506     1.0  0.78075  0.41039  0.07900  1.0000
  C   C3507     1.0  0.77982  0.42225  0.09178  1.0000
  C   C3508     1.0  0.76294  0.41524  0.09293  1.0000
  C   C3509     1.0  0.76187  0.43937  0.08162  1.0000
  C   C3510     1.0  0.77504  0.40573  0.07261  1.0000
  C   C3511     1.0  0.78806  0.41280  0.09778  1.0000
  C   C3512     1.0  0.76468  0.40392  0.10117  1.0000
  H   H5983     1.0  0.77684  0.43213  0.07091  1.0000
  H   H5984     1.0  0.76471  0.42743  0.07181  1.0000
  H   H5985     1.0  0.78488  0.40305  0.08445  1.0000
  H   H5986     1.0  0.78779  0.41383  0.07296  1.0000
  H   H5987     1.0  0.78500  0.42821  0.08619  1.0000
  H   H5988     1.0  0.77407  0.42679  0.09811  1.0000
  H   H5989     1.0  0.75816  0.42140  0.09814  1.0000
  H   H5990     1.0  0.75686  0.41519  0.08812  1.0000
  H   H5991     1.0  0.76010  0.44643  0.07458  1.0000
  H   H5992     1.0  0.75361  0.43765  0.08649  1.0000
  H   H5993     1.0  0.76589  0.44225  0.08669  1.0000
  H   H5994     1.0  0.78131  0.39916  0.06873  1.0000
  H   H5995     1.0  0.76814  0.40179  0.07812  1.0000
  H   H5996     1.0  0.77203  0.41213  0.06570  1.0000
  H   H5997     1.0  0.79556  0.40949  0.09180  1.0000
  H   H5998     1.0  0.78418  0.40586  0.10313  1.0000
  H   H5999     1.0  0.79114  0.41620  0.10323  1.0000
  H   H6000     1.0  0.76548  0.40496  0.10923  1.0000
  H   H6001     1.0  0.77193  0.39769  0.09804  1.0000
  H   H6002     1.0  0.75733  0.40014  0.10270  1.0000
  H   H6003     1.0  0.88271  0.44983  0.22026  1.0000
  S   S1023     1.0  0.94147  0.38392  0.21749  1.0000
  N   N250      1.0  0.88292  0.44160  0.20727  1.0000
  H   H6004     1.0  0.74359  0.46060  0.11514  1.0000
  H   H6005     1.0  0.87447  0.42775  0.21368  1.0000
  H   H6006     1.0  0.72473  0.41734  0.15756  1.0000
  C   C3513     1.0  0.69331  0.25694  0.11440  1.0000
  H   H6007     1.0  0.60406  0.27502  0.14366  1.0000
  H   H6008     1.0  0.51459  0.26242  0.06091  1.0000
  H   H6009     1.0  0.77992  0.46458  0.10970  1.0000
  C   C3514     1.0  0.60863  0.24695  0.08443  1.0000
  C   C3515     1.0  0.77574  0.46103  0.10538  1.0000
  H   H6010     1.0  0.87515  0.45503  0.19532  1.0000
  C   C3516     1.0  0.86609  0.45423  0.21769  1.0000
  H   H6011     1.0  0.69474  0.24795  0.11441  1.0000
  C   C3517     1.0  0.89440  0.43433  0.20805  1.0000
  C   C3518     1.0  0.72257  0.37793  0.14863  1.0000
  C   C3519     1.0  0.74664  0.37898  0.16769  1.0000
  H   H6012     1.0  0.74323  0.45818  0.13763  1.0000
  C   C3520     1.0  0.87579  0.43440  0.20606  1.0000
  N   N251      1.0  0.60196  0.25777  0.98686  1.0000
  C   C3521     1.0  0.69922  0.42610  0.09101  1.0000
  C   C3522     1.0  0.66980  0.24985  0.07918  1.0000
  C   C3523     1.0  0.83552  0.44897  0.22756  1.0000
  N   N252      1.0  0.73284  0.38942  0.15471  1.0000
  H   H6013     1.0  0.59123  0.24834  0.00019  1.0000
  C   C3524     1.0  0.59934  0.26822  0.14658  1.0000
  H   H6014     1.0  0.88546  0.46821  0.19233  1.0000
  H   H6015     1.0  0.54905  0.25386  0.08250  1.0000
  H   H6016     1.0  0.94879  0.42941  0.23118  1.0000
  H   H6017     1.0  0.54753  0.24368  0.06126  1.0000
  H   H6018     1.0  0.60910  0.26009  0.01067  1.0000
  C   C3525     1.0  0.68378  0.29004  0.12296  1.0000
  H   H6019     1.0  0.68862  0.28120  0.10094  1.0000
  H   H6020     1.0  0.74457  0.47614  0.09758  1.0000
  H   H6021     1.0  0.87464  0.42306  0.19667  1.0000
  H   H6022     1.0  0.53890  0.27392  0.05951  1.0000
  H   H6023     1.0  0.55698  0.24953  0.06469  1.0000
  H   H6024     1.0  0.73266  0.41321  0.14510  1.0000
  H   H6025     1.0  0.58834  0.24250  0.09613  1.0000
  H   H6026     1.0  0.56743  0.27392  0.12658  1.0000
  C   C3526     1.0  0.59444  0.24124  0.10133  1.0000
  S   S1024     1.0  0.73120  0.35879  0.98520  1.0000
  H   H6027     1.0  0.73850  0.40026  0.16149  1.0000
  C   C3527     1.0  0.73069  0.39944  0.15971  1.0000
  H   H6028     1.0  0.52139  0.27577  0.07483  1.0000
  H   H6029     1.0  0.88878  0.42308  0.19627  1.0000
  H   H6030     1.0  0.88832  0.46173  0.20554  1.0000
  H   H6031     1.0  0.73565  0.45647  0.98794  1.0000
  H   H6032     1.0  0.58019  0.25216  0.13435  1.0000
  C   C3528     1.0  0.53938  0.26940  0.06812  1.0000
  H   H6033     1.0  0.91786  0.37466  0.22106  1.0000
  N   N253      1.0  0.75689  0.34178  0.10828  1.0000
  C   C3529     1.0  0.75117  0.33357  0.10668  1.0000
  C   C3530     1.0  0.76639  0.34355  0.09840  1.0000
  C   C3531     1.0  0.74891  0.35283  0.10911  1.0000
  C   C3532     1.0  0.76102  0.33718  0.11894  1.0000
  C   C3533     1.0  0.74050  0.33148  0.11545  1.0000
  C   C3534     1.0  0.77635  0.33350  0.09735  1.0000
  C   C3535     1.0  0.74328  0.35862  0.09916  1.0000
  C   C3536     1.0  0.76839  0.34378  0.12130  1.0000
  H   H6034     1.0  0.74894  0.33612  0.09839  1.0000
  H   H6035     1.0  0.75694  0.32527  0.10677  1.0000
  H   H6036     1.0  0.76976  0.35076  0.09828  1.0000
  H   H6037     1.0  0.76339  0.34583  0.09052  1.0000
  H   H6038     1.0  0.74217  0.35201  0.11673  1.0000
  H   H6039     1.0  0.75330  0.35886  0.11002  1.0000
  H   H6040     1.0  0.75381  0.33695  0.12620  1.0000
  H   H6041     1.0  0.76548  0.32828  0.11972  1.0000
  H   H6042     1.0  0.74211  0.32797  0.12392  1.0000
  H   H6043     1.0  0.73381  0.33910  0.11545  1.0000
  H   H6044     1.0  0.73714  0.32531  0.11333  1.0000
  H   H6045     1.0  0.78282  0.33599  0.08991  1.0000
  H   H6046     1.0  0.78040  0.33085  0.10456  1.0000
  H   H6047     1.0  0.77385  0.32633  0.09609  1.0000
  H   H6048     1.0  0.73820  0.35349  0.09786  1.0000
  H   H6049     1.0  0.74945  0.36092  0.09140  1.0000
  H   H6050     1.0  0.73746  0.36651  0.10087  1.0000
  H   H6051     1.0  0.76329  0.35143  0.12415  1.0000
  H   H6052     1.0  0.77507  0.34612  0.11410  1.0000
  H   H6053     1.0  0.77291  0.33840  0.12782  1.0000
  Fe  Fe508     1.0  0.95150  0.39370  0.22189  1.0000
  H   H6054     1.0  0.81626  0.37691  0.14356  1.0000
  H   H6055     1.0  0.71156  0.41508  0.09944  1.0000
  C   C3537     1.0  0.75908  0.45989  0.12553  1.0000
  H   H6056     1.0  0.69600  0.42776  0.08341  1.0000
  H   H6057     1.0  0.50952  0.24294  0.13293  1.0000
  C   C3538     1.0  0.97800  0.39495  0.22243  1.0000
  H   H6058     1.0  0.70530  0.39942  0.10050  1.0000
  C   C3539     1.0  0.66054  0.26021  0.07652  1.0000
  H   H6059     1.0  0.81680  0.35279  0.12965  1.0000
  H   H6060     1.0  0.81317  0.37261  0.12786  1.0000
  H   H6061     1.0  0.59910  0.24684  0.12483  1.0000
  N   N254      1.0  0.58183  0.26354  0.14335  1.0000
  H   H6062     1.0  0.72403  0.39052  0.10060  1.0000
  C   C3540     1.0  0.82206  0.36886  0.12449  1.0000
  H   H6063     1.0  0.71047  0.39174  0.08996  1.0000
  H   H6064     1.0  0.73901  0.48012  0.98385  1.0000
  H   H6065     1.0  0.55822  0.28276  0.13531  1.0000
  C   C3541     1.0  0.88034  0.42853  0.19617  1.0000
  N   N255      1.0  0.78169  0.40106  0.18244  1.0000
  C   C3542     1.0  0.77747  0.41069  0.17365  1.0000
  C   C3543     1.0  0.77263  0.40100  0.19287  1.0000
  C   C3544     1.0  0.78366  0.39044  0.17843  1.0000
  C   C3545     1.0  0.79245  0.40281  0.18391  1.0000
  C   C3546     1.0  0.78484  0.41146  0.16179  1.0000
  C   C3547     1.0  0.76973  0.41137  0.19793  1.0000
  C   C3548     1.0  0.78367  0.37946  0.18726  1.0000
  C   C3549     1.0  0.79768  0.39476  0.19343  1.0000
  H   H6066     1.0  0.76893  0.41042  0.17308  1.0000
  H   H6067     1.0  0.77658  0.41882  0.17578  1.0000
  H   H6068     1.0  0.77474  0.39374  0.19958  1.0000
  H   H6069     1.0  0.76475  0.40005  0.19129  1.0000
  H   H6070     1.0  0.77707  0.39096  0.17393  1.0000
  H   H6071     1.0  0.79173  0.38923  0.17228  1.0000
  H   H6072     1.0  0.79907  0.40211  0.17628  1.0000
  H   H6073     1.0  0.79166  0.41149  0.18468  1.0000
  H   H6074     1.0  0.79321  0.41291  0.16130  1.0000
  H   H6075     1.0  0.78578  0.40402  0.15847  1.0000
  H   H6076     1.0  0.78066  0.41867  0.15614  1.0000
  H   H6077     1.0  0.76351  0.41002  0.20590  1.0000
  H   H6078     1.0  0.77715  0.41284  0.19986  1.0000
  H   H6079     1.0  0.76575  0.41896  0.19255  1.0000
  H   H6080     1.0  0.77507  0.37895  0.19214  1.0000
  H   H6081     1.0  0.78932  0.37815  0.19292  1.0000
  H   H6082     1.0  0.78667  0.37234  0.18301  1.0000
  H   H6083     1.0  0.80305  0.38710  0.19077  1.0000
  H   H6084     1.0  0.79151  0.39251  0.20113  1.0000
  H   H6085     1.0  0.80306  0.39892  0.19581  1.0000
  N   N256      1.0  0.71328  0.40862  0.08495  1.0000
  C   C3550     1.0  0.72542  0.40281  0.08452  1.0000
  C   C3551     1.0  0.71168  0.41239  0.07315  1.0000
  C   C3552     1.0  0.70622  0.40022  0.09150  1.0000
  C   C3553     1.0  0.71084  0.41821  0.09062  1.0000
  C   C3554     1.0  0.72871  0.39712  0.09582  1.0000
  C   C3555     1.0  0.71849  0.42094  0.06543  1.0000
  C   C3556     1.0  0.69436  0.40226  0.08935  1.0000
  C   C3557     1.0  0.65967  0.26657  0.13529  1.0000
  H   H6086     1.0  0.65595  0.26772  0.12808  1.0000
  S   S1025     1.0  0.49866  0.24360  0.08867  1.0000
  C   C3558     1.0  0.59720  0.24746  0.99216  1.0000
  C   C3559     1.0  0.66869  0.27350  0.13280  1.0000
  H   H6087     1.0  0.60503  0.26085  0.14372  1.0000
  H   H6088     1.0  0.52552  0.26964  0.05528  1.0000
  H   H6089     1.0  0.87592  0.43857  0.22496  1.0000
  H   H6090     1.0  0.88849  0.36061  0.22260  1.0000
  H   H6091     1.0  0.71459  0.37871  0.14617  1.0000
  H   H6092     1.0  0.60998  0.25460  0.08604  1.0000
  H   H6093     1.0  0.74992  0.46831  0.13945  1.0000
  H   H6094     1.0  0.53457  0.25509  0.08780  1.0000
  H   H6095     1.0  0.82661  0.42169  0.22503  1.0000
  H   H6096     1.0  0.89844  0.45818  0.19339  1.0000
  H   H6097     1.0  0.92887  0.36268  0.22022  1.0000
  H   H6098     1.0  0.73874  0.37152  0.15982  1.0000
  H   H6099     1.0  0.62906  0.24172  0.08963  1.0000
  C   C3560     1.0  0.73643  0.37917  0.16326  1.0000
  H   H6100     1.0  0.66498  0.24999  0.05450  1.0000
  H   H6101     1.0  0.62113  0.24831  0.13669  1.0000
  H   H6102     1.0  0.68054  0.27412  0.09657  1.0000
  H   H6103     1.0  0.67659  0.28886  0.09599  1.0000
  H   H6104     1.0  0.76369  0.47525  0.09893  1.0000
  H   H6105     1.0  0.91027  0.43243  0.21248  1.0000
  H   H6106     1.0  0.86728  0.43930  0.20510  1.0000
  H   H6107     1.0  0.57818  0.24803  0.15399  1.0000
  C   C3561     1.0  0.99228  0.40151  0.22696  1.0000
  H   H6108     1.0  0.58340  0.27920  0.14594  1.0000
  H   H6109     1.0  0.52885  0.24628  0.07028  1.0000
  H   H6110     1.0  0.90310  0.44663  0.20963  1.0000
  H   H6111     1.0  0.88040  0.43456  0.18810  1.0000
  C   C3562     1.0  0.56698  0.27797  0.13338  1.0000
  C   C3563     1.0  0.90184  0.43809  0.21343  1.0000
  C   C3564     1.0  0.88936  0.46016  0.19722  1.0000
  H   H6112     1.0  0.88830  0.44765  0.18964  1.0000
  H   H6113     1.0  0.75535  0.45370  0.14340  1.0000
  H   H6114     1.0  0.58484  0.26415  0.12572  1.0000
  C   C3565     1.0  0.58565  0.25796  0.13357  1.0000
  C   C3566     1.0  0.88360  0.45097  0.19717  1.0000
  H   H6115     1.0  0.89943  0.43310  0.19970  1.0000
  H   H6116     1.0  0.71869  0.39567  0.14649  1.0000
  H   H6117     1.0  0.89848  0.43728  0.22248  1.0000
  H   H6118     1.0  0.63407  0.26017  0.12430  1.0000
  C   C3567     1.0  0.63653  0.25121  0.12529  1.0000
  C   C3568     1.0  0.57701  0.25877  0.16476  1.0000
  H   H6119     1.0  0.71531  0.38862  0.16032  1.0000
  H   H6120     1.0  0.56431  0.26311  0.14573  1.0000
  C   C3569     1.0  0.68188  0.26035  0.12209  1.0000
  H   H6121     1.0  0.76762  0.45951  0.12645  1.0000
  H   H6122     1.0  0.65277  0.26020  0.08307  1.0000
  C   C3570     1.0  0.68008  0.28067  0.10098  1.0000
  C   C3571     1.0  0.68695  0.27749  0.12296  1.0000
  H   H6123     1.0  0.74955  0.37043  0.17242  1.0000
  Fe  Fe509     1.0  0.63151  0.24318  0.04246  1.0000
  Fe  Fe510     1.0  0.92702  0.39861  0.21948  1.0000
  H   H6124     1.0  0.71824  0.41142  0.15059  1.0000
  H   H6125     1.0  0.89909  0.37867  0.22400  1.0000
  H   H6126     1.0  0.57252  0.28404  0.13046  1.0000
  C   C3572     1.0  0.58242  0.25468  0.15384  1.0000
  C   C3573     1.0  0.54897  0.25174  0.06179  1.0000
  C   C3574     1.0  0.58854  0.27216  0.14197  1.0000
  C   C3575     1.0  0.50070  0.24185  0.13561  1.0000
  H   H6127     1.0  0.86718  0.46220  0.21179  1.0000
  C   C3576     1.0  0.60918  0.25849  0.99418  1.0000
  H   H6128     1.0  0.66409  0.28231  0.13263  1.0000
  C   C3577     1.0  0.74408  0.46908  0.11553  1.0000
  H   H6129     1.0  0.72459  0.39843  0.16783  1.0000
  C   C3578     1.0  0.75552  0.48049  0.11792  1.0000
  H   H6130     1.0  0.67723  0.29197  0.13030  1.0000
  H   H6131     1.0  0.65022  0.24286  0.09025  1.0000
  C   C3579     1.0  0.74217  0.38996  0.14447  1.0000
  H   H6132     1.0  0.61652  0.24367  0.07879  1.0000
  H   H6133     1.0  0.66610  0.27444  0.11192  1.0000
  C   C3580     1.0  0.59949  0.25110  0.07758  1.0000
  C   C3581     1.0  0.85131  0.42904  0.22585  1.0000
  H   H6134     1.0  0.61222  0.26641  0.99124  1.0000
  H   H6135     1.0  0.74878  0.39349  0.14565  1.0000
  H   H6136     1.0  0.75946  0.45170  0.12376  1.0000
  H   H6137     1.0  0.74448  0.38468  0.17349  1.0000
  H   H6138     1.0  0.68109  0.29510  0.11524  1.0000
  C   C3582     1.0  0.72202  0.38847  0.15263  1.0000
  H   H6139     1.0  0.61159  0.24751  0.10422  1.0000
  H   H6140     1.0  0.91587  0.44463  0.22526  1.0000
  C   C3583     1.0  0.56965  0.26930  0.14386  1.0000
  C   C3584     1.0  0.67229  0.27880  0.11259  1.0000
  N   N257      1.0  0.67764  0.27257  0.12232  1.0000
  H   H6141     1.0  0.79630  0.36139  0.00907  1.0000
  H   H6142     1.0  0.58276  0.24976  0.98472  1.0000
  C   C3585     1.0  0.72631  0.41088  0.15268  1.0000
  H   H6143     1.0  0.72948  0.37681  0.14133  1.0000
  H   H6144     1.0  0.73858  0.39095  0.12833  1.0000
  H   H6145     1.0  0.72338  0.37031  0.15532  1.0000
  H   H6146     1.0  0.74589  0.40096  0.12829  1.0000
  C   C3586     1.0  0.60359  0.25785  0.00658  1.0000
  H   H6147     1.0  0.91834  0.36524  0.21244  1.0000
  C   C3587     1.0  0.77968  0.35429  0.98469  1.0000
  H   H6148     1.0  0.54747  0.27040  0.06920  1.0000
  H   H6149     1.0  0.57898  0.26677  0.16456  1.0000
  H   H6150     1.0  0.83345  0.40855  0.23203  1.0000
  H   H6151     1.0  0.53031  0.27325  0.08453  1.0000
  H   H6152     1.0  0.59096  0.27610  0.13307  1.0000
  H   H6153     1.0  0.70032  0.25787  0.11747  1.0000
  C   C3588     1.0  0.58518  0.24426  0.05891  1.0000
  H   H6154     1.0  0.61689  0.25175  0.99374  1.0000
  H   H6155     1.0  0.67569  0.25713  0.11976  1.0000
  C   C3589     1.0  0.73220  0.46520  0.98900  1.0000
  C   C3590     1.0  0.59271  0.26812  0.98614  1.0000
  H   H6156     1.0  0.83174  0.44767  0.21265  1.0000
  C   C3591     1.0  0.62916  0.24451  0.13227  1.0000
  H   H6157     1.0  0.65866  0.26113  0.06833  1.0000
  H   H6158     1.0  0.90336  0.34873  0.20939  1.0000
  H   H6159     1.0  0.59749  0.26642  0.15577  1.0000
  C   C3592     1.0  0.90247  0.34772  0.21846  1.0000
  C   C3593     1.0  0.50328  0.26847  0.10007  1.0000
  C   C3594     1.0  0.95671  0.42315  0.22967  1.0000
  H   H6160     1.0  0.91726  0.34992  0.23036  1.0000
  H   H6161     1.0  0.85970  0.45105  0.21578  1.0000
  H   H6162     1.0  0.55565  0.26543  0.04950  1.0000
  C   C3595     1.0  0.59089  0.24392  0.98546  1.0000
  N   N258      1.0  0.75577  0.46921  0.11609  1.0000
  H   H6163     1.0  0.60379  0.25710  0.12828  1.0000
  C   C3596     1.0  0.55168  0.25855  0.04983  1.0000
  H   H6164     1.0  0.66349  0.26779  0.07606  1.0000
  N   N259      1.0  0.90070  0.36103  0.23139  1.0000
  H   H6165     1.0  0.60270  0.24922  0.01090  1.0000
  C   C3597     1.0  0.54151  0.25178  0.08142  1.0000
  C   C3598     1.0  0.76348  0.46724  0.10516  1.0000
  C   C3599     1.0  0.73941  0.47748  0.10579  1.0000
  C   C3600     1.0  0.89774  0.35924  0.22146  1.0000
  H   H6166     1.0  0.69127  0.29277  0.12330  1.0000
  H   H6167     1.0  0.91097  0.34377  0.21995  1.0000
  H   H6168     1.0  0.78081  0.33997  0.99906  1.0000
  H   H6169     1.0  0.59119  0.25032  0.15426  1.0000
  H   H6170     1.0  0.79532  0.34855  0.99896  1.0000
  H   H6171     1.0  0.78066  0.46147  0.09671  1.0000
  Fe  Fe511     1.0  0.60745  0.24860  0.04010  1.0000
  H   H6172     1.0  0.73090  0.47640  0.10621  1.0000
  H   H6173     1.0  0.77616  0.45205  0.10928  1.0000
  H   H6174     1.0  0.76029  0.46206  0.10145  1.0000
  H   H6175     1.0  0.80315  0.36637  0.99516  1.0000
  H   H6176     1.0  0.89668  0.34200  0.22289  1.0000
  H   H6177     1.0  0.55795  0.25305  0.04460  1.0000
  H   H6178     1.0  0.72312  0.46740  0.98915  1.0000
  C   C3601     1.0  0.72635  0.48533  0.14024  1.0000
  H   H6179     1.0  0.86259  0.45618  0.22606  1.0000
  H   H6180     1.0  0.56776  0.25974  0.16660  1.0000
  H   H6181     1.0  0.77129  0.35840  0.98888  1.0000
  H   H6182     1.0  0.58592  0.26746  0.99376  1.0000
  H   H6183     1.0  0.67751  0.25094  0.07270  1.0000
  C   C3602     1.0  0.57995  0.23962  0.06963  1.0000
  H   H6184     1.0  0.95599  0.41906  0.22333  1.0000
  H   H6185     1.0  0.77647  0.37518  0.98688  1.0000
  H   H6186     1.0  0.59600  0.27549  0.98584  1.0000
  H   H6187     1.0  0.85741  0.42134  0.22516  1.0000
  H   H6188     1.0  0.82931  0.45662  0.22820  1.0000
  H   H6189     1.0  0.99809  0.40700  0.22472  1.0000
  H   H6190     1.0  0.85335  0.36980  0.22941  1.0000
  S   S1026     1.0  0.56796  0.24045  0.09052  1.0000
  H   H6191     1.0  0.92880  0.42728  0.23215  1.0000
  C   C3603     1.0  0.76624  0.48197  0.12023  1.0000
  H   H6192     1.0  0.74853  0.48267  0.12492  1.0000
  C   C3604     1.0  0.71716  0.48748  0.12516  1.0000
  C   C3605     1.0  0.66956  0.24213  0.05906  1.0000
  N   N260      1.0  0.78864  0.35986  0.98508  1.0000
  H   H6193     1.0  0.77406  0.33868  0.98921  1.0000
  H   H6194     1.0  0.67793  0.24328  0.05890  1.0000
  C   C3606     1.0  0.78116  0.34171  0.99003  1.0000
  C   C3607     1.0  0.89613  0.37314  0.23198  1.0000
  H   H6195     1.0  0.49939  0.27711  0.10023  1.0000
  H   H6196     1.0  0.78893  0.33671  0.98583  1.0000
  H   H6197     1.0  0.72039  0.48941  0.98589  1.0000
  C   C3608     1.0  0.82566  0.41509  0.23272  1.0000
  C   C3609     1.0  0.97690  0.38764  0.23281  1.0000
  H   H6198     1.0  0.84709  0.48034  0.31312  1.0000
  C   C3610     1.0  0.97134  0.42210  0.24532  1.0000
  H   H6199     1.0  0.84265  0.44646  0.30884  1.0000
  S   S1027     1.0  0.93311  0.36148  0.24490  1.0000
  Fe  Fe512     1.0  0.86628  0.44564  0.27100  1.0000
  S   S1028     1.0  0.86960  0.44153  0.25434  1.0000
  S   S1029     1.0  0.86869  0.43214  0.28611  1.0000
  Fe  Fe513     1.0  0.86015  0.47067  0.26228  1.0000
  Fe  Fe514     1.0  0.85387  0.45429  0.25235  1.0000
  Fe  Fe515     1.0  0.87794  0.45611  0.24828  1.0000
  Fe  Fe516     1.0  0.86305  0.25820  0.46293  1.0000
  S   S1030     1.0  0.84987  0.45750  0.26955  1.0000
  S   S1031     1.0  0.87628  0.45903  0.26517  1.0000
  C   C3611     1.0  0.91860  0.42455  0.24866  1.0000
  S   S1032     1.0  0.85943  0.27474  0.45123  1.0000
  Fe  Fe517     1.0  0.85845  0.37513  0.29290  1.0000
  S   S1033     1.0  0.87303  0.37470  0.27845  1.0000
  S   S1034     1.0  0.84619  0.39174  0.29151  1.0000
  Fe  Fe518     1.0  0.86552  0.35029  0.30292  1.0000
  S   S1035     1.0  0.88069  0.34827  0.28907  1.0000
  S   S1036     1.0  0.86398  0.33305  0.31319  1.0000
  Fe  Fe519     1.0  0.88298  0.36429  0.29106  1.0000
  S   S1037     1.0  0.89962  0.36778  0.29033  1.0000
  Fe  Fe520     1.0  0.86930  0.35880  0.27787  1.0000
  S   S1038     1.0  0.87056  0.35452  0.26164  1.0000
  S   S1039     1.0  0.86866  0.36576  0.30582  1.0000
  S   S1040     1.0  0.85388  0.35981  0.29140  1.0000
  Fe  Fe521     1.0  0.86153  0.27348  0.36928  1.0000
  S   S1041     1.0  0.84603  0.28394  0.37773  1.0000
  S   S1042     1.0  0.86056  0.26308  0.35810  1.0000
  Fe  Fe522     1.0  0.87698  0.28222  0.37761  1.0000
  S   S1043     1.0  0.86278  0.29308  0.38706  1.0000
  S   S1044     1.0  0.89435  0.28282  0.37804  1.0000
  Fe  Fe523     1.0  0.85460  0.27845  0.39212  1.0000
  S   S1045     1.0  0.84576  0.27055  0.40896  1.0000
  Fe  Fe524     1.0  0.85573  0.29759  0.37172  1.0000
  S   S1046     1.0  0.84921  0.31592  0.36513  1.0000
  S   S1047     1.0  0.86951  0.26706  0.38402  1.0000
  S   S1048     1.0  0.87056  0.28758  0.36198  1.0000
  S   S1049     1.0  0.92690  0.41158  0.25328  1.0000
  H   H6200     1.0  0.84275  0.40411  0.26716  1.0000
  C   C3612     1.0  0.91039  0.25403  0.36806  1.0000
  C   C3613     1.0  0.85927  0.32880  0.32761  1.0000
  C   C3614     1.0  0.85985  0.31739  0.33206  1.0000
  C   C3615     1.0  0.85663  0.31342  0.34353  1.0000
  C   C3616     1.0  0.85272  0.32085  0.35065  1.0000
  C   C3617     1.0  0.85188  0.33233  0.34620  1.0000
  C   C3618     1.0  0.85522  0.33631  0.33468  1.0000
  H   H6201     1.0  0.86290  0.31154  0.32662  1.0000
  H   H6202     1.0  0.85711  0.30460  0.34684  1.0000
  H   H6203     1.0  0.84879  0.33812  0.35168  1.0000
  H   H6204     1.0  0.85470  0.34513  0.33131  1.0000
  C   C3619     1.0  0.85955  0.36220  0.25502  1.0000
  C   C3620     1.0  0.84953  0.36766  0.26093  1.0000
  C   C3621     1.0  0.84073  0.37355  0.25555  1.0000
  C   C3622     1.0  0.84216  0.37452  0.24413  1.0000
  N   N261      1.0  0.82355  0.41218  0.25393  1.0000
  C   C3623     1.0  0.86077  0.36276  0.24371  1.0000
  H   H6205     1.0  0.84849  0.36726  0.26966  1.0000
  C   C3624     1.0  0.96524  0.25664  0.41581  1.0000
  H   H6206     1.0  0.83694  0.42356  0.25885  1.0000
  C   C3625     1.0  0.85515  0.27371  0.43970  1.0000
  C   C3626     1.0  0.85258  0.26384  0.43938  1.0000
  C   C3627     1.0  0.84960  0.26298  0.42992  1.0000
  C   C3628     1.0  0.84953  0.27186  0.42064  1.0000
  C   C3629     1.0  0.85213  0.28172  0.42096  1.0000
  C   C3630     1.0  0.85471  0.28272  0.43057  1.0000
  H   H6207     1.0  0.85284  0.25687  0.44642  1.0000
  H   H6208     1.0  0.84754  0.25535  0.42973  1.0000
  H   H6209     1.0  0.85189  0.28866  0.41388  1.0000
  H   H6210     1.0  0.85658  0.29041  0.43085  1.0000
  N   N262      1.0  0.89031  0.31583  0.34824  1.0000
  C   C3631     1.0  0.90303  0.26434  0.36895  1.0000
  C   C3632     1.0  0.90370  0.27016  0.37647  1.0000
  C   C3633     1.0  0.91178  0.26576  0.38296  1.0000
  H   H6211     1.0  0.83802  0.26264  0.39486  1.0000
  H   H6212     1.0  0.89016  0.32906  0.33348  1.0000
  H   H6213     1.0  0.91252  0.27040  0.38852  1.0000
  C   C3634     1.0  0.85635  0.24470  0.37477  1.0000
  C   C3635     1.0  0.86212  0.42109  0.28784  1.0000
  C   C3636     1.0  0.85314  0.42257  0.28284  1.0000
  C   C3637     1.0  0.84807  0.41361  0.28428  1.0000
  C   C3638     1.0  0.85231  0.40301  0.29023  1.0000
  C   C3639     1.0  0.86141  0.40151  0.29506  1.0000
  C   C3640     1.0  0.86609  0.41060  0.29412  1.0000
  H   H6214     1.0  0.84998  0.43066  0.27803  1.0000
  H   H6215     1.0  0.84093  0.41486  0.28067  1.0000
  H   H6216     1.0  0.86470  0.39338  0.29972  1.0000
  H   H6217     1.0  0.87298  0.40943  0.29806  1.0000
  C   C3641     1.0  0.92457  0.36240  0.25808  1.0000
  C   C3642     1.0  0.91659  0.35578  0.26281  1.0000
  C   C3643     1.0  0.90899  0.35727  0.27282  1.0000
  C   C3644     1.0  0.90967  0.36506  0.27835  1.0000
  C   C3645     1.0  0.91797  0.37134  0.27384  1.0000
  C   C3646     1.0  0.92526  0.37018  0.26361  1.0000
  H   H6218     1.0  0.91610  0.34971  0.25862  1.0000
  H   H6219     1.0  0.90265  0.35236  0.27627  1.0000
  H   H6220     1.0  0.91846  0.37744  0.27804  1.0000
  H   H6221     1.0  0.93140  0.37532  0.26001  1.0000
  C   C3647     1.0  0.90896  0.42885  0.25589  1.0000
  C   C3648     1.0  0.90148  0.43849  0.25192  1.0000
  C   C3649     1.0  0.89159  0.40342  0.27443  1.0000
  H   H6222     1.0  0.90702  0.42446  0.26444  1.0000
  H   H6223     1.0  0.89379  0.44143  0.25743  1.0000
  H   H6224     1.0  0.83294  0.37760  0.26015  1.0000
  H   H6225     1.0  0.88571  0.30183  0.36098  1.0000
  S   S1050     1.0  0.93038  0.24632  0.42283  1.0000
  H   H6226     1.0  0.87308  0.47754  0.27805  1.0000
  H   H6227     1.0  0.89301  0.47539  0.24689  1.0000
  H   H6228     1.0  0.89155  0.39352  0.24444  1.0000
  H   H6229     1.0  0.85760  0.31644  0.27427  1.0000
  C   C3650     1.0  0.85221  0.36914  0.23822  1.0000
  H   H6230     1.0  0.87489  0.34307  0.34051  1.0000
  H   H6231     1.0  0.84309  0.31842  0.27905  1.0000
  H   H6232     1.0  0.83141  0.39687  0.27198  1.0000
  H   H6233     1.0  0.90576  0.38920  0.25829  1.0000
  C   C3651     1.0  0.98862  0.24753  0.42101  1.0000
  N   N263      1.0  0.85775  0.45977  0.30571  1.0000
  H   H6234     1.0  0.86012  0.33618  0.29107  1.0000
  H   H6235     1.0  0.85740  0.30688  0.29647  1.0000
  C   C3652     1.0  0.85089  0.31788  0.28173  1.0000
  H   H6236     1.0  0.84371  0.30573  0.29579  1.0000
  H   H6237     1.0  0.88810  0.40182  0.28350  1.0000
  C   C3653     1.0  0.98315  0.38754  0.24035  1.0000
  H   H6238     1.0  0.84406  0.33056  0.30864  1.0000
  H   H6239     1.0  0.83027  0.32899  0.30980  1.0000
  H   H6240     1.0  0.83301  0.34421  0.27404  1.0000
  H   H6241     1.0  0.86030  0.32219  0.29767  1.0000
  H   H6242     1.0  0.85856  0.33529  0.26782  1.0000
  H   H6243     1.0  0.83252  0.33040  0.29052  1.0000
  C   C3654     1.0  0.89886  0.38528  0.25874  1.0000
  H   H6244     1.0  0.86991  0.47033  0.29963  1.0000
  H   H6245     1.0  0.85938  0.48597  0.30844  1.0000
  S   S1051     1.0  0.92118  0.39234  0.23762  1.0000
  C   C3655     1.0  0.87212  0.32432  0.28225  1.0000
  S   S1052     1.0  0.89403  0.45553  0.23560  1.0000
  H   H6246     1.0  0.97216  0.24575  0.39487  1.0000
  Fe  Fe525     1.0  0.93620  0.37845  0.23602  1.0000
  C   C3656     1.0  0.84366  0.44738  0.31686  1.0000
  C   C3657     1.0  0.85207  0.30713  0.29084  1.0000
  C   C3658     1.0  0.84092  0.34069  0.26867  1.0000
  C   C3659     1.0  0.89476  0.41143  0.25078  1.0000
  H   H6247     1.0  0.91260  0.31201  0.36111  1.0000
  H   H6248     1.0  0.99781  0.24566  0.41767  1.0000
  H   H6249     1.0  0.81561  0.25806  0.42723  1.0000
  C   C3660     1.0  0.83831  0.39893  0.26495  1.0000
  H   H6250     1.0  0.84181  0.31776  0.30705  1.0000
  H   H6251     1.0  0.96670  0.26102  0.42155  1.0000
  H   H6252     1.0  0.87326  0.31607  0.28035  1.0000
  H   H6253     1.0  0.90320  0.33700  0.23903  1.0000
  H   H6254     1.0  0.87756  0.41070  0.24192  1.0000
  H   H6255     1.0  0.88836  0.24834  0.37703  1.0000
  C   C3661     1.0  0.85310  0.24552  0.35682  1.0000
  H   H6256     1.0  0.86381  0.44225  0.30509  1.0000
  H   H6257     1.0  0.98635  0.24420  0.40641  1.0000
  H   H6258     1.0  0.82639  0.43013  0.26894  1.0000
  H   H6259     1.0  0.83571  0.46401  0.29892  1.0000
  H   H6260     1.0  0.87635  0.45362  0.28901  1.0000
  H   H6261     1.0  0.83780  0.34129  0.29215  1.0000
  H   H6262     1.0  0.85557  0.43096  0.24045  1.0000
  H   H6263     1.0  0.95594  0.25806  0.41750  1.0000
  C   C3662     1.0  0.92206  0.24359  0.43620  1.0000
  H   H6264     1.0  0.82049  0.41365  0.27113  1.0000
  H   H6265     1.0  0.85109  0.45679  0.32345  1.0000
  H   H6266     1.0  0.89213  0.41946  0.25360  1.0000
  C   C3663     1.0  0.90709  0.30879  0.35788  1.0000
  S   S1053     1.0  0.86247  0.46870  0.24482  1.0000
  N   N264      1.0  0.88575  0.40478  0.25594  1.0000
  S   S1054     1.0  0.84007  0.45142  0.24613  1.0000
  H   H6267     1.0  0.89963  0.29930  0.34595  1.0000
  C   C3664     1.0  0.82788  0.42727  0.26111  1.0000
  H   H6268     1.0  0.91269  0.30315  0.35246  1.0000
  H   H6269     1.0  0.80587  0.27016  0.42231  1.0000
  C   C3665     1.0  0.88429  0.32607  0.34130  1.0000
  C   C3666     1.0  0.88220  0.31086  0.35815  1.0000
  C   C3667     1.0  0.88789  0.30440  0.33541  1.0000
  C   C3668     1.0  0.87849  0.33610  0.34677  1.0000
  C   C3669     1.0  0.87900  0.31587  0.36860  1.0000
  H   H6270     1.0  0.87751  0.32411  0.33869  1.0000
  H   H6271     1.0  0.87429  0.31124  0.35577  1.0000
  H   H6272     1.0  0.89238  0.29696  0.33186  1.0000
  H   H6273     1.0  0.88023  0.30232  0.34133  1.0000
  H   H6274     1.0  0.88557  0.31122  0.32839  1.0000
  H   H6275     1.0  0.87131  0.33421  0.35362  1.0000
  H   H6276     1.0  0.88433  0.33923  0.34959  1.0000
  H   H6277     1.0  0.86988  0.31648  0.37215  1.0000
  C   C3670     1.0  0.87063  0.48630  0.27818  1.0000
  C   C3671     1.0  0.91731  0.24512  0.45546  1.0000
  C   C3672     1.0  0.89965  0.31867  0.35140  1.0000
  H   H6278     1.0  0.90264  0.31022  0.33428  1.0000
  H   H6279     1.0  0.83975  0.47679  0.29792  1.0000
  H   H6280     1.0  0.86899  0.44642  0.31453  1.0000
  C   C3673     1.0  0.85407  0.46249  0.29482  1.0000
  N   N265      1.0  0.88977  0.26569  0.42214  1.0000
  C   C3674     1.0  0.88201  0.26007  0.41954  1.0000
  C   C3675     1.0  0.88502  0.27807  0.41971  1.0000
  C   C3676     1.0  0.88961  0.26173  0.43438  1.0000
  C   C3677     1.0  0.90140  0.26250  0.41523  1.0000
  C   C3678     1.0  0.88436  0.24722  0.42300  1.0000
  C   C3679     1.0  0.88275  0.28310  0.40796  1.0000
  C   C3680     1.0  0.89622  0.26699  0.43926  1.0000
  C   C3681     1.0  0.90920  0.27076  0.41260  1.0000
  H   H6281     1.0  0.87317  0.26318  0.42355  1.0000
  H   H6282     1.0  0.88224  0.26212  0.41047  1.0000
  H   H6283     1.0  0.89049  0.28288  0.42095  1.0000
  H   H6284     1.0  0.87701  0.28015  0.42572  1.0000
  H   H6285     1.0  0.88080  0.26309  0.43924  1.0000
  H   H6286     1.0  0.89305  0.25263  0.43645  1.0000
  H   H6287     1.0  0.90585  0.25419  0.41918  1.0000
  H   H6288     1.0  0.90081  0.26167  0.40699  1.0000
  H   H6289     1.0  0.96296  0.26301  0.39865  1.0000
  H   H6290     1.0  0.90548  0.41789  0.23526  1.0000
  H   H6291     1.0  0.90940  0.34136  0.24785  1.0000
  H   H6292     1.0  0.87513  0.28100  0.40710  1.0000
  H   H6293     1.0  0.88119  0.29233  0.40635  1.0000
  H   H6294     1.0  0.88995  0.28025  0.40151  1.0000
  H   H6295     1.0  0.89469  0.26374  0.44839  1.0000
  H   H6296     1.0  0.89349  0.27617  0.43792  1.0000
  H   H6297     1.0  0.90536  0.26441  0.43615  1.0000
  H   H6298     1.0  0.91802  0.26617  0.41059  1.0000
  H   H6299     1.0  0.90854  0.27480  0.41941  1.0000
  H   H6300     1.0  0.90799  0.27717  0.40495  1.0000
  C   C3682     1.0  0.89571  0.30736  0.34103  1.0000
  C   C3683     1.0  0.86045  0.32795  0.28946  1.0000
  H   H6301     1.0  0.97820  0.41609  0.24114  1.0000
  C   C3684     1.0  0.82364  0.42027  0.24285  1.0000
  H   H6302     1.0  0.84242  0.34729  0.26106  1.0000
  H   H6303     1.0  0.85887  0.24838  0.38013  1.0000
  H   H6304     1.0  0.84113  0.46500  0.31561  1.0000
  H   H6305     1.0  0.90285  0.37849  0.25415  1.0000
  H   H6306     1.0  0.97743  0.26026  0.39974  1.0000
  H   H6307     1.0  0.96450  0.40925  0.26572  1.0000
  H   H6308     1.0  0.83989  0.33357  0.26594  1.0000
  C   C3685     1.0  0.85102  0.33761  0.27428  1.0000
  C   C3686     1.0  0.98297  0.24188  0.41545  1.0000
  H   H6309     1.0  0.85635  0.29991  0.28687  1.0000
  H   H6310     1.0  0.97097  0.40145  0.25527  1.0000
  H   H6311     1.0  0.88677  0.35378  0.24162  1.0000
  C   C3687     1.0  0.84833  0.45776  0.31563  1.0000
  H   H6312     1.0  0.87392  0.33062  0.27450  1.0000
  H   H6313     1.0  0.89891  0.39654  0.27308  1.0000
  H   H6314     1.0  0.96499  0.40723  0.23763  1.0000
  C   C3688     1.0  0.88898  0.48325  0.24986  1.0000
  H   H6315     1.0  0.81162  0.42386  0.26320  1.0000
  H   H6316     1.0  0.82825  0.24191  0.42121  1.0000
  C   C3689     1.0  0.96684  0.24005  0.43070  1.0000
  H   H6317     1.0  0.85975  0.46717  0.28812  1.0000
  C   C3690     1.0  0.81867  0.24571  0.40497  1.0000
  H   H6318     1.0  0.91007  0.24960  0.36212  1.0000
  S   S1055     1.0  0.85008  0.24911  0.47470  1.0000
  H   H6319     1.0  0.92467  0.25167  0.38781  1.0000
  H   H6320     1.0  0.95113  0.42530  0.26325  1.0000
  C   C3691     1.0  0.95385  0.40037  0.26295  1.0000
  H   H6321     1.0  0.88293  0.44128  0.29736  1.0000
  C   C3692     1.0  0.91791  0.24928  0.37513  1.0000
  H   H6322     1.0  0.95256  0.44271  0.25317  1.0000
  H   H6323     1.0  0.84452  0.39100  0.26418  1.0000
  H   H6324     1.0  0.96890  0.24507  0.43545  1.0000
  N   N266      1.0  0.97031  0.24434  0.41834  1.0000
  H   H6325     1.0  0.95041  0.41092  0.24305  1.0000
  C   C3693     1.0  0.83318  0.25680  0.39435  1.0000
  H   H6326     1.0  0.89008  0.48166  0.25848  1.0000
  C   C3694     1.0  0.99068  0.39463  0.23756  1.0000
  H   H6327     1.0  0.87968  0.24966  0.36773  1.0000
  H   H6328     1.0  0.94552  0.40554  0.26583  1.0000
  H   H6329     1.0  0.95332  0.39602  0.25677  1.0000
  H   H6330     1.0  0.95598  0.39377  0.27020  1.0000
  C   C3695     1.0  0.85636  0.25028  0.36373  1.0000
  H   H6331     1.0  0.95367  0.43984  0.23981  1.0000
  C   C3696     1.0  0.83908  0.32692  0.30520  1.0000
  H   H6332     1.0  0.85179  0.34545  0.27598  1.0000
  H   H6333     1.0  0.98738  0.24420  0.43010  1.0000
  H   H6334     1.0  0.84922  0.43967  0.32047  1.0000
  S   S1056     1.0  0.85514  0.48809  0.26572  1.0000
  C   C3697     1.0  0.90387  0.44410  0.24082  1.0000
  H   H6335     1.0  0.82250  0.25692  0.38322  1.0000
  H   H6336     1.0  0.82164  0.27057  0.38567  1.0000
  H   H6337     1.0  0.80446  0.25689  0.42153  1.0000
  S   S1057     1.0  0.94718  0.38706  0.24026  1.0000
  C   C3698     1.0  0.81463  0.40574  0.25560  1.0000
  C   C3699     1.0  0.83498  0.40450  0.25365  1.0000
  H   H6338     1.0  0.96920  0.42954  0.25969  1.0000
  C   C3700     1.0  0.90148  0.34186  0.24546  1.0000
  C   C3701     1.0  0.81173  0.39804  0.26703  1.0000
  Fe  Fe526     1.0  0.93263  0.40159  0.24005  1.0000
  N   N267      1.0  0.96075  0.41761  0.24953  1.0000
  C   C3702     1.0  0.96865  0.26316  0.40383  1.0000
  H   H6339     1.0  0.87857  0.32356  0.28696  1.0000
  S   S1058     1.0  0.87244  0.25711  0.47580  1.0000
  H   H6340     1.0  0.80664  0.41158  0.25403  1.0000
  H   H6341     1.0  0.81705  0.40026  0.24953  1.0000
  H   H6342     1.0  0.83589  0.39779  0.24925  1.0000
  H   H6343     1.0  0.85037  0.24575  0.40488  1.0000
  C   C3703     1.0  0.84458  0.24037  0.41034  1.0000
  H   H6344     1.0  0.98581  0.25673  0.41918  1.0000
  H   H6345     1.0  0.93010  0.25227  0.44299  1.0000
  H   H6346     1.0  0.83435  0.25354  0.41800  1.0000
  H   H6347     1.0  0.85481  0.45476  0.29197  1.0000
  H   H6348     1.0  0.90211  0.30390  0.36510  1.0000
  H   H6349     1.0  0.81865  0.39073  0.26840  1.0000
  H   H6350     1.0  0.80449  0.39463  0.26721  1.0000
  H   H6351     1.0  0.80913  0.40243  0.27398  1.0000
  C   C3704     1.0  0.89532  0.35404  0.24201  1.0000
  C   C3705     1.0  0.82719  0.26240  0.38462  1.0000
  H   H6352     1.0  0.89608  0.33770  0.25294  1.0000
  H   H6353     1.0  0.88299  0.45447  0.29955  1.0000
  C   C3706     1.0  0.82041  0.41897  0.26273  1.0000
  H   H6354     1.0  0.96804  0.27197  0.40398  1.0000
  C   C3707     1.0  0.86680  0.44923  0.30621  1.0000
  H   H6355     1.0  0.86839  0.35844  0.23910  1.0000
  C   C3708     1.0  0.95823  0.41418  0.24025  1.0000
  H   H6356     1.0  0.89427  0.35786  0.24920  1.0000
  H   H6357     1.0  0.83533  0.44801  0.32264  1.0000
  H   H6358     1.0  0.89936  0.37519  0.23827  1.0000
  C   C3709     1.0  0.87784  0.44986  0.29748  1.0000
  H   H6359     1.0  0.98193  0.38212  0.24850  1.0000
  H   H6360     1.0  0.83364  0.26409  0.37689  1.0000
  C   C3710     1.0  0.83283  0.24740  0.41416  1.0000
  H   H6361     1.0  0.84157  0.40922  0.24873  1.0000
  H   H6362     1.0  0.86612  0.46638  0.31432  1.0000
  H   H6363     1.0  0.81206  0.25032  0.40018  1.0000
  H   H6364     1.0  0.88213  0.48534  0.28833  1.0000
  H   H6365     1.0  0.90271  0.40715  0.25356  1.0000
  C   C3711     1.0  0.97584  0.42464  0.25420  1.0000
  H   H6366     1.0  0.88234  0.38889  0.25661  1.0000
  H   H6367     1.0  0.81378  0.24272  0.41339  1.0000
  H   H6368     1.0  0.82568  0.43482  0.25469  1.0000
  H   H6369     1.0  0.88325  0.31014  0.37518  1.0000
  H   H6370     1.0  0.89692  0.26781  0.36378  1.0000
  C   C3712     1.0  0.88939  0.39329  0.25347  1.0000
  H   H6371     1.0  0.90528  0.32249  0.34383  1.0000
  H   H6372     1.0  0.89654  0.32511  0.35644  1.0000
  H   H6373     1.0  0.88051  0.32429  0.36729  1.0000
  C   C3713     1.0  0.83971  0.33211  0.29274  1.0000
  C   C3714     1.0  0.89774  0.41451  0.23799  1.0000
  C   C3715     1.0  0.92119  0.43036  0.23767  1.0000
  H   H6374     1.0  0.87907  0.24409  0.41942  1.0000
  C   C3716     1.0  0.95082  0.42569  0.25455  1.0000
  C   C3717     1.0  0.84197  0.46921  0.29454  1.0000
  C   C3718     1.0  0.86270  0.46889  0.30665  1.0000
  C   C3719     1.0  0.87570  0.41079  0.25090  1.0000
  C   C3720     1.0  0.88233  0.40424  0.26832  1.0000
  C   C3721     1.0  0.86493  0.40621  0.25609  1.0000
  H   H6375     1.0  0.87350  0.41970  0.25142  1.0000
  H   H6376     1.0  0.87601  0.41187  0.27009  1.0000
  H   H6377     1.0  0.87815  0.39714  0.27268  1.0000
  H   H6378     1.0  0.85797  0.41215  0.25254  1.0000
  H   H6379     1.0  0.86563  0.39810  0.25406  1.0000
  H   H6380     1.0  0.86239  0.40544  0.26520  1.0000
  H   H6381     1.0  0.89444  0.41138  0.27223  1.0000
  N   N268      1.0  0.82584  0.25315  0.40549  1.0000
  C   C3722     1.0  0.81818  0.26355  0.40890  1.0000
  C   C3723     1.0  0.85491  0.48047  0.30666  1.0000
  C   C3724     1.0  0.96309  0.40720  0.25837  1.0000
  H   H6382     1.0  0.97996  0.41684  0.25925  1.0000
  C   C3725     1.0  0.81068  0.26187  0.42069  1.0000
  H   H6383     1.0  0.94051  0.44196  0.24917  1.0000
  H   H6384     1.0  0.89552  0.38160  0.26752  1.0000
  N   N269      1.0  0.85055  0.32861  0.28475  1.0000
  H   H6385     1.0  0.82315  0.26973  0.40840  1.0000
  H   H6386     1.0  0.81239  0.26776  0.40316  1.0000
  H   H6387     1.0  0.87948  0.37286  0.24321  1.0000
  H   H6388     1.0  0.91482  0.36011  0.23805  1.0000
  H   H6389     1.0  0.94286  0.42325  0.25513  1.0000
  H   H6390     1.0  0.83032  0.42506  0.24090  1.0000
  H   H6391     1.0  0.81562  0.42663  0.24301  1.0000
  C   C3726     1.0  0.94958  0.43815  0.24868  1.0000
  C   C3727     1.0  0.91869  0.25520  0.38251  1.0000
  C   C3728     1.0  0.92375  0.24749  0.44469  1.0000
  C   C3729     1.0  0.85033  0.43450  0.23443  1.0000
  H   H6392     1.0  0.85315  0.24976  0.34826  1.0000
  H   H6393     1.0  0.98242  0.42956  0.25003  1.0000
  H   H6394     1.0  0.84573  0.27473  0.47447  1.0000
  H   H6395     1.0  0.83961  0.24974  0.39167  1.0000
  H   H6396     1.0  0.89324  0.24336  0.41996  1.0000
  H   H6397     1.0  0.87994  0.48482  0.24988  1.0000
  H   H6398     1.0  0.85305  0.48451  0.29835  1.0000
  H   H6399     1.0  0.84104  0.47207  0.28578  1.0000
  S   S1059     1.0  0.83164  0.38287  0.23718  1.0000
  C   C3730     1.0  0.84240  0.44452  0.23525  1.0000
  H   H6400     1.0  0.97043  0.42982  0.23884  1.0000
  H   H6401     1.0  0.88193  0.24433  0.43212  1.0000
  S   S1060     1.0  0.87438  0.24320  0.45695  1.0000
  H   H6402     1.0  0.91880  0.24796  0.46206  1.0000
  H   H6403     1.0  0.84118  0.28928  0.47424  1.0000
  Fe  Fe527     1.0  0.88242  0.24111  0.47111  1.0000
  S   S1061     1.0  0.99692  0.39541  0.24797  1.0000
  H   H6404     1.0  0.85562  0.28220  0.47465  1.0000
  H   H6405     1.0  0.89104  0.42115  0.23468  1.0000
  C   C3731     1.0  0.91390  0.44022  0.23379  1.0000
  C   C3732     1.0  0.84671  0.28153  0.47777  1.0000
  H   H6406     1.0  0.88104  0.38607  0.23449  1.0000
  H   H6407     1.0  0.97110  0.38217  0.23508  1.0000
  C   C3733     1.0  0.88323  0.37699  0.23474  1.0000
  H   H6408     1.0  0.89943  0.40727  0.23415  1.0000
  C   C3734     1.0  0.95430  0.23986  0.43528  1.0000
  H   H6409     1.0  0.89403  0.24311  0.36431  1.0000
  C   C3735     1.0  0.88677  0.24408  0.37134  1.0000
  H   H6410     1.0  0.95682  0.24168  0.41256  1.0000
  H   H6411     1.0  0.94888  0.24825  0.43355  1.0000
  H   H6412     1.0  0.89048  0.24116  0.40059  1.0000
  H   H6413     1.0  0.90509  0.48922  0.25923  1.0000
  H   H6414     1.0  0.81847  0.41168  0.23282  1.0000
  H   H6415     1.0  0.93065  0.28157  0.58520  1.0000
  Fe  Fe528     1.0  0.90023  0.26426  0.55346  1.0000
  S   S1062     1.0  0.88481  0.27800  0.55332  1.0000
  S   S1063     1.0  0.91754  0.26708  0.55081  1.0000
  H   H6416     1.0  0.92534  0.23976  0.58449  1.0000
  S   S1064     1.0  0.87075  0.25832  0.55855  1.0000
  Fe  Fe529     1.0  0.87986  0.26855  0.54342  1.0000
  S   S1065     1.0  0.87383  0.27578  0.52725  1.0000
  Fe  Fe530     1.0  0.87727  0.26640  0.56844  1.0000
  S   S1066     1.0  0.86743  0.26976  0.58524  1.0000
  S   S1067     1.0  0.89299  0.25325  0.56903  1.0000
  H   H6417     1.0  0.90574  0.25616  0.60895  1.0000
  S   S1068     1.0  0.93746  0.25871  0.61488  1.0000
  H   H6418     1.0  0.92652  0.27386  0.59863  1.0000
  H   H6419     1.0  0.83281  0.25321  0.66625  1.0000
  H   H6420     1.0  0.86691  0.40272  0.71792  1.0000
  H   H6421     1.0  0.82233  0.26400  0.60596  1.0000
  C   C3736     1.0  0.93870  0.25689  0.65416  1.0000
  H   H6422     1.0  0.95950  0.27013  0.62791  1.0000
  H   H6423     1.0  0.82488  0.31349  0.49680  1.0000
  C   C3737     1.0  0.85153  0.39772  0.71982  1.0000
  H   H6424     1.0  0.93896  0.26520  0.65520  1.0000
  S   S1069     1.0  0.89500  0.41841  0.70841  1.0000
  H   H6425     1.0  0.82045  0.24738  0.61625  1.0000
  C   C3738     1.0  0.86718  0.31035  0.72437  1.0000
  H   H6426     1.0  0.91760  0.41621  0.71147  1.0000
  Fe  Fe531     1.0  0.87031  0.29621  0.65615  1.0000
  S   S1070     1.0  0.87022  0.27834  0.66505  1.0000
  S   S1071     1.0  0.86609  0.30990  0.66626  1.0000
  Fe  Fe532     1.0  0.87710  0.28977  0.63319  1.0000
  S   S1072     1.0  0.87846  0.27159  0.64054  1.0000
  S   S1073     1.0  0.88054  0.29545  0.61437  1.0000
  Fe  Fe533     1.0  0.86224  0.27674  0.65197  1.0000
  S   S1074     1.0  0.84858  0.26676  0.65633  1.0000
  Fe  Fe534     1.0  0.88627  0.27459  0.65286  1.0000
  S   S1075     1.0  0.90048  0.26155  0.65851  1.0000
  S   S1076     1.0  0.86037  0.29512  0.64423  1.0000
  S   S1077     1.0  0.88687  0.29232  0.64435  1.0000
  Fe  Fe535     1.0  0.91141  0.34709  0.70847  1.0000
  S   S1078     1.0  0.90398  0.35343  0.69328  1.0000
  S   S1079     1.0  0.92853  0.34995  0.70756  1.0000
  H   H6427     1.0  0.90971  0.25549  0.51517  1.0000
  S   S1080     1.0  0.88065  0.34657  0.70887  1.0000
  H   H6428     1.0  0.87576  0.24228  0.67654  1.0000
  Fe  Fe536     1.0  0.89648  0.33813  0.69871  1.0000
  S   S1081     1.0  0.89788  0.32687  0.68682  1.0000
  Fe  Fe537     1.0  0.88881  0.36129  0.70462  1.0000
  S   S1082     1.0  0.87951  0.37900  0.69931  1.0000
  S   S1083     1.0  0.90534  0.33110  0.71303  1.0000
  S   S1084     1.0  0.89672  0.35595  0.71932  1.0000
  C   C3739     1.0  0.87506  0.31444  0.67200  1.0000
  C   C3740     1.0  0.87031  0.32208  0.67906  1.0000
  C   C3741     1.0  0.87708  0.32597  0.68369  1.0000
  C   C3742     1.0  0.88877  0.32235  0.68126  1.0000
  C   C3743     1.0  0.89351  0.31477  0.67417  1.0000
  C   C3744     1.0  0.88673  0.31081  0.66963  1.0000
  H   H6429     1.0  0.86130  0.32497  0.68096  1.0000
  H   H6430     1.0  0.87327  0.33178  0.68910  1.0000
  H   H6431     1.0  0.90251  0.31188  0.67220  1.0000
  H   H6432     1.0  0.89056  0.30498  0.66421  1.0000
  C   C3745     1.0  0.84702  0.25482  0.65268  1.0000
  C   C3746     1.0  0.83818  0.24983  0.65925  1.0000
  C   C3747     1.0  0.83323  0.29707  0.49344  1.0000
  H   H6433     1.0  0.84423  0.24324  0.62067  1.0000
  H   H6434     1.0  0.86042  0.25437  0.63819  1.0000
  C   C3748     1.0  0.86072  0.25489  0.51147  1.0000
  C   C3749     1.0  0.92360  0.41062  0.70620  1.0000
  C   C3750     1.0  0.88903  0.40775  0.70750  1.0000
  C   C3751     1.0  0.89090  0.39705  0.71431  1.0000
  C   C3752     1.0  0.88810  0.38810  0.71190  1.0000
  C   C3753     1.0  0.88322  0.38986  0.70279  1.0000
  C   C3754     1.0  0.88095  0.40065  0.69631  1.0000
  C   C3755     1.0  0.88403  0.40947  0.69853  1.0000
  C   C3756     1.0  0.85570  0.29910  0.49875  1.0000
  H   H6435     1.0  0.88972  0.37987  0.71708  1.0000
  H   H6436     1.0  0.87716  0.40213  0.68929  1.0000
  H   H6437     1.0  0.88280  0.41761  0.69306  1.0000
  H   H6438     1.0  0.88284  0.25178  0.65715  1.0000
  C   C3757     1.0  0.85383  0.25035  0.64356  1.0000
  C   C3758     1.0  0.94110  0.35415  0.71976  1.0000
  C   C3759     1.0  0.93265  0.34884  0.71999  1.0000
  H   H6439     1.0  0.92861  0.41597  0.69947  1.0000
  C   C3760     1.0  0.87062  0.24446  0.67020  1.0000
  H   H6440     1.0  0.97372  0.24237  0.65468  1.0000
  H   H6441     1.0  0.94506  0.35877  0.71195  1.0000
  H   H6442     1.0  0.92604  0.24254  0.63067  1.0000
  C   C3761     1.0  0.93496  0.38641  0.72864  1.0000
  H   H6443     1.0  0.99776  0.25515  0.59699  1.0000
  H   H6444     1.0  0.92772  0.46366  0.72792  1.0000
  H   H6445     1.0  0.86510  0.25274  0.67098  1.0000
  C   C3762     1.0  0.88832  0.24017  0.52206  1.0000
  H   H6446     1.0  0.99549  0.39103  0.73081  1.0000
  C   C3763     1.0  0.82893  0.24237  0.61700  1.0000
  H   H6447     1.0  0.86446  0.30028  0.49553  1.0000
  H   H6448     1.0  0.88816  0.37742  0.64925  1.0000
  C   C3764     1.0  0.86227  0.25991  0.52803  1.0000
  C   C3765     1.0  0.92687  0.25980  0.62676  1.0000
  C   C3766     1.0  0.92319  0.25027  0.63336  1.0000
  C   C3767     1.0  0.91561  0.25073  0.64346  1.0000
  C   C3768     1.0  0.91091  0.26094  0.64653  1.0000
  C   C3769     1.0  0.91409  0.27066  0.63968  1.0000
  C   C3770     1.0  0.92228  0.27005  0.62987  1.0000
  H   H6449     1.0  0.86522  0.39048  0.72803  1.0000
  H   H6450     1.0  0.85508  0.29543  0.48371  1.0000
  H   H6451     1.0  0.91039  0.27859  0.64205  1.0000
  H   H6452     1.0  0.92499  0.27749  0.62470  1.0000
  S   S1085     1.0  0.89611  0.25593  0.54222  1.0000
  C   C3771     1.0  0.87256  0.27633  0.59275  1.0000
  C   C3772     1.0  0.87306  0.27140  0.60386  1.0000
  C   C3773     1.0  0.87538  0.27719  0.61058  1.0000
  C   C3774     1.0  0.87734  0.28797  0.60624  1.0000
  C   C3775     1.0  0.87710  0.29280  0.59504  1.0000
  C   C3776     1.0  0.87473  0.28702  0.58832  1.0000
  H   H6453     1.0  0.87155  0.26309  0.60733  1.0000
  H   H6454     1.0  0.87563  0.27330  0.61911  1.0000
  H   H6455     1.0  0.87857  0.30114  0.59160  1.0000
  H   H6456     1.0  0.87416  0.29099  0.57982  1.0000
  C   C3777     1.0  0.86926  0.26713  0.52147  1.0000
  C   C3778     1.0  0.86809  0.26175  0.50499  1.0000
  C   C3779     1.0  0.87213  0.26802  0.50994  1.0000
  H   H6457     1.0  0.86792  0.34590  0.66332  1.0000
  H   H6458     1.0  0.87751  0.27361  0.50482  1.0000
  C   C3780     1.0  0.88515  0.30549  0.71101  1.0000
  H   H6459     1.0  0.83332  0.30583  0.50651  1.0000
  C   C3781     1.0  0.88499  0.31118  0.72779  1.0000
  N   N270      1.0  0.87691  0.36293  0.66817  1.0000
  S   S1086     1.0  0.85424  0.24811  0.50537  1.0000
  H   H6460     1.0  0.91482  0.26418  0.60927  1.0000
  H   H6461     1.0  0.91958  0.29132  0.60202  1.0000
  H   H6462     1.0  0.88695  0.24178  0.49664  1.0000
  H   H6463     1.0  0.85567  0.39309  0.71306  1.0000
  C   C3782     1.0  0.89693  0.30539  0.72955  1.0000
  H   H6464     1.0  0.87125  0.30653  0.70316  1.0000
  H   H6465     1.0  0.92847  0.25697  0.59070  1.0000
  H   H6466     1.0  0.86461  0.42504  0.71979  1.0000
  H   H6467     1.0  0.84937  0.27225  0.62430  1.0000
  H   H6468     1.0  0.94020  0.44554  0.73146  1.0000
  S   S1087     1.0  0.90250  0.43739  0.72339  1.0000
  H   H6469     1.0  0.90526  0.29810  0.60573  1.0000
  C   C3783     1.0  0.85035  0.41728  0.72966  1.0000
  C   C3784     1.0  0.94647  0.38143  0.72200  1.0000
  C   C3785     1.0  0.89213  0.47725  0.72731  1.0000
  C   C3786     1.0  0.91706  0.37623  0.72457  1.0000
  H   H6470     1.0  0.92964  0.24378  0.66476  1.0000
  H   H6471     1.0  0.85670  0.36137  0.69319  1.0000
  C   C3787     1.0  0.87955  0.30116  0.70418  1.0000
  H   H6472     1.0  0.89048  0.24281  0.62625  1.0000
  H   H6473     1.0  0.87038  0.26257  0.49612  1.0000
  H   H6474     1.0  0.82075  0.28411  0.60047  1.0000
  H   H6475     1.0  0.95113  0.38800  0.71705  1.0000
  C   C3788     1.0  0.84086  0.28251  0.50877  1.0000
  C   C3789     1.0  0.84402  0.25557  0.59882  1.0000
  H   H6476     1.0  0.93428  0.25866  0.64728  1.0000
  H   H6477     1.0  0.85433  0.25732  0.61470  1.0000
  H   H6478     1.0  0.91313  0.24322  0.64868  1.0000
  H   H6479     1.0  0.92149  0.33825  0.73027  1.0000
  H   H6480     1.0  0.94573  0.37639  0.71655  1.0000
  H   H6481     1.0  0.83974  0.28868  0.51381  1.0000
  H   H6482     1.0  0.88946  0.28822  0.72741  1.0000
  H   H6483     1.0  0.83200  0.25180  0.62688  1.0000
  C   C3790     1.0  0.94451  0.35343  0.72956  1.0000
  H   H6484     1.0  0.89481  0.39561  0.72121  1.0000
  C   C3791     1.0  0.90725  0.26966  0.59436  1.0000
  C   C3792     1.0  0.82920  0.27859  0.60041  1.0000
  H   H6485     1.0  0.88518  0.38852  0.65623  1.0000
  H   H6486     1.0  0.91087  0.29654  0.58607  1.0000
  H   H6487     1.0  0.87617  0.28860  0.72567  1.0000
  C   C3793     1.0  0.91429  0.28084  0.57630  1.0000
  Fe  Fe538     1.0  0.88779  0.45157  0.72635  1.0000
  H   H6488     1.0  0.88592  0.31414  0.70662  1.0000
  H   H6489     1.0  0.86969  0.36511  0.65403  1.0000
  H   H6490     1.0  0.88437  0.36124  0.65105  1.0000
  H   H6491     1.0  0.91622  0.39082  0.71185  1.0000
  C   C3794     1.0  0.85379  0.29116  0.49262  1.0000
  H   H6492     1.0  0.83598  0.30227  0.48511  1.0000
  H   H6493     1.0  0.85040  0.27005  0.60544  1.0000
  H   H6494     1.0  0.87877  0.29240  0.70764  1.0000
  H   H6495     1.0  0.90914  0.28344  0.61037  1.0000
  H   H6496     1.0  0.92302  0.44816  0.72639  1.0000
  H   H6497     1.0  0.94522  0.26937  0.63390  1.0000
  H   H6498     1.0  0.85878  0.36487  0.67231  1.0000
  C   C3795     1.0  0.98017  0.24034  0.62590  1.0000
  C   C3796     1.0  0.91636  0.45283  0.73210  1.0000
  N   N271      1.0  0.87947  0.30499  0.72306  1.0000
  C   C3797     1.0  0.87692  0.35973  0.65765  1.0000
  H   H6499     1.0  0.91322  0.25494  0.57363  1.0000
  H   H6500     1.0  0.89394  0.30061  0.71019  1.0000
  H   H6501     1.0  0.82626  0.29373  0.49272  1.0000
  C   C3798     1.0  0.86613  0.36092  0.67627  1.0000
  H   H6502     1.0  0.84664  0.26268  0.59230  1.0000
  C   C3799     1.0  0.86069  0.39905  0.72488  1.0000
  H   H6503     1.0  0.90979  0.45723  0.72729  1.0000
  H   H6504     1.0  0.83558  0.27564  0.49270  1.0000
  H   H6505     1.0  0.89644  0.24444  0.64279  1.0000
  C   C3800     1.0  0.92595  0.27493  0.58994  1.0000
  H   H6506     1.0  0.86612  0.35186  0.67885  1.0000
  C   C3801     1.0  0.87668  0.37522  0.66583  1.0000
  H   H6507     1.0  0.88790  0.36047  0.67928  1.0000
  H   H6508     1.0  0.85519  0.32556  0.71949  1.0000
  H   H6509     1.0  0.85490  0.29568  0.50779  1.0000
  H   H6510     1.0  0.89813  0.29306  0.57560  1.0000
  C   C3802     1.0  0.85788  0.25395  0.52302  1.0000
  H   H6511     1.0  0.97650  0.24916  0.62436  1.0000
  H   H6512     1.0  0.83286  0.26846  0.51135  1.0000
  C   C3803     1.0  0.89812  0.35314  0.66547  1.0000
  H   H6513     1.0  0.90776  0.24859  0.49893  1.0000
  C   C3804     1.0  0.90693  0.26485  0.60683  1.0000
  H   H6514     1.0  0.93606  0.40577  0.71603  1.0000
  C   C3805     1.0  0.88679  0.37930  0.65752  1.0000
  C   C3806     1.0  0.91084  0.29040  0.60328  1.0000
  H   H6515     1.0  0.88276  0.34152  0.66318  1.0000
  H   H6516     1.0  0.84842  0.27626  0.51076  1.0000
  C   C3807     1.0  0.92866  0.24322  0.57594  1.0000
  H   H6517     1.0  0.87791  0.34569  0.65055  1.0000
  H   H6518     1.0  0.87631  0.37786  0.67355  1.0000
  N   N272      1.0  0.92626  0.39300  0.72198  1.0000
  H   H6519     1.0  0.88471  0.34806  0.67851  1.0000
  C   C3808     1.0  0.87634  0.34751  0.65890  1.0000
  C   C3809     1.0  0.95388  0.26429  0.63253  1.0000
  C   C3810     1.0  0.95760  0.25789  0.64348  1.0000
  H   H6520     1.0  0.86051  0.37426  0.68576  1.0000
  H   H6521     1.0  0.83434  0.28312  0.60258  1.0000
  H   H6522     1.0  0.82341  0.26935  0.61695  1.0000
  C   C3811     1.0  0.90216  0.25832  0.51154  1.0000
  H   H6523     1.0  0.89985  0.34435  0.66467  1.0000
  H   H6524     1.0  0.89929  0.35864  0.65715  1.0000
  H   H6525     1.0  0.85994  0.25921  0.53693  1.0000
  H   H6526     1.0  0.99075  0.37276  0.73199  1.0000
  H   H6527     1.0  0.88561  0.31951  0.72231  1.0000
  H   H6528     1.0  0.82312  0.28188  0.51088  1.0000
  S   S1088     1.0  0.89009  0.46936  0.71884  1.0000
  C   C3812     1.0  0.95535  0.24506  0.66139  1.0000
  H   H6529     1.0  0.91898  0.40720  0.70217  1.0000
  H   H6530     1.0  0.84995  0.27094  0.49326  1.0000
  C   C3813     1.0  0.86353  0.36507  0.68714  1.0000
  H   H6531     1.0  0.90488  0.35350  0.66926  1.0000
  H   H6532     1.0  0.93801  0.39727  0.70644  1.0000
  H   H6533     1.0  0.89918  0.29075  0.59379  1.0000
  H   H6534     1.0  0.89451  0.37601  0.66090  1.0000
  H   H6535     1.0  0.95228  0.23990  0.55574  1.0000
  H   H6536     1.0  0.87185  0.24920  0.65275  1.0000
  H   H6537     1.0  0.90435  0.28717  0.56364  1.0000
  N   N273      1.0  0.91396  0.27852  0.58858  1.0000
  H   H6538     1.0  0.86798  0.32398  0.70935  1.0000
  H   H6539     1.0  0.89988  0.26982  0.61197  1.0000
  C   C3814     1.0  0.93157  0.40144  0.71273  1.0000
  C   C3815     1.0  0.85649  0.42405  0.71893  1.0000
  C   C3816     1.0  0.92256  0.38571  0.71676  1.0000
  H   H6540     1.0  0.94611  0.24522  0.63818  1.0000
  H   H6541     1.0  0.95119  0.35729  0.72930  1.0000
  H   H6542     1.0  0.83594  0.27743  0.62091  1.0000
  H   H6543     1.0  0.95810  0.26422  0.64775  1.0000
  H   H6544     1.0  0.84214  0.41700  0.72832  1.0000
  C   C3817     1.0  0.87786  0.24544  0.65830  1.0000
  H   H6545     1.0  0.92159  0.37129  0.73117  1.0000
  S   S1089     1.0  0.87596  0.44313  0.72292  1.0000
  H   H6546     1.0  0.91965  0.28695  0.57158  1.0000
  H   H6547     1.0  0.87085  0.36263  0.69106  1.0000
  Fe  Fe539     1.0  0.89025  0.42821  0.72197  1.0000
  H   H6548     1.0  0.83891  0.26417  0.63033  1.0000
  C   C3818     1.0  0.92595  0.25620  0.55860  1.0000
  Fe  Fe540     1.0  0.88993  0.34060  0.72272  1.0000
  C   C3819     1.0  0.90842  0.28926  0.59251  1.0000
  H   H6549     1.0  0.88845  0.24575  0.52733  1.0000
  C   C3820     1.0  0.91638  0.39922  0.72920  1.0000
  H   H6550     1.0  0.86898  0.38019  0.66279  1.0000
  C   C3821     1.0  0.93269  0.26397  0.58640  1.0000
  H   H6551     1.0  0.87347  0.40913  0.72948  1.0000
  H   H6552     1.0  0.85024  0.30748  0.49701  1.0000
  H   H6553     1.0  0.83281  0.27743  0.59179  1.0000
  C   C3822     1.0  0.90286  0.28526  0.57284  1.0000
  H   H6554     1.0  0.94094  0.26172  0.58878  1.0000
  C   C3823     1.0  0.88665  0.35615  0.67340  1.0000
  H   H6555     1.0  0.94269  0.41663  0.72429  1.0000
  H   H6556     1.0  0.91819  0.27322  0.57292  1.0000
  H   H6557     1.0  0.89765  0.27889  0.57582  1.0000
  H   H6558     1.0  0.90991  0.26257  0.59007  1.0000
  H   H6559     1.0  0.85786  0.42036  0.71165  1.0000
  H   H6560     1.0  0.89832  0.27294  0.59377  1.0000
  H   H6561     1.0  0.84671  0.40583  0.71603  1.0000
  H   H6562     1.0  0.86265  0.30563  0.72156  1.0000
  H   H6563     1.0  0.93448  0.26477  0.57729  1.0000
  N   N274      1.0  0.83883  0.25901  0.60978  1.0000
  C   C3824     1.0  0.83634  0.24915  0.61894  1.0000
  C   C3825     1.0  0.84696  0.26391  0.61267  1.0000
  H   H6564     1.0  0.85783  0.24472  0.59002  1.0000
  C   C3826     1.0  0.82803  0.26743  0.60873  1.0000
  H   H6565     1.0  0.89470  0.26085  0.51791  1.0000
  C   C3827     1.0  0.84237  0.26971  0.62262  1.0000
  H   H6566     1.0  0.90018  0.31100  0.73261  1.0000
  H   H6567     1.0  0.85125  0.43258  0.71709  1.0000
  C   C3828     1.0  0.88475  0.24232  0.63457  1.0000
  C   C3829     1.0  0.93705  0.25209  0.55366  1.0000
  H   H6568     1.0  0.92949  0.38207  0.71044  1.0000
  H   H6569     1.0  0.84579  0.39269  0.72596  1.0000
  H   H6570     1.0  0.90814  0.37938  0.72823  1.0000
  C   C3830     1.0  0.84362  0.27847  0.49057  1.0000
  H   H6571     1.0  0.90279  0.30377  0.72172  1.0000
  N   N275      1.0  0.84272  0.28754  0.49648  1.0000
  H   H6572     1.0  0.86137  0.24799  0.60111  1.0000
  C   C3831     1.0  0.83085  0.27671  0.51359  1.0000
  C   C3832     1.0  0.82779  0.30499  0.50160  1.0000
  C   C3833     1.0  0.86443  0.32269  0.71839  1.0000
  C   C3834     1.0  0.92174  0.25171  0.56974  1.0000
  C   C3835     1.0  0.95049  0.24136  0.64518  1.0000
  H   H6573     1.0  0.94035  0.25555  0.54506  1.0000
  C   C3836     1.0  0.88060  0.29294  0.72902  1.0000
  H   H6574     1.0  0.96638  0.25341  0.64102  1.0000
  H   H6575     1.0  0.95168  0.37597  0.72791  1.0000
  H   H6576     1.0  0.87388  0.35673  0.73203  1.0000
  Fe  Fe541     1.0  0.88733  0.24624  0.55781  1.0000
  H   H6577     1.0  0.88119  0.24469  0.51806  1.0000
  C   C3837     1.0  0.85452  0.24603  0.59864  1.0000
  C   C3838     1.0  0.85178  0.24089  0.64120  1.0000
  H   H6578     1.0  0.86732  0.32808  0.72205  1.0000
  H   H6579     1.0  0.89314  0.25360  0.50231  1.0000
  C   C3839     1.0  0.83612  0.24056  0.65691  1.0000
  Fe  Fe542     1.0  0.86051  0.24685  0.48727  1.0000
  H   H6580     1.0  0.92349  0.42713  0.73107  1.0000
  C   C3840     1.0  0.89724  0.48644  0.72246  1.0000
  C   C3841     1.0  0.94381  0.24328  0.55971  1.0000
  H   H6581     1.0  0.90327  0.26600  0.50509  1.0000
  H   H6582     1.0  0.90888  0.40182  0.72543  1.0000
  H   H6583     1.0  0.83782  0.25313  0.59574  1.0000
  H   H6584     1.0  0.91741  0.37010  0.71970  1.0000
  H   H6585     1.0  0.95566  0.25181  0.66522  1.0000
  H   H6586     1.0  0.99380  0.24255  0.59043  1.0000
  H   H6587     1.0  0.86085  0.28374  0.49320  1.0000
  H   H6588     1.0  0.87987  0.25089  0.63479  1.0000
  Fe  Fe543     1.0  0.94143  0.24114  0.61268  1.0000
  H   H6589     1.0  0.95470  0.25861  0.62703  1.0000
  C   C3842     1.0  0.90056  0.24962  0.50610  1.0000
  C   C3843     1.0  0.92782  0.34258  0.73005  1.0000
  H   H6590     1.0  0.95005  0.23994  0.66798  1.0000
  H   H6591     1.0  0.82010  0.30252  0.50725  1.0000
  H   H6592     1.0  0.91815  0.40713  0.72974  1.0000
  H   H6593     1.0  0.82913  0.27507  0.52280  1.0000
  H   H6594     1.0  0.85219  0.24868  0.52812  1.0000
  S   S1090     1.0  0.99454  0.24569  0.63525  1.0000
  H   H6595     1.0  0.88488  0.30138  0.69571  1.0000
  H   H6596     1.0  0.92240  0.25769  0.66537  1.0000
  C   C3844     1.0  0.93083  0.25203  0.66479  1.0000
  H   H6597     1.0  0.89963  0.48883  0.71351  1.0000
  H   H6598     1.0  0.92251  0.24023  0.50762  1.0000
  N   N276      1.0  0.95042  0.25004  0.65120  1.0000
  H   H6599     1.0  0.93363  0.25171  0.67237  1.0000
  H   H6600     1.0  0.99823  0.26729  0.69128  1.0000
  C   C3845     1.0  0.62850  0.24554  0.87606  1.0000
  H   H6601     1.0  0.87980  0.31311  0.73583  1.0000
  S   S1091     1.0  0.59359  0.25500  0.95276  1.0000
  Fe  Fe544     1.0  0.53867  0.26213  0.91630  1.0000
  S   S1092     1.0  0.53876  0.27770  0.90285  1.0000
  S   S1093     1.0  0.53561  0.26156  0.93454  1.0000
  H   H6602     1.0  0.90138  0.45571  0.75200  1.0000
  S   S1094     1.0  0.54352  0.26137  0.88537  1.0000
  Fe  Fe545     1.0  0.55384  0.26720  0.89365  1.0000
  S   S1095     1.0  0.57132  0.27009  0.88482  1.0000
  Fe  Fe546     1.0  0.52844  0.27039  0.89583  1.0000
  S   S1096     1.0  0.51209  0.27881  0.89023  1.0000
  S   S1097     1.0  0.55422  0.25212  0.90755  1.0000
  S   S1098     1.0  0.52709  0.25588  0.91023  1.0000
  H   H6603     1.0  0.94338  0.39778  0.75749  1.0000
  Fe  Fe547     1.0  0.75931  0.36196  0.96413  1.0000
  S   S1099     1.0  0.74315  0.36531  0.95864  1.0000
  S   S1100     1.0  0.77595  0.36178  0.95191  1.0000
  Fe  Fe548     1.0  0.74002  0.34986  0.97121  1.0000
  S   S1101     1.0  0.73587  0.33697  0.96463  1.0000
  Fe  Fe549     1.0  0.73578  0.37396  0.97286  1.0000
  S   S1102     1.0  0.72352  0.39034  0.97097  1.0000
  H   H6604     1.0  0.58524  0.24444  0.84516  1.0000
  C   C3846     1.0  0.50684  0.26522  0.86734  1.0000
  Fe  Fe550     1.0  0.71478  0.44825  0.90670  1.0000
  S   S1103     1.0  0.73319  0.44175  0.90120  1.0000
  S   S1104     1.0  0.70843  0.46656  0.90699  1.0000
  Fe  Fe551     1.0  0.70930  0.42549  0.90960  1.0000
  S   S1105     1.0  0.72731  0.41726  0.90469  1.0000
  S   S1106     1.0  0.69554  0.41583  0.91427  1.0000
  Fe  Fe552     1.0  0.73044  0.42712  0.91516  1.0000
  S   S1107     1.0  0.74350  0.41941  0.92539  1.0000
  Fe  Fe553     1.0  0.72827  0.43262  0.89122  1.0000
  S   S1108     1.0  0.73713  0.43293  0.87337  1.0000
  S   S1109     1.0  0.71225  0.43413  0.92139  1.0000
  S   S1110     1.0  0.70997  0.44036  0.89543  1.0000
  C   C3847     1.0  0.57927  0.25834  0.92812  1.0000
  Fe  Fe554     1.0  0.96988  0.36341  0.76398  1.0000
  S   S1111     1.0  0.98775  0.35750  0.76668  1.0000
  Fe  Fe555     1.0  0.94519  0.37321  0.77241  1.0000
  S   S1112     1.0  0.94096  0.37554  0.75598  1.0000
  S   S1113     1.0  0.93104  0.37998  0.78552  1.0000
  Fe  Fe556     1.0  0.95694  0.38157  0.74880  1.0000
  S   S1114     1.0  0.95491  0.35562  0.77266  1.0000
  S   S1115     1.0  0.96042  0.38075  0.76523  1.0000
  H   H6605     1.0  0.75338  0.41567  0.90361  1.0000
  S   S1116     1.0  0.85532  0.43555  0.75094  1.0000
  H   H6606     1.0  0.63304  0.33345  0.90339  1.0000
  Fe  Fe557     1.0  0.61914  0.28914  0.89520  1.0000
  S   S1117     1.0  0.62435  0.27059  0.90058  1.0000
  S   S1118     1.0  0.60084  0.29749  0.89549  1.0000
  Fe  Fe558     1.0  0.64328  0.29291  0.88961  1.0000
  S   S1119     1.0  0.65031  0.27445  0.89362  1.0000
  S   S1120     1.0  0.65502  0.30530  0.88399  1.0000
  Fe  Fe559     1.0  0.63789  0.27207  0.88522  1.0000
  S   S1121     1.0  0.64323  0.25956  0.87402  1.0000
  Fe  Fe560     1.0  0.63619  0.27453  0.90845  1.0000
  S   S1122     1.0  0.63995  0.26498  0.92485  1.0000
  S   S1123     1.0  0.63228  0.29065  0.87938  1.0000
  S   S1124     1.0  0.62955  0.29295  0.90494  1.0000
  Fe  Fe561     1.0  0.87394  0.36413  0.80047  1.0000
  S   S1125     1.0  0.87229  0.37891  0.78640  1.0000
  S   S1126     1.0  0.89105  0.35443  0.80329  1.0000
  Fe  Fe562     1.0  0.84895  0.36458  0.80694  1.0000
  S   S1127     1.0  0.84529  0.37926  0.79315  1.0000
  S   S1128     1.0  0.83429  0.35697  0.81751  1.0000
  Fe  Fe563     1.0  0.86057  0.37092  0.78247  1.0000
  S   S1129     1.0  0.86076  0.37352  0.76435  1.0000
  Fe  Fe564     1.0  0.85714  0.38616  0.79809  1.0000
  S   S1130     1.0  0.85139  0.40430  0.79876  1.0000
  S   S1131     1.0  0.86328  0.35544  0.79568  1.0000
  S   S1132     1.0  0.85981  0.37211  0.81277  1.0000
  Fe  Fe565     1.0  0.69441  0.34688  0.92643  1.0000
  S   S1133     1.0  0.68119  0.35641  0.91663  1.0000
  S   S1134     1.0  0.69315  0.35070  0.94306  1.0000
  Fe  Fe566     1.0  0.70849  0.33577  0.90755  1.0000
  S   S1135     1.0  0.69666  0.34459  0.89615  1.0000
  S   S1136     1.0  0.72348  0.32293  0.90176  1.0000
  Fe  Fe567     1.0  0.69582  0.35965  0.90264  1.0000
  S   S1137     1.0  0.69872  0.37627  0.89168  1.0000
  Fe  Fe568     1.0  0.68306  0.34041  0.91108  1.0000
  S   S1138     1.0  0.66807  0.33286  0.91214  1.0000
  S   S1139     1.0  0.70885  0.35101  0.91271  1.0000
  S   S1140     1.0  0.69511  0.33067  0.92221  1.0000
  Fe  Fe569     1.0  0.77040  0.37218  0.89041  1.0000
  S   S1141     1.0  0.75839  0.36649  0.88435  1.0000
  S   S1142     1.0  0.76213  0.37922  0.90563  1.0000
  Fe  Fe570     1.0  0.78926  0.36827  0.87033  1.0000
  S   S1143     1.0  0.77874  0.36219  0.86264  1.0000
  S   S1144     1.0  0.80680  0.37131  0.86265  1.0000
  Fe  Fe571     1.0  0.76506  0.37634  0.86776  1.0000
  S   S1145     1.0  0.75340  0.38759  0.85698  1.0000
  Fe  Fe572     1.0  0.77295  0.35283  0.88001  1.0000
  S   S1146     1.0  0.77122  0.33509  0.88316  1.0000
  S   S1147     1.0  0.77593  0.38328  0.87406  1.0000
  S   S1148     1.0  0.78461  0.35769  0.88743  1.0000
  C   C3848     1.0  0.73676  0.32636  0.89747  1.0000
  C   C3849     1.0  0.74568  0.31914  0.89212  1.0000
  C   C3850     1.0  0.75626  0.32180  0.88804  1.0000
  C   C3851     1.0  0.75801  0.33175  0.88919  1.0000
  C   C3852     1.0  0.74918  0.33887  0.89479  1.0000
  C   C3853     1.0  0.73856  0.33615  0.89899  1.0000
  H   H6607     1.0  0.74438  0.31152  0.89099  1.0000
  H   H6608     1.0  0.76307  0.31622  0.88379  1.0000
  H   H6609     1.0  0.75052  0.34647  0.89584  1.0000
  H   H6610     1.0  0.73179  0.34165  0.90331  1.0000
  C   C3854     1.0  0.82728  0.36002  0.83063  1.0000
  C   C3855     1.0  0.81673  0.35739  0.83554  1.0000
  C   C3856     1.0  0.81048  0.36054  0.84551  1.0000
  C   C3857     1.0  0.81478  0.36630  0.85069  1.0000
  C   C3858     1.0  0.82549  0.36862  0.84597  1.0000
  C   C3859     1.0  0.83173  0.36548  0.83598  1.0000
  H   H6611     1.0  0.81328  0.35308  0.83149  1.0000
  H   H6612     1.0  0.80229  0.35863  0.84911  1.0000
  H   H6613     1.0  0.82891  0.37296  0.84999  1.0000
  H   H6614     1.0  0.83992  0.36738  0.83238  1.0000
  C   C3860     1.0  0.87490  0.34421  0.74707  1.0000
  C   C3861     1.0  0.87234  0.35511  0.74097  1.0000
  C   C3862     1.0  0.86778  0.36398  0.74642  1.0000
  C   C3863     1.0  0.86581  0.36203  0.75800  1.0000
  C   C3864     1.0  0.86806  0.35110  0.76416  1.0000
  C   C3865     1.0  0.87250  0.34217  0.75869  1.0000
  H   H6615     1.0  0.76571  0.42135  0.91018  1.0000
  H   H6616     1.0  0.86593  0.37238  0.74163  1.0000
  H   H6617     1.0  0.86640  0.34953  0.77312  1.0000
  H   H6618     1.0  0.87439  0.33374  0.76344  1.0000
  C   C3866     1.0  0.65887  0.31252  0.89211  1.0000
  C   C3867     1.0  0.66692  0.31914  0.88699  1.0000
  C   C3868     1.0  0.66992  0.32531  0.89297  1.0000
  C   C3869     1.0  0.66484  0.32505  0.90417  1.0000
  C   C3870     1.0  0.65676  0.31848  0.90927  1.0000
  C   C3871     1.0  0.65387  0.31218  0.90334  1.0000
  H   H6619     1.0  0.67079  0.31957  0.87830  1.0000
  H   H6620     1.0  0.67598  0.33047  0.88885  1.0000
  H   H6621     1.0  0.65274  0.31820  0.91791  1.0000
  H   H6622     1.0  0.64767  0.30716  0.90743  1.0000
  C   C3872     1.0  0.63867  0.24898  0.87079  1.0000
  C   C3873     1.0  0.90595  0.45410  0.75868  1.0000
  C   C3874     1.0  0.74372  0.35182  0.86922  1.0000
  H   H6623     1.0  0.89204  0.35805  0.74818  1.0000
  H   H6624     1.0  0.91829  0.45992  0.76293  1.0000
  C   C3875     1.0  0.81084  0.39480  0.80844  1.0000
  H   H6625     1.0  0.74563  0.46225  0.96451  1.0000
  C   C3876     1.0  0.85436  0.42689  0.76421  1.0000
  C   C3877     1.0  0.84638  0.43049  0.77318  1.0000
  C   C3878     1.0  0.84545  0.42353  0.78381  1.0000
  C   C3879     1.0  0.85212  0.41276  0.78537  1.0000
  C   C3880     1.0  0.85982  0.40907  0.77631  1.0000
  C   C3881     1.0  0.86119  0.41623  0.76584  1.0000
  H   H6626     1.0  0.84107  0.43875  0.77194  1.0000
  H   H6627     1.0  0.83952  0.42648  0.79078  1.0000
  H   H6628     1.0  0.86502  0.40083  0.77739  1.0000
  H   H6629     1.0  0.86740  0.41339  0.75899  1.0000
  C   C3882     1.0  0.92006  0.37272  0.79076  1.0000
  C   C3883     1.0  0.92220  0.36109  0.79372  1.0000
  C   C3884     1.0  0.91323  0.35555  0.79796  1.0000
  C   C3885     1.0  0.90211  0.36160  0.79886  1.0000
  C   C3886     1.0  0.89998  0.37323  0.79600  1.0000
  C   C3887     1.0  0.90895  0.37876  0.79219  1.0000
  H   H6630     1.0  0.93076  0.35636  0.79284  1.0000
  H   H6631     1.0  0.91493  0.34654  0.80029  1.0000
  H   H6632     1.0  0.89142  0.37789  0.79691  1.0000
  H   H6633     1.0  0.90738  0.38773  0.79024  1.0000
  C   C3888     1.0  0.80895  0.38984  0.82894  1.0000
  C   C3889     1.0  0.73255  0.36953  0.86124  1.0000
  H   H6634     1.0  0.92470  0.40848  0.76428  1.0000
  H   H6635     1.0  0.75524  0.41353  0.88454  1.0000
  C   C3890     1.0  0.75114  0.48335  0.91527  1.0000
  C   C3891     1.0  0.98606  0.37105  0.78105  1.0000
  H   H6636     1.0  0.82116  0.37822  0.80627  1.0000
  H   H6637     1.0  0.97714  0.37325  0.78138  1.0000
  C   C3892     1.0  0.87292  0.39619  0.74420  1.0000
  S   S1149     1.0  0.90918  0.42520  0.75326  1.0000
  H   H6638     1.0  0.63334  0.33311  0.87930  1.0000
  H   H6639     1.0  0.69112  0.30056  0.88780  1.0000
  Fe  Fe573     1.0  0.87293  0.43572  0.74121  1.0000
  H   H6640     1.0  0.69347  0.28586  0.89441  1.0000
  C   C3893     1.0  0.74071  0.42036  0.86879  1.0000
  C   C3894     1.0  0.73816  0.41050  0.87591  1.0000
  C   C3895     1.0  0.74211  0.40037  0.87235  1.0000
  C   C3896     1.0  0.74811  0.40021  0.86146  1.0000
  C   C3897     1.0  0.75004  0.41017  0.85413  1.0000
  C   C3898     1.0  0.74648  0.42020  0.85783  1.0000
  H   H6641     1.0  0.73343  0.41059  0.88426  1.0000
  H   H6642     1.0  0.74052  0.39269  0.87803  1.0000
  H   H6643     1.0  0.75465  0.41007  0.84569  1.0000
  H   H6644     1.0  0.74837  0.42782  0.85224  1.0000
  C   C3899     1.0  0.69711  0.40416  0.90863  1.0000
  C   C3900     1.0  0.70687  0.40046  0.90115  1.0000
  C   C3901     1.0  0.70747  0.39168  0.89619  1.0000
  C   C3902     1.0  0.69848  0.38629  0.89896  1.0000
  C   C3903     1.0  0.68895  0.38966  0.90682  1.0000
  C   C3904     1.0  0.68822  0.39864  0.91153  1.0000
  H   H6645     1.0  0.71383  0.40454  0.89898  1.0000
  H   H6646     1.0  0.71487  0.38914  0.89011  1.0000
  H   H6647     1.0  0.68195  0.38560  0.90897  1.0000
  H   H6648     1.0  0.68066  0.40141  0.91735  1.0000
  C   C3905     1.0  0.72387  0.34066  0.95885  1.0000
  C   C3906     1.0  0.71480  0.34909  0.96195  1.0000
  C   C3907     1.0  0.70526  0.35175  0.95737  1.0000
  C   C3908     1.0  0.70500  0.34656  0.94912  1.0000
  C   C3909     1.0  0.71407  0.33812  0.94600  1.0000
  C   C3910     1.0  0.72329  0.33493  0.95114  1.0000
  H   H6649     1.0  0.71501  0.35325  0.96817  1.0000
  H   H6650     1.0  0.69808  0.35795  0.96014  1.0000
  H   H6651     1.0  0.71382  0.33383  0.93989  1.0000
  H   H6652     1.0  0.72995  0.32798  0.94915  1.0000
  C   C3911     1.0  0.77333  0.36763  0.93855  1.0000
  C   C3912     1.0  0.78040  0.36371  0.92926  1.0000
  C   C3913     1.0  0.77730  0.36743  0.91889  1.0000
  C   C3914     1.0  0.76716  0.37505  0.91790  1.0000
  C   C3915     1.0  0.76050  0.37938  0.92703  1.0000
  C   C3916     1.0  0.76356  0.37567  0.93731  1.0000
  H   H6653     1.0  0.78802  0.35751  0.93017  1.0000
  H   H6654     1.0  0.78257  0.36420  0.91178  1.0000
  H   H6655     1.0  0.75281  0.38550  0.92624  1.0000
  H   H6656     1.0  0.75827  0.37894  0.94434  1.0000
  C   C3917     1.0  0.72925  0.39917  0.95895  1.0000
  C   C3918     1.0  0.72244  0.40880  0.95402  1.0000
  C   C3919     1.0  0.72680  0.41512  0.94372  1.0000
  C   C3920     1.0  0.73804  0.41201  0.93853  1.0000
  C   C3921     1.0  0.74498  0.40273  0.94378  1.0000
  C   C3922     1.0  0.74056  0.39625  0.95391  1.0000
  H   H6657     1.0  0.71373  0.41120  0.95800  1.0000
  H   H6658     1.0  0.72149  0.42248  0.93991  1.0000
  H   H6659     1.0  0.75372  0.40038  0.93992  1.0000
  H   H6660     1.0  0.74590  0.38895  0.95779  1.0000
  H   H6661     1.0  0.85326  0.39096  0.74609  1.0000
  N   N277      1.0  0.81463  0.39618  0.81807  1.0000
  C   C3923     1.0  0.50664  0.27150  0.88372  1.0000
  H   H6662     1.0  0.74668  0.47478  0.89928  1.0000
  C   C3924     1.0  0.55588  0.28443  0.92145  1.0000
  H   H6663     1.0  0.72263  0.45570  0.92293  1.0000
  C   C3925     1.0  0.57907  0.27753  0.88867  1.0000
  C   C3926     1.0  0.57421  0.28782  0.89169  1.0000
  C   C3927     1.0  0.58096  0.29402  0.89355  1.0000
  C   C3928     1.0  0.59258  0.28989  0.89256  1.0000
  C   C3929     1.0  0.59737  0.27956  0.88965  1.0000
  C   C3930     1.0  0.59067  0.27345  0.88770  1.0000
  H   H6664     1.0  0.56532  0.29116  0.89225  1.0000
  H   H6665     1.0  0.57716  0.30200  0.89578  1.0000
  H   H6666     1.0  0.60630  0.27632  0.88874  1.0000
  H   H6667     1.0  0.59454  0.26552  0.88540  1.0000
  H   H6668     1.0  0.92820  0.33615  0.74732  1.0000
  H   H6669     1.0  0.93685  0.46250  0.75231  1.0000
  C   C3931     1.0  0.60651  0.25838  0.94591  1.0000
  C   C3932     1.0  0.60690  0.26818  0.93780  1.0000
  C   C3933     1.0  0.61723  0.27032  0.93139  1.0000
  C   C3934     1.0  0.62717  0.26290  0.93349  1.0000
  C   C3935     1.0  0.62681  0.25347  0.94210  1.0000
  C   C3936     1.0  0.61645  0.25114  0.94822  1.0000
  H   H6670     1.0  0.59923  0.27395  0.93625  1.0000
  H   H6671     1.0  0.61752  0.27769  0.92481  1.0000
  C   C3937     1.0  0.99210  0.40964  0.78708  1.0000
  H   H6672     1.0  0.58911  0.24608  0.91836  1.0000
  H   H6673     1.0  0.70737  0.30736  0.88736  1.0000
  H   H6674     1.0  0.57308  0.25397  0.85091  1.0000
  H   H6675     1.0  0.98024  0.42570  0.79687  1.0000
  H   H6676     1.0  0.51087  0.26423  0.85896  1.0000
  H   H6677     1.0  0.80190  0.39903  0.80861  1.0000
  H   H6678     1.0  0.71740  0.47772  0.97452  1.0000
  H   H6679     1.0  0.70653  0.32081  0.88894  1.0000
  H   H6680     1.0  0.69446  0.31762  0.88671  1.0000
  C   C3938     1.0  0.58543  0.24124  0.88056  1.0000
  C   C3939     1.0  0.61766  0.32022  0.88588  1.0000
  C   C3940     1.0  0.61167  0.34011  0.88796  1.0000
  C   C3941     1.0  0.62040  0.32317  0.87309  1.0000
  C   C3942     1.0  0.59907  0.34098  0.88901  1.0000
  H   H6681     1.0  0.60918  0.31836  0.88841  1.0000
  H   H6682     1.0  0.61521  0.34408  0.87928  1.0000
  H   H6683     1.0  0.62944  0.32310  0.86968  1.0000
  H   H6684     1.0  0.61852  0.31667  0.87002  1.0000
  H   H6685     1.0  0.61520  0.33125  0.86972  1.0000
  H   H6686     1.0  0.59419  0.34243  0.89730  1.0000
  H   H6687     1.0  0.59712  0.33372  0.88739  1.0000
  H   H6688     1.0  0.59599  0.34813  0.88260  1.0000
  N   N278      1.0  0.59333  0.25053  0.86025  1.0000
  H   H6689     1.0  0.89960  0.45680  0.76586  1.0000
  C   C3943     1.0  0.58906  0.25803  0.85029  1.0000
  C   C3944     1.0  0.59852  0.25702  0.86500  1.0000
  C   C3945     1.0  0.99299  0.36337  0.77476  1.0000
  C   C3946     1.0  0.99067  0.37570  0.78714  1.0000
  H   H6690     1.0  0.83588  0.40827  0.75539  1.0000
  C   C3947     1.0  0.60882  0.26141  0.85750  1.0000
  H   H6691     1.0  0.84152  0.39959  0.74110  1.0000
  H   H6692     1.0  0.57644  0.25484  0.86999  1.0000
  C   C3948     1.0  0.73886  0.47323  0.98012  1.0000
  H   H6693     1.0  0.59601  0.26031  0.84333  1.0000
  H   H6694     1.0  0.58395  0.26612  0.85232  1.0000
  H   H6695     1.0  0.59213  0.26433  0.86753  1.0000
  H   H6696     1.0  0.94014  0.46412  0.73763  1.0000
  H   H6697     1.0  0.73934  0.47167  0.95386  1.0000
  C   C3949     1.0  0.54323  0.24939  0.94175  1.0000
  H   H6698     1.0  0.63451  0.24781  0.94380  1.0000
  H   H6699     1.0  0.75875  0.48230  0.91848  1.0000
  H   H6700     1.0  0.57670  0.27007  0.94343  1.0000
  C   C3950     1.0  0.88899  0.47432  0.73887  1.0000
  H   H6701     1.0  0.97587  0.39920  0.80303  1.0000
  C   C3951     1.0  0.61927  0.24194  0.91913  1.0000
  C   C3952     1.0  0.92846  0.47799  0.74336  1.0000
  H   H6702     1.0  0.61100  0.26688  0.86167  1.0000
  C   C3953     1.0  0.68687  0.43781  0.86163  1.0000
  H   H6703     1.0  0.74403  0.48769  0.92082  1.0000
  C   C3954     1.0  0.86702  0.40675  0.73700  1.0000
  H   H6704     1.0  0.51964  0.27260  0.86890  1.0000
  N   N279      1.0  0.90280  0.35006  0.76744  1.0000
  C   C3955     1.0  0.90371  0.34159  0.77817  1.0000
  C   C3956     1.0  0.91402  0.35324  0.76276  1.0000
  C   C3957     1.0  0.90061  0.34435  0.75962  1.0000
  C   C3958     1.0  0.89333  0.35982  0.76981  1.0000
  C   C3959     1.0  0.89337  0.33644  0.78408  1.0000
  C   C3960     1.0  0.91800  0.35830  0.77022  1.0000
  C   C3961     1.0  0.84511  0.40511  0.75387  1.0000
  C   C3962     1.0  0.89375  0.37112  0.76147  1.0000
  H   H6705     1.0  0.91107  0.33457  0.77686  1.0000
  H   H6706     1.0  0.90524  0.34535  0.78435  1.0000
  H   H6707     1.0  0.91442  0.35911  0.75461  1.0000
  H   H6708     1.0  0.92061  0.34576  0.76115  1.0000
  H   H6709     1.0  0.90729  0.33671  0.75859  1.0000
  H   H6710     1.0  0.89262  0.34146  0.76305  1.0000
  H   H6711     1.0  0.88511  0.35782  0.77054  1.0000
  H   H6712     1.0  0.89301  0.36141  0.77804  1.0000
  H   H6713     1.0  0.88552  0.34284  0.78512  1.0000
  H   H6714     1.0  0.89255  0.33036  0.77975  1.0000
  H   H6715     1.0  0.89441  0.33178  0.79256  1.0000
  H   H6716     1.0  0.92496  0.36236  0.76522  1.0000
  H   H6717     1.0  0.91133  0.36462  0.77404  1.0000
  H   H6718     1.0  0.92151  0.35161  0.77672  1.0000
  C   C3963     1.0  0.56091  0.26509  0.94716  1.0000
  H   H6719     1.0  0.99596  0.40089  0.78621  1.0000
  H   H6720     1.0  0.62563  0.24378  0.90152  1.0000
  H   H6721     1.0  0.88506  0.37550  0.76066  1.0000
  H   H6722     1.0  0.89861  0.37059  0.75300  1.0000
  H   H6723     1.0  0.89686  0.37664  0.76477  1.0000
  C   C3964     1.0  0.58481  0.25501  0.91682  1.0000
  N   N280      1.0  0.75782  0.34201  0.92840  1.0000
  C   C3965     1.0  0.75801  0.34671  0.93796  1.0000
  C   C3966     1.0  0.75070  0.35095  0.92126  1.0000
  C   C3967     1.0  0.76971  0.33958  0.92182  1.0000
  C   C3968     1.0  0.75333  0.33148  0.93308  1.0000
  C   C3969     1.0  0.76607  0.33952  0.94554  1.0000
  C   C3970     1.0  0.73872  0.35558  0.92729  1.0000
  C   C3971     1.0  0.77147  0.33586  0.91090  1.0000
  C   C3972     1.0  0.74769  0.32802  0.92562  1.0000
  H   H6724     1.0  0.76013  0.35506  0.93489  1.0000
  H   H6725     1.0  0.74956  0.34805  0.94353  1.0000
  H   H6726     1.0  0.74983  0.34812  0.91419  1.0000
  H   H6727     1.0  0.75482  0.35818  0.91737  1.0000
  H   H6728     1.0  0.77340  0.34707  0.91968  1.0000
  H   H6729     1.0  0.77513  0.33286  0.92679  1.0000
  H   H6730     1.0  0.76006  0.32429  0.93561  1.0000
  H   H6731     1.0  0.74687  0.33236  0.94080  1.0000
  H   H6732     1.0  0.76436  0.34317  0.95291  1.0000
  H   H6733     1.0  0.76482  0.33085  0.94861  1.0000
  H   H6734     1.0  0.77495  0.33961  0.94138  1.0000
  H   H6735     1.0  0.73440  0.34887  0.93250  1.0000
  H   H6736     1.0  0.73881  0.36121  0.93250  1.0000
  H   H6737     1.0  0.73371  0.36059  0.92104  1.0000
  H   H6738     1.0  0.76678  0.34209  0.90497  1.0000
  H   H6739     1.0  0.76957  0.32754  0.91237  1.0000
  H   H6740     1.0  0.78047  0.33500  0.90671  1.0000
  H   H6741     1.0  0.74875  0.31881  0.92779  1.0000
  H   H6742     1.0  0.75119  0.33023  0.91666  1.0000
  H   H6743     1.0  0.73849  0.33133  0.92738  1.0000
  N   N281      1.0  0.88496  0.41495  0.78709  1.0000
  C   C3973     1.0  0.88156  0.40439  0.79432  1.0000
  C   C3974     1.0  0.88803  0.41358  0.77523  1.0000
  C   C3975     1.0  0.87502  0.42456  0.78865  1.0000
  C   C3976     1.0  0.89471  0.41641  0.79073  1.0000
  C   C3977     1.0  0.87642  0.40451  0.80669  1.0000
  C   C3978     1.0  0.89774  0.40377  0.77247  1.0000
  C   C3979     1.0  0.87430  0.43488  0.77898  1.0000
  C   C3980     1.0  0.89996  0.42648  0.78415  1.0000
  H   H6744     1.0  0.87541  0.40210  0.79103  1.0000
  H   H6745     1.0  0.88885  0.39726  0.79424  1.0000
  H   H6746     1.0  0.89019  0.42115  0.76930  1.0000
  H   H6747     1.0  0.88067  0.41249  0.77288  1.0000
  H   H6748     1.0  0.86704  0.42182  0.79010  1.0000
  H   H6749     1.0  0.87451  0.42752  0.79622  1.0000
  H   H6750     1.0  0.89215  0.41745  0.79946  1.0000
  H   H6751     1.0  0.90152  0.40876  0.79107  1.0000
  H   H6752     1.0  0.88251  0.40534  0.81103  1.0000
  H   H6753     1.0  0.86866  0.41103  0.80791  1.0000
  H   H6754     1.0  0.87398  0.39639  0.81086  1.0000
  H   H6755     1.0  0.89961  0.40423  0.76340  1.0000
  H   H6756     1.0  0.90556  0.40417  0.77447  1.0000
  H   H6757     1.0  0.89545  0.39560  0.77654  1.0000
  H   H6758     1.0  0.87252  0.43297  0.77175  1.0000
  H   H6759     1.0  0.88190  0.43840  0.77630  1.0000
  H   H6760     1.0  0.86714  0.44152  0.78170  1.0000
  H   H6761     1.0  0.89546  0.43405  0.78748  1.0000
  H   H6762     1.0  0.90025  0.42831  0.77519  1.0000
  H   H6763     1.0  0.90888  0.42455  0.78476  1.0000
  N   N282      1.0  0.92468  0.45839  0.74582  1.0000
  H   H6764     1.0  0.88476  0.46753  0.74272  1.0000
  H   H6765     1.0  0.97458  0.39819  0.81739  1.0000
  C   C3981     1.0  0.99597  0.41733  0.77591  1.0000
  H   H6766     1.0  0.99444  0.41438  0.76917  1.0000
  N   N283      1.0  0.73532  0.47762  0.96915  1.0000
  H   H6767     1.0  0.61397  0.24747  0.84364  1.0000
  H   H6768     1.0  0.55789  0.24839  0.92857  1.0000
  H   H6769     1.0  0.98297  0.41065  0.78782  1.0000
  C   C3982     1.0  0.93044  0.44628  0.74854  1.0000
  Fe  Fe574     1.0  0.54262  0.24726  0.90025  1.0000
  H   H6770     1.0  0.93558  0.48226  0.74107  1.0000
  C   C3983     1.0  0.61618  0.26578  0.96998  1.0000
  H   H6771     1.0  0.72576  0.45821  0.97430  1.0000
  H   H6772     1.0  0.91252  0.44698  0.73921  1.0000
  H   H6773     1.0  0.64218  0.25035  0.90215  1.0000
  H   H6774     1.0  0.77904  0.35516  0.97599  1.0000
  H   H6775     1.0  0.53190  0.24520  0.86641  1.0000
  H   H6776     1.0  0.78053  0.38558  0.96740  1.0000
  C   C3984     1.0  0.72313  0.48353  0.97046  1.0000
  C   C3985     1.0  0.98981  0.40335  0.80717  1.0000
  C   C3986     1.0  0.87575  0.29075  0.74167  1.0000
  C   C3987     1.0  0.58170  0.25328  0.84569  1.0000
  C   C3988     1.0  0.72864  0.46159  0.96537  1.0000
  H   H6777     1.0  0.80232  0.34629  0.98082  1.0000
  H   H6778     1.0  0.72136  0.46669  0.96173  1.0000
  C   C3989     1.0  0.94125  0.44261  0.74015  1.0000
  H   H6779     1.0  0.84888  0.41214  0.75326  1.0000
  H   H6780     1.0  0.60490  0.25615  0.96976  1.0000
  N   N284      1.0  0.70839  0.38791  0.94038  1.0000
  C   C3990     1.0  0.71585  0.39508  0.93194  1.0000
  C   C3991     1.0  0.69635  0.39349  0.93997  1.0000
  C   C3992     1.0  0.71077  0.37650  0.93795  1.0000
  C   C3993     1.0  0.71060  0.38663  0.95167  1.0000
  C   C3994     1.0  0.72856  0.39006  0.93015  1.0000
  C   C3995     1.0  0.69182  0.40438  0.94430  1.0000
  C   C3996     1.0  0.71001  0.37618  0.92624  1.0000
  C   C3997     1.0  0.70284  0.38057  0.96165  1.0000
  H   H6781     1.0  0.71354  0.39741  0.92371  1.0000
  H   H6782     1.0  0.71468  0.40315  0.93431  1.0000
  H   H6783     1.0  0.69057  0.38778  0.94450  1.0000
  H   H6784     1.0  0.69518  0.39560  0.93133  1.0000
  H   H6785     1.0  0.71913  0.37158  0.93944  1.0000
  H   H6786     1.0  0.70470  0.37164  0.94374  1.0000
  H   H6787     1.0  0.71933  0.38200  0.95208  1.0000
  H   H6788     1.0  0.71012  0.39489  0.95324  1.0000
  H   H6789     1.0  0.73090  0.38237  0.92686  1.0000
  H   H6790     1.0  0.73306  0.39619  0.92389  1.0000
  H   H6791     1.0  0.73176  0.38844  0.93779  1.0000
  H   H6792     1.0  0.69129  0.40288  0.95334  1.0000
  H   H6793     1.0  0.69684  0.41076  0.93979  1.0000
  H   H6794     1.0  0.68318  0.40799  0.94289  1.0000
  H   H6795     1.0  0.71604  0.38043  0.91958  1.0000
  H   H6796     1.0  0.70139  0.37973  0.92482  1.0000
  H   H6797     1.0  0.71200  0.36734  0.92551  1.0000
  H   H6798     1.0  0.70792  0.37304  0.96612  1.0000
  H   H6799     1.0  0.69626  0.37788  0.95951  1.0000
  H   H6800     1.0  0.69866  0.38605  0.96767  1.0000
  H   H6801     1.0  0.74744  0.35609  0.87336  1.0000
  H   H6802     1.0  0.55859  0.26652  0.92539  1.0000
  C   C3998     1.0  0.93304  0.46527  0.74486  1.0000
  H   H6803     1.0  0.58611  0.29361  0.91744  1.0000
  H   H6804     1.0  0.98877  0.44042  0.78985  1.0000
  H   H6805     1.0  0.57822  0.27535  0.97853  1.0000
  H   H6806     1.0  0.59129  0.25978  0.91183  1.0000
  H   H6807     1.0  0.72197  0.36560  0.89415  1.0000
  H   H6808     1.0  0.91407  0.46937  0.73479  1.0000
  H   H6809     1.0  0.58096  0.25818  0.83722  1.0000
  H   H6810     1.0  0.81446  0.35642  0.98200  1.0000
  H   H6811     1.0  0.99198  0.39525  0.74850  1.0000
  H   H6812     1.0  0.62320  0.26487  0.97400  1.0000
  H   H6813     1.0  0.71292  0.41031  0.85510  1.0000
  H   H6814     1.0  0.75644  0.35773  0.85493  1.0000
  S   S1150     1.0  0.88346  0.44533  0.74474  1.0000
  H   H6815     1.0  0.71560  0.42949  0.87584  1.0000
  H   H6816     1.0  0.56704  0.27211  0.91309  1.0000
  C   C3999     1.0  0.70938  0.48290  0.91668  1.0000
  H   H6817     1.0  0.56468  0.25605  0.94894  1.0000
  H   H6818     1.0  0.99458  0.39470  0.80673  1.0000
  H   H6819     1.0  0.60140  0.25188  0.87263  1.0000
  C   C4000     1.0  0.91286  0.39324  0.74141  1.0000
  C   C4001     1.0  0.94423  0.40631  0.74040  1.0000
  H   H6820     1.0  0.87486  0.38872  0.74063  1.0000
  C   C4002     1.0  0.71310  0.48716  0.92376  1.0000
  H   H6821     1.0  0.99422  0.38133  0.75624  1.0000
  H   H6822     1.0  0.55811  0.26759  0.95529  1.0000
  H   H6823     1.0  0.72266  0.38552  0.85460  1.0000
  N   N285      1.0  0.77144  0.41047  0.89849  1.0000
  C   C4003     1.0  0.77273  0.41429  0.90814  1.0000
  C   C4004     1.0  0.77975  0.39978  0.89683  1.0000
  C   C4005     1.0  0.75976  0.40847  0.90093  1.0000
  C   C4006     1.0  0.77292  0.40542  0.91906  1.0000
  C   C4007     1.0  0.79221  0.40005  0.89503  1.0000
  C   C4008     1.0  0.75631  0.40606  0.89132  1.0000
  H   H6824     1.0  0.78045  0.41764  0.90602  1.0000
  H   H6825     1.0  0.77791  0.39277  0.90392  1.0000
  H   H6826     1.0  0.77909  0.39720  0.88946  1.0000
  H   H6827     1.0  0.75857  0.40134  0.90805  1.0000
  H   H6828     1.0  0.77295  0.40942  0.92574  1.0000
  H   H6829     1.0  0.76537  0.40180  0.92183  1.0000
  H   H6830     1.0  0.78049  0.39860  0.91846  1.0000
  H   H6831     1.0  0.79733  0.39153  0.89463  1.0000
  H   H6832     1.0  0.79404  0.40249  0.90190  1.0000
  H   H6833     1.0  0.79510  0.40557  0.88702  1.0000
  H   H6834     1.0  0.74817  0.40346  0.89458  1.0000
  H   H6835     1.0  0.80247  0.41163  0.81915  1.0000
  H   H6836     1.0  0.79226  0.40100  0.83236  1.0000
  H   H6837     1.0  0.81177  0.41931  0.80175  1.0000
  H   H6838     1.0  0.73209  0.45441  0.96122  1.0000
  H   H6839     1.0  0.87626  0.29719  0.74570  1.0000
  C   C4009     1.0  0.56942  0.27200  0.93947  1.0000
  H   H6840     1.0  0.74379  0.34346  0.87477  1.0000
  C   C4010     1.0  0.71742  0.40952  0.86167  1.0000
  H   H6841     1.0  0.56549  0.28079  0.93989  1.0000
  C   C4011     1.0  0.72357  0.46870  0.93029  1.0000
  H   H6842     1.0  0.94359  0.43335  0.74185  1.0000
  S   S1151     1.0  0.88180  0.33332  0.74011  1.0000
  H   H6843     1.0  0.72102  0.48732  0.96217  1.0000
  H   H6844     1.0  0.83288  0.40362  0.82216  1.0000
  H   H6845     1.0  0.54750  0.28373  0.92092  1.0000
  H   H6846     1.0  0.72510  0.35008  0.88500  1.0000
  C   C4012     1.0  0.56382  0.27286  0.92190  1.0000
  C   C4013     1.0  0.93970  0.34716  0.73962  1.0000
  C   C4014     1.0  0.71996  0.46447  0.92312  1.0000
  H   H6847     1.0  0.80715  0.36970  0.97521  1.0000
  H   H6848     1.0  0.90925  0.44507  0.76139  1.0000
  H   H6849     1.0  0.60775  0.31060  0.90711  1.0000
  H   H6850     1.0  0.84182  0.39015  0.82289  1.0000
  H   H6851     1.0  0.82906  0.38241  0.81799  1.0000
  C   C4015     1.0  0.58329  0.24735  0.86892  1.0000
  H   H6852     1.0  0.90723  0.35462  0.74333  1.0000
  H   H6853     1.0  0.93265  0.44419  0.75682  1.0000
  C   C4016     1.0  0.71284  0.47156  0.91630  1.0000
  C   C4017     1.0  0.70657  0.44458  0.86704  1.0000
  H   H6854     1.0  0.73686  0.33497  0.86514  1.0000
  S   S1152     1.0  0.72509  0.48502  0.93960  1.0000
  H   H6855     1.0  0.68020  0.42092  0.89404  1.0000
  H   H6856     1.0  0.79065  0.37389  0.96318  1.0000
  H   H6857     1.0  0.57345  0.25271  0.93252  1.0000
  H   H6858     1.0  0.75624  0.42980  0.88847  1.0000
  C   C4018     1.0  0.76487  0.43059  0.88793  1.0000
  H   H6859     1.0  0.64328  0.33674  0.89116  1.0000
  H   H6860     1.0  0.76722  0.43639  0.87991  1.0000
  H   H6861     1.0  0.80924  0.38270  0.80014  1.0000
  S   S1153     1.0  0.75669  0.34595  0.97598  1.0000
  H   H6862     1.0  0.80729  0.37782  0.81480  1.0000
  H   H6863     1.0  0.62329  0.31210  0.88845  1.0000
  H   H6864     1.0  0.68849  0.44369  0.85350  1.0000
  C   C4019     1.0  0.80942  0.36064  0.97558  1.0000
  C   C4020     1.0  0.81715  0.41616  0.80797  1.0000
  H   H6865     1.0  0.59802  0.32391  0.90608  1.0000
  H   H6866     1.0  0.55331  0.26664  0.94382  1.0000
  C   C4021     1.0  0.73776  0.46834  0.96300  1.0000
  C   C4022     1.0  0.61580  0.32473  0.90403  1.0000
  H   H6867     1.0  0.81559  0.39899  0.80044  1.0000
  H   H6868     1.0  0.84703  0.39870  0.76134  1.0000
  H   H6869     1.0  0.81187  0.38075  0.82947  1.0000
  H   H6870     1.0  0.76484  0.43458  0.89462  1.0000
  N   N286      1.0  0.61867  0.32872  0.89156  1.0000
  H   H6871     1.0  0.81842  0.42333  0.81046  1.0000
  H   H6872     1.0  0.82915  0.39194  0.83313  1.0000
  H   H6873     1.0  0.61423  0.33173  0.90826  1.0000
  C   C4023     1.0  0.60571  0.31903  0.90894  1.0000
  C   C4024     1.0  0.63418  0.33684  0.89432  1.0000
  H   H6874     1.0  0.74850  0.34965  0.85177  1.0000
  H   H6875     1.0  0.81129  0.39140  0.83606  1.0000
  H   H6876     1.0  0.79307  0.38685  0.83954  1.0000
  N   N287      1.0  0.69612  0.29943  0.90890  1.0000
  C   C4025     1.0  0.69389  0.29806  0.92136  1.0000
  C   C4026     1.0  0.70662  0.29097  0.90566  1.0000
  C   C4027     1.0  0.68624  0.29704  0.90620  1.0000
  C   C4028     1.0  0.69735  0.31127  0.90368  1.0000
  C   C4029     1.0  0.68258  0.30473  0.92680  1.0000
  C   C4030     1.0  0.71746  0.29262  0.90768  1.0000
  C   C4031     1.0  0.68794  0.29420  0.89482  1.0000
  C   C4032     1.0  0.70158  0.31426  0.89098  1.0000
  H   H6877     1.0  0.69422  0.28913  0.92559  1.0000
  H   H6878     1.0  0.70045  0.30061  0.92380  1.0000
  H   H6879     1.0  0.70839  0.29070  0.89678  1.0000
  H   H6880     1.0  0.70553  0.28241  0.91016  1.0000
  H   H6881     1.0  0.68332  0.28985  0.91245  1.0000
  H   H6882     1.0  0.67898  0.30421  0.90674  1.0000
  H   H6883     1.0  0.68920  0.31718  0.90551  1.0000
  H   H6884     1.0  0.70287  0.31383  0.90753  1.0000
  H   H6885     1.0  0.68180  0.31382  0.92366  1.0000
  H   H6886     1.0  0.67527  0.30223  0.92577  1.0000
  H   H6887     1.0  0.68207  0.30313  0.93586  1.0000
  H   H6888     1.0  0.71934  0.30084  0.90309  1.0000
  H   H6889     1.0  0.71721  0.29155  0.91661  1.0000
  H   H6890     1.0  0.72464  0.28621  0.90457  1.0000
  H   H6891     1.0  0.67969  0.29378  0.89367  1.0000
  C   C4033     1.0  0.92855  0.41030  0.75553  1.0000
  H   H6892     1.0  0.72304  0.33633  0.86341  1.0000
  H   H6893     1.0  0.58582  0.24721  0.88527  1.0000
  C   C4034     1.0  0.99496  0.43278  0.79252  1.0000
  Fe  Fe575     1.0  0.95154  0.35843  0.75557  1.0000
  H   H6894     1.0  0.61205  0.34592  0.89287  1.0000
  H   H6895     1.0  0.81332  0.40979  0.82588  1.0000
  H   H6896     1.0  0.86684  0.29010  0.74351  1.0000
  C   C4035     1.0  0.93918  0.40422  0.75167  1.0000
  C   C4036     1.0  0.63081  0.32964  0.88833  1.0000
  H   H6897     1.0  0.77365  0.41633  0.88065  1.0000
  H   H6898     1.0  0.78177  0.42131  0.88673  1.0000
  H   H6899     1.0  0.76218  0.39910  0.88786  1.0000
  N   N288      1.0  0.73200  0.35804  0.86822  1.0000
  H   H6900     1.0  0.71767  0.43064  0.86136  1.0000
  C   C4037     1.0  0.77342  0.41934  0.88811  1.0000
  H   H6901     1.0  0.79273  0.39032  0.82520  1.0000
  C   C4038     1.0  0.81166  0.40837  0.81833  1.0000
  C   C4039     1.0  0.79602  0.39230  0.83145  1.0000
  H   H6902     1.0  0.82557  0.41220  0.80384  1.0000
  H   H6903     1.0  0.60380  0.31780  0.91813  1.0000
  C   C4040     1.0  0.81225  0.38266  0.80751  1.0000
  H   H6904     1.0  0.62971  0.34567  0.89262  1.0000
  H   H6905     1.0  0.55904  0.29055  0.91405  1.0000
  H   H6906     1.0  0.63630  0.32122  0.88991  1.0000
  H   H6907     1.0  0.62268  0.24968  0.88234  1.0000
  C   C4041     1.0  0.60954  0.25652  0.97574  1.0000
  H   H6908     1.0  0.70364  0.44791  0.85915  1.0000
  C   C4042     1.0  0.82710  0.39164  0.81660  1.0000
  H   H6909     1.0  0.68540  0.44252  0.86813  1.0000
  H   H6910     1.0  0.67891  0.43539  0.86224  1.0000
  C   C4043     1.0  0.83290  0.39460  0.82422  1.0000
  H   H6911     1.0  0.83156  0.39430  0.80791  1.0000
  H   H6912     1.0  0.73724  0.36909  0.85260  1.0000
  S   S1154     1.0  0.75226  0.37222  0.97716  1.0000
  H   H6913     1.0  0.58595  0.25601  0.93298  1.0000
  C   C4044     1.0  0.72814  0.36538  0.88616  1.0000
  H   H6914     1.0  0.72900  0.46314  0.93561  1.0000
  H   H6915     1.0  0.62303  0.31848  0.90698  1.0000
  H   H6916     1.0  0.51288  0.24717  0.90031  1.0000
  H   H6917     1.0  0.75897  0.47834  0.96582  1.0000
  S   S1155     1.0  0.94395  0.34579  0.75208  1.0000
  C   C4045     1.0  0.84920  0.39988  0.74351  1.0000
  C   C4046     1.0  0.89967  0.35129  0.74792  1.0000
  H   H6918     1.0  0.70260  0.42847  0.85387  1.0000
  H   H6919     1.0  0.69999  0.44724  0.87405  1.0000
  C   C4047     1.0  0.64379  0.24338  0.90934  1.0000
  S   S1156     1.0  0.96735  0.36467  0.74685  1.0000
  C   C4048     1.0  0.89123  0.48025  0.74550  1.0000
  H   H6920     1.0  0.72488  0.33731  0.87640  1.0000
  N   N289      1.0  0.57338  0.27040  0.92769  1.0000
  H   H6921     1.0  0.55422  0.28772  0.92899  1.0000
  H   H6922     1.0  0.84815  0.42242  0.73603  1.0000
  C   C4049     1.0  0.99376  0.37424  0.73873  1.0000
  H   H6923     1.0  0.76044  0.48537  0.89835  1.0000
  H   H6924     1.0  0.58735  0.26439  0.97240  1.0000
  H   H6925     1.0  0.73007  0.35361  0.85369  1.0000
  H   H6926     1.0  0.72799  0.37415  0.88173  1.0000
  H   H6927     1.0  0.90467  0.39805  0.74520  1.0000
  H   H6928     1.0  0.98523  0.38145  0.79216  1.0000
  C   C4050     1.0  0.53854  0.24452  0.95261  1.0000
  C   C4051     1.0  0.69660  0.42737  0.86205  1.0000
  H   H6929     1.0  0.73353  0.48015  0.90725  1.0000
  H   H6930     1.0  0.86787  0.39453  0.75278  1.0000
  H   H6931     1.0  0.70378  0.48839  0.91150  1.0000
  H   H6932     1.0  0.58283  0.27827  0.91224  1.0000
  C   C4052     1.0  0.58187  0.27740  0.92125  1.0000
  H   H6933     1.0  0.71598  0.37424  0.85676  1.0000
  H   H6934     1.0  0.71359  0.44861  0.86623  1.0000
  H   H6935     1.0  0.71443  0.41059  0.87873  1.0000
  H   H6936     1.0  0.73638  0.36149  0.88831  1.0000
  C   C4053     1.0  0.69510  0.42547  0.88247  1.0000
  C   C4054     1.0  0.72676  0.35220  0.86281  1.0000
  N   N290      1.0  0.70277  0.42462  0.87130  1.0000
  H   H6937     1.0  0.75875  0.34276  0.85978  1.0000
  H   H6938     1.0  0.71759  0.35574  0.86378  1.0000
  H   H6939     1.0  0.51592  0.24738  0.88215  1.0000
  H   H6940     1.0  0.59036  0.27318  0.92289  1.0000
  H   H6941     1.0  0.57144  0.29432  0.92218  1.0000
  H   H6942     1.0  0.68844  0.41004  0.88731  1.0000
  C   C4055     1.0  0.72491  0.35857  0.87968  1.0000
  H   H6943     1.0  0.70002  0.42239  0.88911  1.0000
  H   H6944     1.0  0.70369  0.40675  0.87510  1.0000
  C   C4056     1.0  0.72803  0.33949  0.86730  1.0000
  H   H6945     1.0  0.72420  0.41422  0.85835  1.0000
  H   H6946     1.0  0.59602  0.24262  0.97723  1.0000
  H   H6947     1.0  0.98710  0.42351  0.80788  1.0000
  H   H6948     1.0  0.69301  0.42019  0.86238  1.0000
  H   H6949     1.0  0.69120  0.43419  0.88319  1.0000
  H   H6950     1.0  0.50242  0.24221  0.91151  1.0000
  C   C4057     1.0  0.92275  0.41834  0.74809  1.0000
  C   C4058     1.0  0.57973  0.28920  0.92340  1.0000
  H   H6951     1.0  0.58079  0.28887  0.93181  1.0000
  H   H6952     1.0  0.89875  0.34576  0.74301  1.0000
  H   H6953     1.0  0.77597  0.37337  0.96818  1.0000
  C   C4059     1.0  0.72114  0.37755  0.86030  1.0000
  H   H6954     1.0  0.49872  0.24153  0.89384  1.0000
  H   H6955     1.0  0.71632  0.37955  0.86840  1.0000
  H   H6956     1.0  0.91186  0.38469  0.74237  1.0000
  C   C4060     1.0  0.51186  0.26992  0.87297  1.0000
  C   C4061     1.0  0.75226  0.35052  0.85824  1.0000
  C   C4062     1.0  0.72024  0.48007  0.93056  1.0000
  H   H6957     1.0  0.97185  0.41173  0.80863  1.0000
  H   H6958     1.0  0.63936  0.24695  0.91667  1.0000
  H   H6959     1.0  0.71592  0.36197  0.87938  1.0000
  H   H6960     1.0  0.57855  0.25584  0.91190  1.0000
  C   C4063     1.0  0.98867  0.42330  0.79895  1.0000
  C   C4064     1.0  0.68543  0.41920  0.88594  1.0000
  H   H6961     1.0  0.91059  0.46982  0.75353  1.0000
  H   H6962     1.0  0.67987  0.42197  0.87995  1.0000
  H   H6963     1.0  0.81486  0.35976  0.96732  1.0000
  H   H6964     1.0  0.73745  0.37361  0.86433  1.0000
  H   H6965     1.0  0.65389  0.24610  0.85850  1.0000
  H   H6966     1.0  0.61628  0.25451  0.85649  1.0000
  C   C4065     1.0  0.78459  0.37226  0.98135  1.0000
  H   H6967     1.0  0.60732  0.26651  0.84935  1.0000
  C   C4066     1.0  0.70935  0.41271  0.87231  1.0000
  H   H6968     1.0  0.72169  0.40063  0.86377  1.0000
  C   C4067     1.0  0.71111  0.43189  0.86892  1.0000
  H   H6969     1.0  0.74991  0.47488  0.91602  1.0000
  C   C4068     1.0  0.91508  0.46097  0.75535  1.0000
  H   H6970     1.0  0.74027  0.48004  0.88230  1.0000
  H   H6971     1.0  0.60446  0.24195  0.83948  1.0000
  H   H6972     1.0  0.61060  0.24468  0.91769  1.0000
  H   H6973     1.0  0.92487  0.44063  0.74940  1.0000
  C   C4069     1.0  0.79931  0.35531  0.97752  1.0000
  H   H6974     1.0  0.65828  0.24842  0.91074  1.0000
  C   C4070     1.0  0.97729  0.40327  0.80901  1.0000
  H   H6975     1.0  0.92318  0.48025  0.75122  1.0000
  H   H6976     1.0  0.88884  0.47782  0.75444  1.0000
  C   C4071     1.0  0.60151  0.24001  0.85764  1.0000
  H   H6977     1.0  0.61077  0.27423  0.96980  1.0000
  H   H6978     1.0  0.53007  0.24806  0.95645  1.0000
  C   C4072     1.0  0.78292  0.37633  0.96933  1.0000
  H   H6979     1.0  0.91896  0.39301  0.74631  1.0000
  H   H6980     1.0  0.59098  0.27778  0.96940  1.0000
  H   H6981     1.0  0.61574  0.24842  0.97657  1.0000
  H   H6982     1.0  0.61619  0.24383  0.95484  1.0000
  H   H6983     1.0  0.92366  0.48144  0.73669  1.0000
  H   H6984     1.0  0.99087  0.40476  0.81499  1.0000
  H   H6985     1.0  0.86502  0.41367  0.74140  1.0000
  N   N291      1.0  0.85678  0.40574  0.73380  1.0000
  C   C4073     1.0  0.64604  0.24358  0.86263  1.0000
  C   C4074     1.0  0.73938  0.48198  0.89910  1.0000
  S   S1157     1.0  0.95668  0.39730  0.73558  1.0000
  N   N292      1.0  0.99441  0.41167  0.79724  1.0000
  H   H6986     1.0  0.79786  0.35547  0.96927  1.0000
  C   C4075     1.0  0.73395  0.48093  0.89010  1.0000
  Fe  Fe576     1.0  0.89750  0.43083  0.74160  1.0000
  H   H6987     1.0  0.79030  0.37708  0.98211  1.0000
  H   H6988     1.0  0.88101  0.39749  0.74485  1.0000
  H   H6989     1.0  0.73054  0.47323  0.89303  1.0000
  C   C4076     1.0  0.65640  0.24102  0.90920  1.0000
  C   C4077     1.0  0.74214  0.48610  0.96218  1.0000
  C   C4078     1.0  0.55418  0.24477  0.93689  1.0000
  H   H6990     1.0  0.62000  0.26506  0.96125  1.0000
  H   H6991     1.0  0.98615  0.37721  0.74479  1.0000
  H   H6992     1.0  0.89701  0.29756  0.73598  1.0000
  C   C4079     1.0  0.58720  0.27136  0.97600  1.0000
  C   C4080     1.0  0.60920  0.24083  0.84594  1.0000
  S   S1158     1.0  0.88657  0.42036  0.74010  1.0000
  H   H6993     1.0  0.62140  0.24936  0.92025  1.0000
  C   C4081     1.0  0.93155  0.34152  0.73974  1.0000
  C   C4082     1.0  0.75488  0.48163  0.95863  1.0000
  H   H6994     1.0  0.51955  0.24255  0.86448  1.0000
  H   H6995     1.0  0.88069  0.28283  0.74575  1.0000
  C   C4083     1.0  0.92074  0.46162  0.73503  1.0000
  H   H6996     1.0  0.94837  0.44553  0.74105  1.0000
  C   C4084     1.0  0.92787  0.42076  0.73682  1.0000
  H   H6997     1.0  0.74773  0.46856  0.97891  1.0000
  H   H6998     1.0  0.54654  0.24232  0.87785  1.0000
  H   H6999     1.0  0.75688  0.47526  0.95357  1.0000
  H   H7000     1.0  0.57966  0.24178  0.86622  1.0000
  H   H7001     1.0  0.99100  0.42599  0.77553  1.0000
  H   H7002     1.0  0.99615  0.39248  0.76726  1.0000
  H   H7003     1.0  0.93203  0.37948  0.73513  1.0000
  C   C4085     1.0  0.89665  0.48920  0.74070  1.0000
  H   H7004     1.0  0.75875  0.48867  0.95333  1.0000
  H   H7005     1.0  0.93658  0.39181  0.73328  1.0000
  C   C4086     1.0  0.50958  0.23960  0.90485  1.0000
  H   H7006     1.0  0.86315  0.31007  0.73329  1.0000
  C   C4087     1.0  0.93872  0.41485  0.73299  1.0000
  H   H7007     1.0  0.72691  0.48792  0.88823  1.0000
  H   H7008     1.0  0.66163  0.23978  0.90098  1.0000
  C   C4088     1.0  0.88540  0.64776  0.20093  1.0000
  C   C4089     1.0  0.84851  0.55816  0.21913  1.0000
  H   H7009     1.0  0.57065  0.72696  0.14549  1.0000
  Fe  Fe577     1.0  0.62233  0.71587  0.13385  1.0000
  S   S1159     1.0  0.62065  0.70398  0.15031  1.0000
  S   S1160     1.0  0.74493  0.57512  0.99167  1.0000
  Fe  Fe578     1.0  0.62287  0.69846  0.12157  1.0000
  S   S1161     1.0  0.62121  0.68493  0.13700  1.0000
  S   S1162     1.0  0.62595  0.69532  0.10450  1.0000
  Fe  Fe579     1.0  0.60829  0.69850  0.14438  1.0000
  S   S1163     1.0  0.59134  0.69758  0.15556  1.0000
  Fe  Fe580     1.0  0.63371  0.69163  0.14147  1.0000
  S   S1164     1.0  0.64945  0.68277  0.14796  1.0000
  S   S1165     1.0  0.60897  0.71144  0.12856  1.0000
  S   S1166     1.0  0.63633  0.70407  0.12539  1.0000
  Fe  Fe581     1.0  0.84395  0.60844  0.20639  1.0000
  H   H7010     1.0  0.74841  0.60468  0.04422  1.0000
  S   S1167     1.0  0.83590  0.61137  0.19136  1.0000
  Fe  Fe582     1.0  0.86744  0.60260  0.21249  1.0000
  H   H7011     1.0  0.75729  0.56830  0.05367  1.0000
  S   S1168     1.0  0.88636  0.59978  0.20610  1.0000
  H   H7012     1.0  0.79664  0.54253  0.00480  1.0000
  H   H7013     1.0  0.56181  0.70753  0.98659  1.0000
  C   C4090     1.0  0.82775  0.56168  0.20046  1.0000
  N   N293      1.0  0.91746  0.56585  0.22373  1.0000
  S   S1169     1.0  0.85666  0.59251  0.20985  1.0000
  S   S1170     1.0  0.85555  0.61876  0.20746  1.0000
  Fe  Fe583     1.0  0.68919  0.62553  0.13929  1.0000
  S   S1171     1.0  0.70237  0.63324  0.12627  1.0000
  S   S1172     1.0  0.67058  0.63325  0.14158  1.0000
  Fe  Fe584     1.0  0.70588  0.60365  0.14542  1.0000
  S   S1173     1.0  0.72044  0.60956  0.13293  1.0000
  S   S1174     1.0  0.70927  0.58663  0.15661  1.0000
  Fe  Fe585     1.0  0.71333  0.62556  0.13879  1.0000
  S   S1175     1.0  0.72376  0.63580  0.14172  1.0000
  Fe  Fe586     1.0  0.70830  0.61659  0.12164  1.0000
  S   S1176     1.0  0.71231  0.61386  0.10434  1.0000
  S   S1177     1.0  0.69959  0.61920  0.15230  1.0000
  S   S1178     1.0  0.69433  0.60931  0.13363  1.0000
  Fe  Fe587     1.0  0.79620  0.58584  0.16677  1.0000
  S   S1179     1.0  0.77749  0.59218  0.16826  1.0000
  S   S1180     1.0  0.80338  0.58575  0.18163  1.0000
  Fe  Fe588     1.0  0.79849  0.58141  0.14363  1.0000
  S   S1181     1.0  0.78034  0.58787  0.14335  1.0000
  S   S1182     1.0  0.81066  0.57514  0.12908  1.0000
  Fe  Fe589     1.0  0.78180  0.60129  0.15066  1.0000
  S   S1183     1.0  0.77475  0.61951  0.14519  1.0000
  Fe  Fe590     1.0  0.77765  0.57801  0.16087  1.0000
  S   S1184     1.0  0.76279  0.56971  0.16600  1.0000
  S   S1185     1.0  0.80038  0.59584  0.14941  1.0000
  S   S1186     1.0  0.79589  0.57065  0.16089  1.0000
  Fe  Fe591     1.0  0.78640  0.57889  0.07671  1.0000
  S   S1187     1.0  0.76912  0.58487  0.08593  1.0000
  S   S1188     1.0  0.80025  0.56901  0.08562  1.0000
  Fe  Fe592     1.0  0.78015  0.58792  0.05402  1.0000
  S   S1189     1.0  0.76235  0.59495  0.06151  1.0000
  S   S1190     1.0  0.78481  0.59029  0.03527  1.0000
  Fe  Fe593     1.0  0.76944  0.60050  0.07281  1.0000
  S   S1191     1.0  0.76216  0.61614  0.07949  1.0000
  Fe  Fe594     1.0  0.76349  0.57881  0.07396  1.0000
  S   S1192     1.0  0.74843  0.57110  0.07988  1.0000
  S   S1193     1.0  0.78733  0.59504  0.06425  1.0000
  S   S1194     1.0  0.78083  0.57126  0.06574  1.0000
  Fe  Fe595     1.0  0.73024  0.53234  0.13607  1.0000
  S   S1195     1.0  0.74753  0.53576  0.12931  1.0000
  S   S1196     1.0  0.71441  0.54567  0.13536  1.0000
  Fe  Fe596     1.0  0.73840  0.50722  0.14140  1.0000
  S   S1197     1.0  0.75649  0.50843  0.13569  1.0000
  H   H7014     1.0  0.75510  0.58607  0.03171  1.0000
  Fe  Fe597     1.0  0.75193  0.52286  0.14416  1.0000
  S   S1198     1.0  0.76536  0.52494  0.15163  1.0000
  Fe  Fe598     1.0  0.75092  0.52119  0.12141  1.0000
  S   S1199     1.0  0.76144  0.52113  0.10438  1.0000
  S   S1200     1.0  0.73426  0.52033  0.15162  1.0000
  S   S1201     1.0  0.73323  0.51912  0.12640  1.0000
  H   H7015     1.0  0.79823  0.53830  0.13496  1.0000
  H   H7016     1.0  0.77749  0.52760  0.11161  1.0000
  S   S1202     1.0  0.76341  0.56347  0.01430  1.0000
  H   H7017     1.0  0.77368  0.52588  0.12655  1.0000
  S   S1203     1.0  0.55156  0.70836  0.13074  1.0000
  H   H7018     1.0  0.92237  0.60500  0.20883  1.0000
  C   C4091     1.0  0.70278  0.56620  0.98469  1.0000
  H   H7019     1.0  0.57439  0.69368  0.09513  1.0000
  H   H7020     1.0  0.50264  0.70559  0.16718  1.0000
  H   H7021     1.0  0.59417  0.72774  0.15135  1.0000
  C   C4092     1.0  0.66232  0.65240  0.11357  1.0000
  C   C4093     1.0  0.61670  0.72741  0.08867  1.0000
  Fe  Fe599     1.0  0.76168  0.56851  0.99634  1.0000
  H   H7022     1.0  0.78326  0.51508  0.12032  1.0000
  H   H7023     1.0  0.60495  0.73602  0.16904  1.0000
  C   C4094     1.0  0.77010  0.57073  0.01958  1.0000
  C   C4095     1.0  0.77264  0.56618  0.03011  1.0000
  C   C4096     1.0  0.77720  0.57209  0.03495  1.0000
  C   C4097     1.0  0.77948  0.58251  0.02921  1.0000
  C   C4098     1.0  0.77733  0.58688  0.01850  1.0000
  C   C4099     1.0  0.77251  0.58108  0.01376  1.0000
  H   H7024     1.0  0.77087  0.55814  0.03463  1.0000
  H   H7025     1.0  0.77895  0.56859  0.04314  1.0000
  H   H7026     1.0  0.77905  0.59496  0.01403  1.0000
  H   H7027     1.0  0.77037  0.58477  0.00576  1.0000
  C   C4100     1.0  0.75189  0.55687  0.08578  1.0000
  C   C4101     1.0  0.76284  0.55072  0.08312  1.0000
  C   C4102     1.0  0.76568  0.53954  0.08850  1.0000
  C   C4103     1.0  0.75765  0.53462  0.09674  1.0000
  C   C4104     1.0  0.74668  0.54075  0.09935  1.0000
  C   C4105     1.0  0.74375  0.55180  0.09370  1.0000
  H   H7028     1.0  0.76910  0.55452  0.07690  1.0000
  H   H7029     1.0  0.77416  0.53481  0.08648  1.0000
  H   H7030     1.0  0.74044  0.53696  0.10571  1.0000
  H   H7031     1.0  0.73526  0.55650  0.09573  1.0000
  C   C4106     1.0  0.76373  0.55751  0.16143  1.0000
  C   C4107     1.0  0.77391  0.54986  0.15953  1.0000
  C   C4108     1.0  0.77426  0.53981  0.15675  1.0000
  C   C4109     1.0  0.76453  0.53752  0.15542  1.0000
  C   C4110     1.0  0.75440  0.54524  0.15712  1.0000
  C   C4111     1.0  0.75398  0.55514  0.16022  1.0000
  H   H7032     1.0  0.78146  0.55152  0.16056  1.0000
  H   H7033     1.0  0.78212  0.53380  0.15559  1.0000
  H   H7034     1.0  0.74683  0.54342  0.15638  1.0000
  H   H7035     1.0  0.74603  0.56090  0.16171  1.0000
  C   C4112     1.0  0.80698  0.57404  0.11712  1.0000
  C   C4113     1.0  0.79603  0.57768  0.11523  1.0000
  C   C4114     1.0  0.79379  0.57666  0.10535  1.0000
  C   C4115     1.0  0.80248  0.57182  0.09750  1.0000
  C   C4116     1.0  0.81329  0.56807  0.09957  1.0000
  C   C4117     1.0  0.81554  0.56927  0.10923  1.0000
  H   H7036     1.0  0.78933  0.58122  0.12136  1.0000
  H   H7037     1.0  0.78535  0.57930  0.10394  1.0000
  H   H7038     1.0  0.82001  0.56419  0.09365  1.0000
  H   H7039     1.0  0.82400  0.56640  0.11062  1.0000
  C   C4118     1.0  0.72579  0.61542  0.09695  1.0000
  C   C4119     1.0  0.73127  0.62239  0.09930  1.0000
  C   C4120     1.0  0.74227  0.62309  0.09350  1.0000
  C   C4121     1.0  0.74797  0.61639  0.08579  1.0000
  C   C4122     1.0  0.74243  0.60946  0.08351  1.0000
  C   C4123     1.0  0.73130  0.60917  0.08886  1.0000
  H   H7040     1.0  0.72698  0.62731  0.10550  1.0000
  H   H7041     1.0  0.74639  0.62868  0.09513  1.0000
  H   H7042     1.0  0.74667  0.60427  0.07763  1.0000
  H   H7043     1.0  0.72709  0.60376  0.08703  1.0000
  C   C4124     1.0  0.71014  0.57513  0.15112  1.0000
  C   C4125     1.0  0.71669  0.56473  0.15507  1.0000
  C   C4126     1.0  0.71797  0.55558  0.15037  1.0000
  C   C4127     1.0  0.71248  0.55673  0.14189  1.0000
  C   C4128     1.0  0.70556  0.56699  0.13828  1.0000
  C   C4129     1.0  0.70454  0.57622  0.14274  1.0000
  H   H7044     1.0  0.72101  0.56382  0.16157  1.0000
  H   H7045     1.0  0.72325  0.54766  0.15327  1.0000
  H   H7046     1.0  0.70122  0.56790  0.13179  1.0000
  H   H7047     1.0  0.69938  0.58415  0.13973  1.0000
  C   C4130     1.0  0.73795  0.63069  0.14253  1.0000
  C   C4131     1.0  0.74407  0.63830  0.14253  1.0000
  C   C4132     1.0  0.75532  0.63472  0.14334  1.0000
  C   C4133     1.0  0.76051  0.62344  0.14446  1.0000
  C   C4134     1.0  0.75442  0.61572  0.14457  1.0000
  C   C4135     1.0  0.74318  0.61939  0.14337  1.0000
  H   H7048     1.0  0.74009  0.64704  0.14183  1.0000
  H   H7049     1.0  0.75998  0.64075  0.14315  1.0000
  H   H7050     1.0  0.75843  0.60699  0.14532  1.0000
  H   H7051     1.0  0.73855  0.61353  0.14315  1.0000
  C   C4136     1.0  0.82669  0.60433  0.18878  1.0000
  C   C4137     1.0  0.82686  0.60418  0.17778  1.0000
  C   C4138     1.0  0.81977  0.59864  0.17539  1.0000
  C   C4139     1.0  0.81230  0.59325  0.18400  1.0000
  C   C4140     1.0  0.81202  0.59357  0.19498  1.0000
  C   C4141     1.0  0.81907  0.59911  0.19735  1.0000
  H   H7052     1.0  0.83264  0.60823  0.17104  1.0000
  H   H7053     1.0  0.82023  0.59840  0.16691  1.0000
  H   H7054     1.0  0.80626  0.58950  0.20172  1.0000
  H   H7055     1.0  0.81860  0.59936  0.20584  1.0000
  C   C4142     1.0  0.65521  0.66881  0.14679  1.0000
  C   C4143     1.0  0.66663  0.66434  0.14672  1.0000
  C   C4144     1.0  0.67149  0.65337  0.14528  1.0000
  C   C4145     1.0  0.66486  0.64677  0.14412  1.0000
  C   C4146     1.0  0.65338  0.65117  0.14452  1.0000
  C   C4147     1.0  0.64859  0.66218  0.14573  1.0000
  H   H7056     1.0  0.67179  0.66942  0.14758  1.0000
  H   H7057     1.0  0.68034  0.65003  0.14501  1.0000
  H   H7058     1.0  0.64819  0.64606  0.14375  1.0000
  H   H7059     1.0  0.63974  0.66549  0.14597  1.0000
  C   C4148     1.0  0.62508  0.70782  0.09443  1.0000
  C   C4149     1.0  0.61787  0.71767  0.09699  1.0000
  H   H7060     1.0  0.66673  0.66409  0.12419  1.0000
  N   N294      1.0  0.65934  0.66500  0.11054  1.0000
  H   H7061     1.0  0.88321  0.60312  0.22861  1.0000
  C   C4150     1.0  0.63133  0.70782  0.08361  1.0000
  H   H7062     1.0  0.61292  0.71772  0.10526  1.0000
  H   H7063     1.0  0.59103  0.69711  0.10669  1.0000
  H   H7064     1.0  0.65733  0.71641  0.17101  1.0000
  H   H7065     1.0  0.63690  0.70023  0.08157  1.0000
  C   C4151     1.0  0.58032  0.70008  0.14874  1.0000
  C   C4152     1.0  0.58235  0.69801  0.13812  1.0000
  C   C4153     1.0  0.57342  0.70027  0.13277  1.0000
  C   C4154     1.0  0.56256  0.70517  0.13774  1.0000
  C   C4155     1.0  0.56058  0.70740  0.14827  1.0000
  C   C4156     1.0  0.56937  0.70451  0.15390  1.0000
  H   H7066     1.0  0.59076  0.69448  0.13414  1.0000
  H   H7067     1.0  0.57496  0.69839  0.12470  1.0000
  H   H7068     1.0  0.55224  0.71115  0.15220  1.0000
  H   H7069     1.0  0.56772  0.70600  0.16217  1.0000
  N   N295      1.0  0.80319  0.56260  0.99442  1.0000
  C   C4157     1.0  0.90240  0.57141  0.21199  1.0000
  H   H7070     1.0  0.59773  0.70969  0.06656  1.0000
  H   H7071     1.0  0.90962  0.60069  0.19964  1.0000
  H   H7072     1.0  0.73437  0.60885  0.16456  1.0000
  C   C4158     1.0  0.58861  0.71446  0.10677  1.0000
  H   H7073     1.0  0.50035  0.73651  0.12126  1.0000
  H   H7074     1.0  0.55199  0.72278  0.99268  1.0000
  H   H7075     1.0  0.51627  0.70394  0.16937  1.0000
  H   H7076     1.0  0.67200  0.54269  0.14787  1.0000
  C   C4159     1.0  0.89547  0.60170  0.21344  1.0000
  C   C4160     1.0  0.90666  0.60195  0.20806  1.0000
  C   C4161     1.0  0.91394  0.60429  0.21329  1.0000
  H   H7077     1.0  0.67506  0.71047  0.16146  1.0000
  C   C4162     1.0  0.51109  0.69998  0.16652  1.0000
  C   C4163     1.0  0.64697  0.66856  0.11521  1.0000
  C   C4164     1.0  0.63906  0.66484  0.11035  1.0000
  H   H7078     1.0  0.65882  0.64929  0.12251  1.0000
  H   H7079     1.0  0.65854  0.64868  0.10895  1.0000
  H   H7080     1.0  0.64507  0.66538  0.12436  1.0000
  H   H7081     1.0  0.63025  0.66827  0.11422  1.0000
  H   H7082     1.0  0.64004  0.66821  0.10129  1.0000
  H   H7083     1.0  0.64012  0.65566  0.11227  1.0000
  H   H7084     1.0  0.83136  0.55225  0.21639  1.0000
  H   H7085     1.0  0.94094  0.56916  0.21943  1.0000
  H   H7086     1.0  0.51017  0.72747  0.09471  1.0000
  H   H7087     1.0  0.57932  0.71619  0.10858  1.0000
  H   H7088     1.0  0.84201  0.54972  0.20488  1.0000
  H   H7089     1.0  0.64211  0.73820  0.08429  1.0000
  S   S1204     1.0  0.52794  0.72442  0.15242  1.0000
  H   H7090     1.0  0.86629  0.57743  0.22727  1.0000
  H   H7091     1.0  0.74491  0.58315  0.18338  1.0000
  C   C4165     1.0  0.53210  0.66862  0.15373  1.0000
  H   H7092     1.0  0.68269  0.51290  0.14488  1.0000
  H   H7093     1.0  0.67300  0.52909  0.15666  1.0000
  H   H7094     1.0  0.57065  0.73837  0.12550  1.0000
  H   H7095     1.0  0.74881  0.56977  0.03667  1.0000
  S   S1205     1.0  0.97641  0.60477  0.22611  1.0000
  H   H7096     1.0  0.93751  0.58230  0.21043  1.0000
  H   H7097     1.0  0.59111  0.71230  0.11488  1.0000
  H   H7098     1.0  0.51535  0.67860  0.15665  1.0000
  H   H7099     1.0  0.72187  0.61274  0.15942  1.0000
  H   H7100     1.0  0.90195  0.65087  0.19240  1.0000
  C   C4166     1.0  0.60938  0.69142  0.08308  1.0000
  C   C4167     1.0  0.72519  0.61003  0.16713  1.0000
  N   N296      1.0  0.73876  0.57804  0.11739  1.0000
  C   C4168     1.0  0.73537  0.56881  0.12699  1.0000
  C   C4169     1.0  0.74529  0.57336  0.10736  1.0000
  C   C4170     1.0  0.72819  0.58596  0.11460  1.0000
  C   C4171     1.0  0.74512  0.58455  0.12075  1.0000
  C   C4172     1.0  0.74342  0.56324  0.13500  1.0000
  C   C4173     1.0  0.75692  0.56592  0.10815  1.0000
  C   C4174     1.0  0.72040  0.58098  0.11082  1.0000
  C   C4175     1.0  0.74840  0.59483  0.11207  1.0000
  H   H7101     1.0  0.72733  0.57202  0.13238  1.0000
  H   H7102     1.0  0.73373  0.56207  0.12403  1.0000
  H   H7103     1.0  0.74622  0.58006  0.09976  1.0000
  H   H7104     1.0  0.74058  0.56814  0.10552  1.0000
  H   H7105     1.0  0.72312  0.58969  0.12182  1.0000
  H   H7106     1.0  0.73016  0.59309  0.10781  1.0000
  H   H7107     1.0  0.74002  0.58758  0.12836  1.0000
  H   H7108     1.0  0.75290  0.57929  0.12332  1.0000
  H   H7109     1.0  0.74065  0.55571  0.14052  1.0000
  H   H7110     1.0  0.75219  0.56054  0.13079  1.0000
  H   H7111     1.0  0.74306  0.56885  0.14043  1.0000
  H   H7112     1.0  0.75622  0.55779  0.11390  1.0000
  H   H7113     1.0  0.76118  0.56397  0.09990  1.0000
  H   H7114     1.0  0.76241  0.57006  0.11029  1.0000
  H   H7115     1.0  0.71231  0.58710  0.11053  1.0000
  H   H7116     1.0  0.71851  0.57317  0.11654  1.0000
  H   H7117     1.0  0.72400  0.57949  0.10230  1.0000
  H   H7118     1.0  0.74215  0.60253  0.11367  1.0000
  H   H7119     1.0  0.74914  0.59437  0.10341  1.0000
  H   H7120     1.0  0.75678  0.59560  0.11248  1.0000
  N   N297      1.0  0.78846  0.54147  0.11742  1.0000
  C   C4176     1.0  0.78439  0.54724  0.10684  1.0000
  C   C4177     1.0  0.77947  0.54503  0.12700  1.0000
  C   C4178     1.0  0.79069  0.52899  0.11909  1.0000
  C   C4179     1.0  0.79925  0.54469  0.11674  1.0000
  C   C4180     1.0  0.79151  0.54329  0.09622  1.0000
  C   C4181     1.0  0.77832  0.55693  0.12845  1.0000
  C   C4182     1.0  0.78062  0.52427  0.11937  1.0000
  C   C4183     1.0  0.80445  0.53994  0.12711  1.0000
  H   H7121     1.0  0.77570  0.54639  0.10759  1.0000
  H   H7122     1.0  0.78391  0.55637  0.10514  1.0000
  H   H7123     1.0  0.78072  0.53920  0.13495  1.0000
  H   H7124     1.0  0.77108  0.54446  0.12631  1.0000
  H   H7125     1.0  0.79783  0.52594  0.11259  1.0000
  H   H7126     1.0  0.79336  0.52487  0.12708  1.0000
  H   H7127     1.0  0.80584  0.54193  0.10973  1.0000
  H   H7128     1.0  0.79833  0.55386  0.11463  1.0000
  H   H7129     1.0  0.79147  0.53454  0.09654  1.0000
  H   H7130     1.0  0.78782  0.54849  0.08906  1.0000
  H   H7131     1.0  0.80025  0.54439  0.09434  1.0000
  H   H7132     1.0  0.78560  0.55764  0.13124  1.0000
  H   H7133     1.0  0.77726  0.56326  0.12076  1.0000
  H   H7134     1.0  0.77082  0.55893  0.13505  1.0000
  H   H7135     1.0  0.81075  0.53208  0.12627  1.0000
  H   H7136     1.0  0.80863  0.54614  0.12807  1.0000
  N   N298      1.0  0.69539  0.52034  0.14655  1.0000
  C   C4184     1.0  0.68774  0.53136  0.14289  1.0000
  C   C4185     1.0  0.70499  0.51861  0.13680  1.0000
  C   C4186     1.0  0.69982  0.52143  0.15592  1.0000
  C   C4187     1.0  0.68879  0.51125  0.15026  1.0000
  H   H7137     1.0  0.87686  0.62272  0.20932  1.0000
  H   H7138     1.0  0.71545  0.50835  0.15485  1.0000
  S   S1206     1.0  0.83507  0.60794  0.22429  1.0000
  H   H7139     1.0  0.86228  0.54463  0.22345  1.0000
  H   H7140     1.0  0.69259  0.53810  0.13925  1.0000
  H   H7141     1.0  0.68391  0.53097  0.13619  1.0000
  H   H7142     1.0  0.71138  0.51101  0.13885  1.0000
  H   H7143     1.0  0.70956  0.52549  0.13444  1.0000
  H   H7144     1.0  0.70416  0.52856  0.15319  1.0000
  C   C4188     1.0  0.81311  0.55361  0.99107  1.0000
  H   H7145     1.0  0.68367  0.51130  0.15882  1.0000
  H   H7146     1.0  0.67203  0.71743  0.14805  1.0000
  S   S1207     1.0  0.76984  0.58133  0.98334  1.0000
  H   H7147     1.0  0.82298  0.57021  0.20107  1.0000
  H   H7148     1.0  0.69494  0.49646  0.14275  1.0000
  S   S1208     1.0  0.52277  0.72841  0.12777  1.0000
  C   C4189     1.0  0.83408  0.57437  0.21427  1.0000
  H   H7149     1.0  0.50654  0.71397  0.13399  1.0000
  H   H7150     1.0  0.60496  0.72041  0.06421  1.0000
  H   H7151     1.0  0.54646  0.67591  0.16005  1.0000
  H   H7152     1.0  0.71452  0.49248  0.11765  1.0000
  Fe  Fe600     1.0  0.51304  0.73147  0.14438  1.0000
  H   H7153     1.0  0.70365  0.50421  0.16552  1.0000
  H   H7154     1.0  0.55239  0.68741  0.15851  1.0000
  N   N299      1.0  0.73990  0.58401  0.04414  1.0000
  C   C4190     1.0  0.74353  0.57158  0.04472  1.0000
  C   C4191     1.0  0.73142  0.58854  0.03686  1.0000
  C   C4192     1.0  0.73466  0.58582  0.05578  1.0000
  C   C4193     1.0  0.75018  0.58893  0.03938  1.0000
  C   C4194     1.0  0.52236  0.68888  0.13368  1.0000
  H   H7155     1.0  0.74475  0.59546  0.17338  1.0000
  C   C4195     1.0  0.72648  0.59704  0.05702  1.0000
  C   C4196     1.0  0.74852  0.60171  0.03681  1.0000
  H   H7156     1.0  0.60307  0.70273  0.10077  1.0000
  H   H7157     1.0  0.69628  0.51213  0.12783  1.0000
  H   H7158     1.0  0.72783  0.59754  0.03644  1.0000
  H   H7159     1.0  0.72409  0.58450  0.04050  1.0000
  H   H7160     1.0  0.72977  0.57934  0.06060  1.0000
  H   H7161     1.0  0.74129  0.58486  0.06036  1.0000
  H   H7162     1.0  0.55611  0.72750  0.09772  1.0000
  H   H7163     1.0  0.89726  0.57763  0.21692  1.0000
  H   H7164     1.0  0.60667  0.71343  0.08240  1.0000
  H   H7165     1.0  0.73613  0.56781  0.04628  1.0000
  H   H7166     1.0  0.69170  0.49337  0.15740  1.0000
  H   H7167     1.0  0.89074  0.62439  0.20392  1.0000
  H   H7168     1.0  0.82802  0.56729  0.23207  1.0000
  C   C4197     1.0  0.61357  0.73469  0.15227  1.0000
  H   H7169     1.0  0.72436  0.59760  0.06589  1.0000
  H   H7170     1.0  0.71848  0.59757  0.05474  1.0000
  H   H7171     1.0  0.73003  0.60434  0.05221  1.0000
  H   H7172     1.0  0.75613  0.58573  0.04505  1.0000
  S   S1209     1.0  0.56874  0.73703  0.07697  1.0000
  C   C4198     1.0  0.88189  0.62884  0.20392  1.0000
  H   H7173     1.0  0.71102  0.51343  0.16726  1.0000
  H   H7174     1.0  0.88391  0.65502  0.20476  1.0000
  C   C4199     1.0  0.88007  0.63061  0.19208  1.0000
  H   H7175     1.0  0.69288  0.52331  0.16304  1.0000
  H   H7176     1.0  0.72031  0.58603  0.19480  1.0000
  H   H7177     1.0  0.64926  0.70733  0.14010  1.0000
  H   H7178     1.0  0.64740  0.72979  0.14576  1.0000
  C   C4200     1.0  0.65741  0.71815  0.16199  1.0000
  H   H7179     1.0  0.52771  0.66393  0.15074  1.0000
  C   C4201     1.0  0.91085  0.57328  0.23175  1.0000
  H   H7180     1.0  0.88243  0.64352  0.22231  1.0000
  H   H7181     1.0  0.50883  0.69754  0.15154  1.0000
  C   C4202     1.0  0.73577  0.58711  0.02473  1.0000
  C   C4203     1.0  0.62311  0.72745  0.07790  1.0000
  H   H7182     1.0  0.64617  0.72971  0.09669  1.0000
  H   H7183     1.0  0.70954  0.57364  0.19473  1.0000
  C   C4204     1.0  0.64708  0.70370  0.16254  1.0000
  H   H7184     1.0  0.68072  0.53878  0.15765  1.0000
  C   C4205     1.0  0.72077  0.59968  0.17459  1.0000
  H   H7185     1.0  0.51380  0.69412  0.13486  1.0000
  H   H7186     1.0  0.75389  0.55620  0.05214  1.0000
  H   H7187     1.0  0.59402  0.72321  0.08417  1.0000
  H   H7188     1.0  0.91798  0.64111  0.23188  1.0000
  H   H7189     1.0  0.63776  0.71779  0.17671  1.0000
  H   H7190     1.0  0.58314  0.72468  0.17025  1.0000
  H   H7191     1.0  0.61322  0.69709  0.07567  1.0000
  H   H7192     1.0  0.74098  0.60621  0.03347  1.0000
  H   H7193     1.0  0.75565  0.60419  0.03014  1.0000
  H   H7194     1.0  0.86552  0.66131  0.21092  1.0000
  C   C4206     1.0  0.53002  0.69181  0.13951  1.0000
  H   H7195     1.0  0.61319  0.69073  0.09012  1.0000
  S   S1210     1.0  0.73349  0.49033  0.14738  1.0000
  H   H7196     1.0  0.74283  0.59132  0.02034  1.0000
  H   H7197     1.0  0.53938  0.67049  0.14707  1.0000
  H   H7198     1.0  0.79141  0.54373  0.99265  1.0000
  H   H7199     1.0  0.51005  0.69190  0.17220  1.0000
  C   C4207     1.0  0.73362  0.58285  0.16847  1.0000
  H   H7200     1.0  0.52297  0.67744  0.16672  1.0000
  H   H7201     1.0  0.73963  0.57505  0.17109  1.0000
  C   C4208     1.0  0.73918  0.58903  0.15707  1.0000
  H   H7202     1.0  0.64125  0.69939  0.18076  1.0000
  H   H7203     1.0  0.78783  0.58315  0.99176  1.0000
  C   C4209     1.0  0.65222  0.71501  0.13917  1.0000
  H   H7204     1.0  0.89946  0.50733  0.22117  1.0000
  C   C4210     1.0  0.88245  0.63593  0.21959  1.0000
  C   C4211     1.0  0.67784  0.53555  0.15192  1.0000
  N   N300      1.0  0.64705  0.71596  0.16009  1.0000
  H   H7205     1.0  0.51708  0.70742  0.14950  1.0000
  H   H7206     1.0  0.61167  0.68304  0.08109  1.0000
  N   N301      1.0  0.58127  0.73858  0.14283  1.0000
  H   H7207     1.0  0.90474  0.55678  0.22484  1.0000
  H   H7208     1.0  0.62919  0.71924  0.16729  1.0000
  H   H7209     1.0  0.73829  0.57823  0.02413  1.0000
  C   C4212     1.0  0.83592  0.55664  0.20840  1.0000
  H   H7210     1.0  0.79930  0.58698  0.99464  1.0000
  N   N302      1.0  0.87907  0.63916  0.20855  1.0000
  H   H7211     1.0  0.88542  0.63594  0.18582  1.0000
  H   H7212     1.0  0.86163  0.63762  0.21410  1.0000
  H   H7213     1.0  0.90713  0.57565  0.20408  1.0000
  H   H7214     1.0  0.89653  0.56775  0.20974  1.0000
  C   C4213     1.0  0.73634  0.59794  0.18975  1.0000
  H   H7215     1.0  0.72518  0.49968  0.12680  1.0000
  H   H7216     1.0  0.84441  0.58613  0.19429  1.0000
  C   C4214     1.0  0.64864  0.69705  0.17420  1.0000
  C   C4215     1.0  0.84598  0.57839  0.19122  1.0000
  H   H7217     1.0  0.82976  0.58000  0.20781  1.0000
  H   H7218     1.0  0.70153  0.55755  0.98803  1.0000
  C   C4216     1.0  0.82471  0.57183  0.22454  1.0000
  C   C4217     1.0  0.57849  0.72913  0.13984  1.0000
  C   C4218     1.0  0.70179  0.51805  0.12620  1.0000
  C   C4219     1.0  0.70793  0.51117  0.16101  1.0000
  H   H7219     1.0  0.72206  0.61716  0.17135  1.0000
  H   H7220     1.0  0.83833  0.57791  0.18897  1.0000
  C   C4220     1.0  0.54460  0.72543  0.98880  1.0000
  H   H7221     1.0  0.53858  0.68703  0.13681  1.0000
  H   H7222     1.0  0.52592  0.69043  0.12461  1.0000
  N   N303      1.0  0.84201  0.56441  0.21022  1.0000
  H   H7223     1.0  0.66904  0.70388  0.15491  1.0000
  C   C4221     1.0  0.85034  0.56812  0.19977  1.0000
  C   C4222     1.0  0.91016  0.56204  0.21860  1.0000
  H   H7224     1.0  0.83881  0.57955  0.21618  1.0000
  H   H7225     1.0  0.54060  0.73408  0.98990  1.0000
  H   H7226     1.0  0.80891  0.54719  0.01444  1.0000
  H   H7227     1.0  0.85736  0.57030  0.20184  1.0000
  H   H7228     1.0  0.71677  0.57113  0.18140  1.0000
  H   H7229     1.0  0.61351  0.72599  0.15368  1.0000
  H   H7230     1.0  0.81917  0.56724  0.22305  1.0000
  C   C4223     1.0  0.80346  0.56454  0.00544  1.0000
  H   H7231     1.0  0.57826  0.71094  0.08099  1.0000
  H   H7232     1.0  0.92930  0.56747  0.20784  1.0000
  C   C4224     1.0  0.57967  0.70979  0.08948  1.0000
  C   C4225     1.0  0.79084  0.54780  0.99949  1.0000
  C   C4226     1.0  0.86202  0.65391  0.21566  1.0000
  H   H7233     1.0  0.62584  0.73802  0.09951  1.0000
  H   H7234     1.0  0.81256  0.62802  0.14667  1.0000
  H   H7235     1.0  0.90739  0.63672  0.22786  1.0000
  C   C4227     1.0  0.85792  0.54808  0.21641  1.0000
  H   H7236     1.0  0.70009  0.57030  0.99189  1.0000
  C   C4228     1.0  0.79213  0.56004  0.99479  1.0000
  H   H7237     1.0  0.71503  0.59801  0.17032  1.0000
  H   H7238     1.0  0.65372  0.69931  0.15664  1.0000
  H   H7239     1.0  0.87116  0.63402  0.19158  1.0000
  C   C4229     1.0  0.75025  0.56474  0.05368  1.0000
  H   H7240     1.0  0.57705  0.72021  0.16172  1.0000
  H   H7241     1.0  0.86444  0.64719  0.20144  1.0000
  H   H7242     1.0  0.63551  0.71769  0.06710  1.0000
  H   H7243     1.0  0.56335  0.70566  0.09663  1.0000
  H   H7244     1.0  0.85432  0.56121  0.19528  1.0000
  H   H7245     1.0  0.57626  0.71812  0.09159  1.0000
  C   C4230     1.0  0.64302  0.73846  0.09260  1.0000
  N   N304      1.0  0.77788  0.61701  0.10628  1.0000
  C   C4231     1.0  0.78896  0.61778  0.10792  1.0000
  C   C4232     1.0  0.77396  0.62713  0.09781  1.0000
  C   C4233     1.0  0.77901  0.60669  0.10213  1.0000
  C   C4234     1.0  0.76964  0.61646  0.11728  1.0000
  C   C4235     1.0  0.79497  0.60751  0.11537  1.0000
  C   C4236     1.0  0.77048  0.63836  0.10149  1.0000
  C   C4237     1.0  0.78805  0.60521  0.09150  1.0000
  C   C4238     1.0  0.75732  0.61734  0.11693  1.0000
  H   H7246     1.0  0.79492  0.61951  0.09981  1.0000
  H   H7247     1.0  0.78788  0.62493  0.11178  1.0000
  H   H7248     1.0  0.76678  0.62619  0.09500  1.0000
  H   H7249     1.0  0.78062  0.62813  0.09013  1.0000
  H   H7250     1.0  0.78066  0.59906  0.10866  1.0000
  H   H7251     1.0  0.77102  0.60652  0.10024  1.0000
  H   H7252     1.0  0.77215  0.60853  0.12319  1.0000
  H   H7253     1.0  0.76975  0.62314  0.12129  1.0000
  H   H7254     1.0  0.78998  0.60584  0.12397  1.0000
  H   H7255     1.0  0.79727  0.59994  0.11189  1.0000
  H   H7256     1.0  0.80294  0.60913  0.11595  1.0000
  H   H7257     1.0  0.77747  0.64038  0.10366  1.0000
  H   H7258     1.0  0.76801  0.64510  0.09446  1.0000
  H   H7259     1.0  0.76309  0.63866  0.10849  1.0000
  H   H7260     1.0  0.78639  0.61211  0.08433  1.0000
  H   H7261     1.0  0.78789  0.59748  0.08919  1.0000
  H   H7262     1.0  0.79663  0.60423  0.09267  1.0000
  H   H7263     1.0  0.75395  0.61057  0.12338  1.0000
  H   H7264     1.0  0.75611  0.61665  0.10897  1.0000
  H   H7265     1.0  0.75196  0.62528  0.11902  1.0000
  N   N305      1.0  0.79061  0.62674  0.16972  1.0000
  C   C4239     1.0  0.77974  0.63505  0.17220  1.0000
  C   C4240     1.0  0.79801  0.62689  0.17710  1.0000
  C   C4241     1.0  0.78865  0.61514  0.17201  1.0000
  C   C4242     1.0  0.79594  0.62993  0.15760  1.0000
  C   C4243     1.0  0.77044  0.63517  0.16647  1.0000
  C   C4244     1.0  0.80331  0.63716  0.17397  1.0000
  C   C4245     1.0  0.78250  0.61077  0.18394  1.0000
  H   H7266     1.0  0.77613  0.63379  0.18128  1.0000
  H   H7267     1.0  0.78122  0.64367  0.16971  1.0000
  H   H7268     1.0  0.80491  0.61935  0.17760  1.0000
  H   H7269     1.0  0.79325  0.62643  0.18585  1.0000
  H   H7270     1.0  0.78396  0.61443  0.16613  1.0000
  H   H7271     1.0  0.79675  0.60908  0.17042  1.0000
  H   H7272     1.0  0.79060  0.62920  0.15234  1.0000
  H   H7273     1.0  0.79641  0.63889  0.15506  1.0000
  H   H7274     1.0  0.77291  0.63765  0.15731  1.0000
  H   H7275     1.0  0.76783  0.62708  0.16881  1.0000
  H   H7276     1.0  0.76288  0.64146  0.16911  1.0000
  H   H7277     1.0  0.80946  0.63751  0.16593  1.0000
  H   H7278     1.0  0.78154  0.60220  0.18466  1.0000
  H   H7279     1.0  0.77396  0.61586  0.18609  1.0000
  H   H7280     1.0  0.78741  0.61013  0.19013  1.0000
  C   C4246     1.0  0.59648  0.69511  0.08598  1.0000
  C   C4247     1.0  0.54680  0.68444  0.15513  1.0000
  H   H7281     1.0  0.69779  0.52641  0.12196  1.0000
  H   H7282     1.0  0.59344  0.68827  0.09265  1.0000
  C   C4248     1.0  0.57219  0.70193  0.09736  1.0000
  C   C4249     1.0  0.59744  0.71722  0.06939  1.0000
  H   H7283     1.0  0.74472  0.56378  0.06207  1.0000
  H   H7284     1.0  0.79690  0.64505  0.17375  1.0000
  Fe  Fe601     1.0  0.53791  0.72291  0.13533  1.0000
  H   H7285     1.0  0.81936  0.57985  0.22641  1.0000
  S   S1211     1.0  0.94964  0.59376  0.22466  1.0000
  H   H7286     1.0  0.64416  0.67772  0.11413  1.0000
  N   N306      1.0  0.72933  0.58920  0.17764  1.0000
  H   H7287     1.0  0.91979  0.58010  0.21016  1.0000
  H   H7288     1.0  0.88227  0.65128  0.19310  1.0000
  H   H7289     1.0  0.67594  0.63772  0.11379  1.0000
  H   H7290     1.0  0.74637  0.59221  0.15733  1.0000
  H   H7291     1.0  0.86436  0.55043  0.20893  1.0000
  C   C4250     1.0  0.63487  0.73401  0.16635  1.0000
  C   C4251     1.0  0.63053  0.71768  0.07543  1.0000
  H   H7292     1.0  0.80802  0.63655  0.18034  1.0000
  H   H7293     1.0  0.81272  0.61956  0.16005  1.0000
  C   C4252     1.0  0.67496  0.64693  0.11151  1.0000
  C   C4253     1.0  0.73923  0.59123  0.18062  1.0000
  H   H7294     1.0  0.57374  0.72370  0.12747  1.0000
  H   H7295     1.0  0.52186  0.67999  0.13639  1.0000
  H   H7296     1.0  0.78512  0.56540  0.99956  1.0000
  H   H7297     1.0  0.58500  0.73075  0.12180  1.0000
  H   H7298     1.0  0.83218  0.56161  0.19171  1.0000
  H   H7299     1.0  0.74257  0.58306  0.15146  1.0000
  H   H7300     1.0  0.79045  0.56224  0.98630  1.0000
  C   C4254     1.0  0.59396  0.70454  0.10099  1.0000
  H   H7301     1.0  0.57241  0.70090  0.10616  1.0000
  C   C4255     1.0  0.80763  0.62281  0.15366  1.0000
  H   H7302     1.0  0.65906  0.66371  0.09402  1.0000
  H   H7303     1.0  0.65380  0.68203  0.12415  1.0000
  C   C4256     1.0  0.80231  0.55476  0.01552  1.0000
  H   H7304     1.0  0.86334  0.65170  0.22425  1.0000
  H   H7305     1.0  0.72682  0.58009  0.16681  1.0000
  H   H7306     1.0  0.70446  0.49757  0.15040  1.0000
  H   H7307     1.0  0.85279  0.65640  0.21634  1.0000
  C   C4257     1.0  0.66609  0.66937  0.11583  1.0000
  C   C4258     1.0  0.66231  0.66851  0.09807  1.0000
  H   H7308     1.0  0.67934  0.64898  0.11688  1.0000
  H   H7309     1.0  0.66549  0.68546  0.09191  1.0000
  C   C4259     1.0  0.89175  0.60340  0.22430  1.0000
  C   C4260     1.0  0.58608  0.73380  0.15313  1.0000
  C   C4261     1.0  0.72312  0.49162  0.13039  1.0000
  H   H7310     1.0  0.63913  0.70250  0.16135  1.0000
  H   H7311     1.0  0.80684  0.61565  0.15080  1.0000
  C   C4262     1.0  0.66166  0.68138  0.11770  1.0000
  H   H7312     1.0  0.67925  0.64907  0.10270  1.0000
  H   H7313     1.0  0.65082  0.68532  0.09750  1.0000
  H   H7314     1.0  0.65716  0.68190  0.08456  1.0000
  H   H7315     1.0  0.65075  0.72036  0.13105  1.0000
  C   C4263     1.0  0.52375  0.67889  0.15760  1.0000
  H   H7316     1.0  0.93064  0.55100  0.22296  1.0000
  H   H7317     1.0  0.53657  0.70097  0.15264  1.0000
  C   C4264     1.0  0.65876  0.68100  0.09289  1.0000
  H   H7318     1.0  0.67488  0.66882  0.11097  1.0000
  H   H7319     1.0  0.66787  0.68359  0.12094  1.0000
  C   C4265     1.0  0.71386  0.57762  0.18643  1.0000
  S   S1212     1.0  0.76703  0.55559  0.98584  1.0000
  H   H7320     1.0  0.67154  0.66628  0.09500  1.0000
  H   H7321     1.0  0.81134  0.56717  0.00483  1.0000
  S   S1213     1.0  0.86019  0.60092  0.23065  1.0000
  N   N307      1.0  0.52637  0.69019  0.15198  1.0000
  H   H7322     1.0  0.66036  0.68765  0.11007  1.0000
  H   H7323     1.0  0.91545  0.55652  0.21287  1.0000
  H   H7324     1.0  0.78226  0.54774  0.00465  1.0000
  H   H7325     1.0  0.53543  0.66278  0.16085  1.0000
  N   N308      1.0  0.59197  0.70611  0.08953  1.0000
  H   H7326     1.0  0.59322  0.69505  0.07877  1.0000
  Fe  Fe602     1.0  0.84786  0.61654  0.22581  1.0000
  C   C4266     1.0  0.59779  0.71503  0.08177  1.0000
  C   C4267     1.0  0.53519  0.69239  0.15651  1.0000
  H   H7327     1.0  0.63350  0.73849  0.15796  1.0000
  H   H7328     1.0  0.53068  0.70063  0.13570  1.0000
  H   H7329     1.0  0.79648  0.57144  0.00789  1.0000
  H   H7330     1.0  0.80317  0.55728  0.02285  1.0000
  H   H7331     1.0  0.79383  0.55291  0.01768  1.0000
  H   H7332     1.0  0.85253  0.57923  0.18346  1.0000
  H   H7333     1.0  0.53835  0.72024  0.99327  1.0000
  H   H7334     1.0  0.64945  0.68807  0.17455  1.0000
  H   H7335     1.0  0.81309  0.54557  0.99710  1.0000
  H   H7336     1.0  0.72892  0.59103  0.02013  1.0000
  C   C4268     1.0  0.93387  0.57621  0.21758  1.0000
  H   H7337     1.0  0.58520  0.72147  0.14104  1.0000
  C   C4269     1.0  0.89826  0.64376  0.19778  1.0000
  C   C4270     1.0  0.51581  0.69899  0.15430  1.0000
  H   H7338     1.0  0.73294  0.59579  0.15321  1.0000
  C   C4271     1.0  0.90939  0.64350  0.23032  1.0000
  H   H7339     1.0  0.88802  0.51909  0.22368  1.0000
  H   H7340     1.0  0.93043  0.58045  0.22466  1.0000
  C   C4272     1.0  0.92487  0.57237  0.21436  1.0000
  H   H7341     1.0  0.53907  0.73536  0.11003  1.0000
  H   H7342     1.0  0.73313  0.59300  0.19802  1.0000
  H   H7343     1.0  0.90210  0.64084  0.20516  1.0000
  H   H7344     1.0  0.53241  0.69198  0.16558  1.0000
  H   H7345     1.0  0.71519  0.60234  0.18220  1.0000
  H   H7346     1.0  0.70751  0.58448  0.18284  1.0000
  C   C4273     1.0  0.66890  0.71214  0.15616  1.0000
  S   S1214     1.0  0.91799  0.61227  0.22948  1.0000
  H   H7347     1.0  0.65748  0.72719  0.15919  1.0000
  H   H7348     1.0  0.59160  0.72213  0.10199  1.0000
  C   C4274     1.0  0.69555  0.49915  0.15008  1.0000
  H   H7349     1.0  0.73027  0.60592  0.18796  1.0000
  H   H7350     1.0  0.74413  0.60000  0.19029  1.0000
  H   H7351     1.0  0.85455  0.54129  0.21552  1.0000
  C   C4275     1.0  0.72375  0.58172  0.18775  1.0000
  H   H7352     1.0  0.65638  0.69783  0.17608  1.0000
  H   H7353     1.0  0.72997  0.57413  0.19063  1.0000
  H   H7354     1.0  0.90076  0.63713  0.19296  1.0000
  H   H7355     1.0  0.81326  0.57451  0.98408  1.0000
  H   H7356     1.0  0.66134  0.71295  0.13868  1.0000
  C   C4276     1.0  0.80456  0.57320  0.98579  1.0000
  H   H7357     1.0  0.89122  0.63093  0.21889  1.0000
  C   C4277     1.0  0.64548  0.72133  0.14841  1.0000
  H   H7358     1.0  0.55099  0.68435  0.14636  1.0000
  H   H7359     1.0  0.57060  0.73323  0.16629  1.0000
  C   C4278     1.0  0.91011  0.60637  0.22400  1.0000
  H   H7360     1.0  0.88244  0.62238  0.18972  1.0000
  C   C4279     1.0  0.86666  0.64406  0.20972  1.0000
  C   C4280     1.0  0.63701  0.72121  0.16793  1.0000
  H   H7361     1.0  0.63655  0.72257  0.14802  1.0000
  H   H7362     1.0  0.70955  0.51519  0.12024  1.0000
  C   C4281     1.0  0.57692  0.73081  0.12794  1.0000
  H   H7363     1.0  0.90960  0.65049  0.22293  1.0000
  H   H7364     1.0  0.82120  0.55669  0.20272  1.0000
  C   C4282     1.0  0.79661  0.58407  0.98855  1.0000
  H   H7365     1.0  0.58982  0.72349  0.06755  1.0000
  H   H7366     1.0  0.90217  0.52061  0.22016  1.0000
  Fe  Fe603     1.0  0.84825  0.59249  0.22764  1.0000
  H   H7367     1.0  0.50337  0.71765  0.10484  1.0000
  S   S1215     1.0  0.62380  0.73367  0.13058  1.0000
  H   H7368     1.0  0.84291  0.55491  0.22699  1.0000
  H   H7369     1.0  0.87007  0.62473  0.22658  1.0000
  C   C4283     1.0  0.87504  0.62910  0.22918  1.0000
  C   C4284     1.0  0.92503  0.55579  0.22922  1.0000
  C   C4285     1.0  0.89904  0.60574  0.22953  1.0000
  H   H7370     1.0  0.61096  0.73492  0.09062  1.0000
  H   H7371     1.0  0.82105  0.55580  0.99105  1.0000
  H   H7372     1.0  0.49869  0.70583  0.12305  1.0000
  H   H7373     1.0  0.90849  0.58199  0.22710  1.0000
  H   H7374     1.0  0.85252  0.56389  0.22116  1.0000
  H   H7375     1.0  0.59832  0.73700  0.13315  1.0000
  H   H7376     1.0  0.88395  0.56360  0.22834  1.0000
  H   H7377     1.0  0.54413  0.70393  0.98750  1.0000
  H   H7378     1.0  0.64168  0.73665  0.16819  1.0000
  H   H7379     1.0  0.50951  0.72620  0.10934  1.0000
  C   C4286     1.0  0.55187  0.73606  0.09525  1.0000
  C   C4287     1.0  0.89658  0.51477  0.22490  1.0000
  H   H7380     1.0  0.76480  0.49060  0.12143  1.0000
  C   C4288     1.0  0.57864  0.72769  0.16332  1.0000
  C   C4289     1.0  0.50484  0.72621  0.10319  1.0000
  H   H7381     1.0  0.62708  0.73684  0.17232  1.0000
  C   C4290     1.0  0.99006  0.62358  0.24364  1.0000
  C   C4291     1.0  0.99214  0.60769  0.23563  1.0000
  S   S1216     1.0  0.96006  0.58477  0.24706  1.0000
  C   C4292     1.0  0.87113  0.71655  0.39696  1.0000
  S   S1217     1.0  0.93294  0.58813  0.24956  1.0000
  Fe  Fe604     1.0  0.94440  0.59464  0.25560  1.0000
  S   S1218     1.0  0.94316  0.59406  0.27350  1.0000
  H   H7382     1.0  0.89892  0.56177  0.24045  1.0000
  C   C4293     1.0  0.92195  0.73641  0.47474  1.0000
  C   C4294     1.0  0.85527  0.68729  0.32232  1.0000
  Fe  Fe605     1.0  0.88050  0.54983  0.28165  1.0000
  S   S1219     1.0  0.89505  0.55147  0.26722  1.0000
  S   S1220     1.0  0.87004  0.56624  0.28595  1.0000
  Fe  Fe606     1.0  0.88412  0.52460  0.28337  1.0000
  S   S1221     1.0  0.89920  0.52447  0.26935  1.0000
  S   S1222     1.0  0.87981  0.50759  0.29089  1.0000
  Fe  Fe607     1.0  0.90397  0.53588  0.27695  1.0000
  S   S1223     1.0  0.92195  0.53326  0.27791  1.0000
  Fe  Fe608     1.0  0.88892  0.53992  0.26102  1.0000
  H   H7383     1.0  0.90701  0.70074  0.47512  1.0000
  S   S1224     1.0  0.88984  0.53476  0.29195  1.0000
  S   S1225     1.0  0.87341  0.53956  0.27448  1.0000
  C   C4295     1.0  0.85121  0.70874  0.41166  1.0000
  Fe  Fe609     1.0  0.87422  0.63829  0.30954  1.0000
  S   S1226     1.0  0.87767  0.64687  0.29154  1.0000
  S   S1227     1.0  0.87015  0.64685  0.32438  1.0000
  Fe  Fe610     1.0  0.88121  0.61501  0.30346  1.0000
  S   S1228     1.0  0.88602  0.62200  0.28526  1.0000
  S   S1229     1.0  0.88474  0.59621  0.30963  1.0000
  Fe  Fe611     1.0  0.89328  0.63359  0.29026  1.0000
  S   S1230     1.0  0.90951  0.63863  0.28123  1.0000
  Fe  Fe612     1.0  0.86988  0.63456  0.28792  1.0000
  S   S1231     1.0  0.85948  0.64069  0.27444  1.0000
  S   S1232     1.0  0.89025  0.62534  0.30823  1.0000
  S   S1233     1.0  0.86462  0.62717  0.30625  1.0000
  Fe  Fe613     1.0  0.87708  0.70285  0.36438  1.0000
  S   S1234     1.0  0.88139  0.68426  0.36668  1.0000
  S   S1235     1.0  0.85880  0.71111  0.36675  1.0000
  Fe  Fe614     1.0  0.90151  0.70492  0.35704  1.0000
  S   S1236     1.0  0.90781  0.68643  0.35822  1.0000
  S   S1237     1.0  0.91053  0.71921  0.35244  1.0000
  Fe  Fe615     1.0  0.89356  0.68695  0.35033  1.0000
  S   S1238     1.0  0.89423  0.67984  0.33529  1.0000
  Fe  Fe616     1.0  0.89495  0.68533  0.37437  1.0000
  S   S1239     1.0  0.89803  0.67341  0.39034  1.0000
  S   S1240     1.0  0.88853  0.70570  0.34770  1.0000
  S   S1241     1.0  0.88942  0.70366  0.37354  1.0000
  H   H7384     1.0  0.81836  0.60219  0.26211  1.0000
  H   H7385     1.0  0.84347  0.60713  0.26933  1.0000
  H   H7386     1.0  0.96244  0.63473  0.26812  1.0000
  C   C4296     1.0  0.82629  0.60125  0.26474  1.0000
  H   H7387     1.0  0.99580  0.73906  0.39619  1.0000
  C   C4297     1.0  0.86256  0.69663  0.42491  1.0000
  H   H7388     1.0  0.89323  0.65286  0.23684  1.0000
  H   H7389     1.0  0.85309  0.58585  0.25192  1.0000
  S   S1242     1.0  0.97167  0.72821  0.38291  1.0000
  Fe  Fe617     1.0  0.88641  0.70850  0.46126  1.0000
  S   S1243     1.0  0.88059  0.72579  0.45186  1.0000
  Fe  Fe618     1.0  0.89648  0.69976  0.43987  1.0000
  S   S1244     1.0  0.89186  0.71640  0.42891  1.0000
  S   S1245     1.0  0.90561  0.68460  0.43276  1.0000
  Fe  Fe619     1.0  0.89749  0.72288  0.44062  1.0000
  H   H7390     1.0  0.83248  0.58603  0.25882  1.0000
  Fe  Fe620     1.0  0.87542  0.71768  0.44116  1.0000
  H   H7391     1.0  0.93109  0.68422  0.42485  1.0000
  S   S1246     1.0  0.90374  0.70607  0.45063  1.0000
  S   S1247     1.0  0.87962  0.70048  0.45153  1.0000
  Fe  Fe621     1.0  0.93423  0.60261  0.23504  1.0000
  C   C4298     1.0  0.93807  0.71833  0.42817  1.0000
  C   C4299     1.0  0.92650  0.72149  0.43226  1.0000
  H   H7392     1.0  0.95669  0.53960  0.25154  1.0000
  H   H7393     1.0  0.84081  0.64973  0.24355  1.0000
  C   C4300     1.0  0.83226  0.58885  0.26639  1.0000
  H   H7394     1.0  0.94231  0.70969  0.42997  1.0000
  H   H7395     1.0  0.92187  0.71525  0.43722  1.0000
  C   C4301     1.0  0.91825  0.55537  0.29055  1.0000
  H   H7396     1.0  0.86867  0.72499  0.37443  1.0000
  H   H7397     1.0  0.89843  0.72650  0.46346  1.0000
  C   C4302     1.0  0.87814  0.50805  0.24391  1.0000
  H   H7398     1.0  0.94644  0.56196  0.28391  1.0000
  C   C4303     1.0  0.92208  0.71898  0.35785  1.0000
  C   C4304     1.0  0.93043  0.70934  0.35952  1.0000
  C   C4305     1.0  0.94029  0.70980  0.36228  1.0000
  C   C4306     1.0  0.94175  0.71979  0.36378  1.0000
  C   C4307     1.0  0.93314  0.72930  0.36271  1.0000
  C   C4308     1.0  0.92345  0.72894  0.35955  1.0000
  H   H7399     1.0  0.92956  0.70166  0.35811  1.0000
  C   C4309     1.0  0.90075  0.64774  0.24013  1.0000
  C   C4310     1.0  0.93309  0.72509  0.45521  1.0000
  H   H7400     1.0  0.85158  0.58480  0.28219  1.0000
  C   C4311     1.0  0.90018  0.67731  0.40169  1.0000
  C   C4312     1.0  0.90283  0.66880  0.41068  1.0000
  C   C4313     1.0  0.90442  0.67125  0.42006  1.0000
  C   C4314     1.0  0.90313  0.68228  0.42076  1.0000
  C   C4315     1.0  0.90053  0.69093  0.41176  1.0000
  C   C4316     1.0  0.89915  0.68843  0.40217  1.0000
  H   H7401     1.0  0.90370  0.66020  0.41038  1.0000
  H   H7402     1.0  0.90657  0.66452  0.42689  1.0000
  H   H7403     1.0  0.89974  0.69947  0.41215  1.0000
  H   H7404     1.0  0.89724  0.69506  0.39521  1.0000
  H   H7405     1.0  0.84807  0.68090  0.33938  1.0000
  C   C4317     1.0  0.87262  0.52005  0.24546  1.0000
  H   H7406     1.0  0.83682  0.58722  0.28581  1.0000
  H   H7407     1.0  0.82645  0.58444  0.27320  1.0000
  H   H7408     1.0  0.93083  0.73681  0.47115  1.0000
  H   H7409     1.0  0.84424  0.56783  0.28892  1.0000
  C   C4318     1.0  0.89081  0.50345  0.25665  1.0000
  C   C4319     1.0  0.87692  0.65606  0.32728  1.0000
  C   C4320     1.0  0.88215  0.66378  0.31888  1.0000
  C   C4321     1.0  0.88722  0.67104  0.32154  1.0000
  C   C4322     1.0  0.88714  0.67078  0.33262  1.0000
  C   C4323     1.0  0.88180  0.66315  0.34106  1.0000
  C   C4324     1.0  0.87668  0.65591  0.33839  1.0000
  H   H7410     1.0  0.88222  0.66421  0.31032  1.0000
  H   H7411     1.0  0.89127  0.67692  0.31493  1.0000
  H   H7412     1.0  0.88169  0.66275  0.34962  1.0000
  H   H7413     1.0  0.87257  0.65008  0.34500  1.0000
  C   C4325     1.0  0.85540  0.63670  0.26398  1.0000
  C   C4326     1.0  0.84907  0.64516  0.25722  1.0000
  C   C4327     1.0  0.84571  0.64299  0.24859  1.0000
  C   C4328     1.0  0.84865  0.63230  0.24637  1.0000
  C   C4329     1.0  0.85503  0.62368  0.25308  1.0000
  C   C4330     1.0  0.85829  0.62584  0.26195  1.0000
  H   H7414     1.0  0.84669  0.65354  0.25868  1.0000
  H   H7415     1.0  0.90193  0.55795  0.30238  1.0000
  H   H7416     1.0  0.85748  0.61541  0.25139  1.0000
  H   H7417     1.0  0.86301  0.61915  0.26720  1.0000
  H   H7418     1.0  0.91166  0.63956  0.25620  1.0000
  C   C4331     1.0  0.86619  0.54912  0.24814  1.0000
  C   C4332     1.0  0.85607  0.55685  0.24734  1.0000
  H   H7419     1.0  0.84900  0.71555  0.41631  1.0000
  H   H7420     1.0  0.86620  0.54130  0.25411  1.0000
  H   H7421     1.0  0.84829  0.55496  0.25264  1.0000
  C   C4333     1.0  0.87478  0.57435  0.29224  1.0000
  C   C4334     1.0  0.87992  0.56952  0.30129  1.0000
  C   C4335     1.0  0.88280  0.57631  0.30666  1.0000
  C   C4336     1.0  0.88065  0.58796  0.30298  1.0000
  C   C4337     1.0  0.87551  0.59278  0.29393  1.0000
  C   C4338     1.0  0.87257  0.58600  0.28863  1.0000
  H   H7422     1.0  0.88138  0.56059  0.30435  1.0000
  H   H7423     1.0  0.88663  0.57253  0.31375  1.0000
  H   H7424     1.0  0.87376  0.60173  0.29104  1.0000
  H   H7425     1.0  0.86860  0.58983  0.28170  1.0000
  C   C4339     1.0  0.87313  0.50223  0.28370  1.0000
  C   C4340     1.0  0.86509  0.50921  0.27785  1.0000
  C   C4341     1.0  0.85958  0.50470  0.27252  1.0000
  H   H7426     1.0  0.88725  0.72882  0.40391  1.0000
  H   H7427     1.0  0.89902  0.62610  0.24176  1.0000
  H   H7428     1.0  0.91478  0.55631  0.28321  1.0000
  H   H7429     1.0  0.86291  0.51804  0.27769  1.0000
  H   H7430     1.0  0.85317  0.51013  0.26825  1.0000
  H   H7431     1.0  0.97669  0.58892  0.25753  1.0000
  H   H7432     1.0  0.97920  0.60687  0.25839  1.0000
  C   C4342     1.0  0.93457  0.60653  0.27651  1.0000
  C   C4343     1.0  0.92501  0.60630  0.28503  1.0000
  C   C4344     1.0  0.91742  0.61624  0.28667  1.0000
  C   C4345     1.0  0.91962  0.62642  0.28006  1.0000
  C   C4346     1.0  0.92956  0.62671  0.27200  1.0000
  C   C4347     1.0  0.93694  0.61671  0.27007  1.0000
  H   H7433     1.0  0.92317  0.59845  0.29002  1.0000
  H   H7434     1.0  0.90975  0.61597  0.29289  1.0000
  H   H7435     1.0  0.93123  0.63458  0.26686  1.0000
  H   H7436     1.0  0.94432  0.61687  0.26343  1.0000
  C   C4348     1.0  0.94333  0.55412  0.24977  1.0000
  C   C4349     1.0  0.94796  0.54317  0.25451  1.0000
  C   C4350     1.0  0.94136  0.53686  0.26322  1.0000
  C   C4351     1.0  0.92998  0.54129  0.26688  1.0000
  C   C4352     1.0  0.92530  0.55218  0.26197  1.0000
  C   C4353     1.0  0.93203  0.55867  0.25361  1.0000
  H   H7437     1.0  0.86767  0.58170  0.26456  1.0000
  H   H7438     1.0  0.94503  0.52846  0.26700  1.0000
  H   H7439     1.0  0.91655  0.55571  0.26474  1.0000
  H   H7440     1.0  0.92839  0.56707  0.24991  1.0000
  H   H7441     1.0  0.87044  0.71578  0.32897  1.0000
  H   H7442     1.0  0.89911  0.57167  0.24775  1.0000
  C   C4354     1.0  0.87625  0.55157  0.24128  1.0000
  H   H7443     1.0  0.86969  0.67550  0.41428  1.0000
  S   S1248     1.0  0.84446  0.63073  0.23473  1.0000
  H   H7444     1.0  0.90886  0.50273  0.25464  1.0000
  C   C4355     1.0  0.89015  0.65548  0.26080  1.0000
  C   C4356     1.0  0.93063  0.69304  0.42483  1.0000
  S   S1249     1.0  0.94422  0.61014  0.24220  1.0000
  H   H7445     1.0  0.87710  0.50736  0.23579  1.0000
  S   S1250     1.0  0.88900  0.54254  0.24301  1.0000
  H   H7446     1.0  0.85624  0.67220  0.35509  1.0000
  H   H7447     1.0  0.85108  0.71295  0.40285  1.0000
  N   N309      1.0  0.92181  0.56583  0.29022  1.0000
  H   H7448     1.0  0.86355  0.59639  0.26443  1.0000
  C   C4357     1.0  0.86232  0.49325  0.27263  1.0000
  C   C4358     1.0  0.86284  0.68179  0.41081  1.0000
  H   H7449     1.0  0.92661  0.56813  0.27234  1.0000
  C   C4359     1.0  0.93162  0.57356  0.30083  1.0000
  H   H7450     1.0  0.97967  0.62069  0.26700  1.0000
  H   H7451     1.0  0.97410  0.63513  0.24394  1.0000
  H   H7452     1.0  0.89831  0.58577  0.28308  1.0000
  H   H7453     1.0  0.86935  0.59169  0.25183  1.0000
  C   C4360     1.0  0.87620  0.56166  0.23357  1.0000
  H   H7454     1.0  0.89022  0.66268  0.25364  1.0000
  S   S1251     1.0  0.86001  0.72377  0.43390  1.0000
  H   H7455     1.0  0.91122  0.61631  0.25337  1.0000
  C   C4361     1.0  0.96182  0.62587  0.26988  1.0000
  C   C4362     1.0  0.90500  0.73701  0.40582  1.0000
  C   C4363     1.0  0.86372  0.58992  0.26011  1.0000
  C   C4364     1.0  0.85191  0.59039  0.25857  1.0000
  H   H7456     1.0  0.93817  0.69370  0.42714  1.0000
  H   H7457     1.0  0.94157  0.55207  0.27946  1.0000
  H   H7458     1.0  0.83217  0.71478  0.33752  1.0000
  H   H7459     1.0  0.93518  0.57834  0.29267  1.0000
  Fe  Fe622     1.0  0.94875  0.57966  0.23961  1.0000
  H   H7460     1.0  0.82382  0.60418  0.27261  1.0000
  S   S1252     1.0  0.99522  0.63156  0.24969  1.0000
  N   N310      1.0  0.85610  0.69383  0.33969  1.0000
  H   H7461     1.0  0.86143  0.70419  0.32342  1.0000
  N   N311      1.0  0.84387  0.58581  0.26877  1.0000
  C   C4365     1.0  0.97913  0.62740  0.24174  1.0000
  H   H7462     1.0  0.85915  0.70320  0.42989  1.0000
  C   C4366     1.0  0.91194  0.57555  0.29094  1.0000
  C   C4367     1.0  0.84336  0.60204  0.27781  1.0000
  H   H7463     1.0  0.95411  0.62493  0.27636  1.0000
  H   H7464     1.0  0.93864  0.57022  0.30526  1.0000
  H   H7465     1.0  0.85659  0.57034  0.27025  1.0000
  H   H7466     1.0  0.88836  0.51191  0.25852  1.0000
  H   H7467     1.0  0.96515  0.60570  0.26323  1.0000
  C   C4368     1.0  0.85610  0.56714  0.23991  1.0000
  H   H7468     1.0  0.84467  0.70601  0.34890  1.0000
  H   H7469     1.0  0.98404  0.59105  0.28359  1.0000
  C   C4369     1.0  0.87404  0.69036  0.42765  1.0000
  H   H7470     1.0  0.86412  0.72400  0.39683  1.0000
  C   C4370     1.0  0.83811  0.70753  0.33447  1.0000
  H   H7471     1.0  0.91947  0.62553  0.24350  1.0000
  H   H7472     1.0  0.91451  0.55128  0.24583  1.0000
  H   H7473     1.0  0.92083  0.56216  0.30789  1.0000
  N   N312      1.0  0.97317  0.60603  0.27609  1.0000
  C   C4371     1.0  0.96310  0.60281  0.28456  1.0000
  H   H7474     1.0  0.90452  0.65366  0.24217  1.0000
  C   C4372     1.0  0.97247  0.61840  0.27367  1.0000
  Fe  Fe623     1.0  0.95704  0.73279  0.37454  1.0000
  C   C4373     1.0  0.96045  0.60663  0.29560  1.0000
  H   H7475     1.0  0.87526  0.73139  0.34735  1.0000
  H   H7476     1.0  0.97334  0.62103  0.28094  1.0000
  S   S1253     1.0  0.95161  0.56179  0.23866  1.0000
  H   H7477     1.0  0.93445  0.73147  0.44743  1.0000
  H   H7478     1.0  0.96402  0.59360  0.28674  1.0000
  H   H7479     1.0  0.87687  0.52636  0.23924  1.0000
  H   H7480     1.0  0.87222  0.52098  0.25392  1.0000
  C   C4374     1.0  0.92106  0.73270  0.43000  1.0000
  C   C4375     1.0  0.98356  0.60018  0.28059  1.0000
  C   C4376     1.0  0.87581  0.49075  0.28392  1.0000
  H   H7481     1.0  0.91616  0.57367  0.23720  1.0000
  H   H7482     1.0  0.96716  0.60267  0.30033  1.0000
  H   H7483     1.0  0.95880  0.61582  0.29439  1.0000
  H   H7484     1.0  0.95268  0.60401  0.30087  1.0000
  C   C4377     1.0  0.94405  0.72631  0.42139  1.0000
  H   H7485     1.0  0.91480  0.58334  0.28994  1.0000
  H   H7486     1.0  0.95543  0.60605  0.28108  1.0000
  H   H7487     1.0  0.86176  0.67849  0.40407  1.0000
  H   H7488     1.0  0.90639  0.50830  0.23730  1.0000
  C   C4378     1.0  0.97350  0.60274  0.26553  1.0000
  H   H7489     1.0  0.85053  0.60310  0.28054  1.0000
  H   H7490     1.0  0.99680  0.60987  0.27355  1.0000
  H   H7491     1.0  0.92233  0.72822  0.48076  1.0000
  N   N313      1.0  0.93791  0.69927  0.40369  1.0000
  C   C4379     1.0  0.94763  0.70295  0.40528  1.0000
  C   C4380     1.0  0.92853  0.70081  0.41371  1.0000
  C   C4381     1.0  0.93452  0.70671  0.39321  1.0000
  C   C4382     1.0  0.94178  0.68728  0.40261  1.0000
  C   C4383     1.0  0.95801  0.70289  0.39563  1.0000
  H   H7492     1.0  0.86344  0.69656  0.39771  1.0000
  C   C4384     1.0  0.92244  0.70792  0.39200  1.0000
  C   C4385     1.0  0.93283  0.68138  0.40220  1.0000
  H   H7493     1.0  0.94490  0.71158  0.40676  1.0000
  H   H7494     1.0  0.95082  0.69764  0.41267  1.0000
  H   H7495     1.0  0.92057  0.69954  0.41277  1.0000
  H   H7496     1.0  0.88502  0.61651  0.25388  1.0000
  H   H7497     1.0  0.93543  0.71538  0.39228  1.0000
  H   H7498     1.0  0.94025  0.70388  0.38575  1.0000
  H   H7499     1.0  0.94825  0.68654  0.39485  1.0000
  H   H7500     1.0  0.94623  0.68209  0.40929  1.0000
  H   H7501     1.0  0.96434  0.70601  0.39779  1.0000
  H   H7502     1.0  0.96206  0.69441  0.39416  1.0000
  H   H7503     1.0  0.95602  0.70855  0.38788  1.0000
  H   H7504     1.0  0.90139  0.73502  0.38651  1.0000
  H   H7505     1.0  0.92344  0.69541  0.43156  1.0000
  C   C4386     1.0  0.88778  0.64540  0.25806  1.0000
  H   H7506     1.0  0.92027  0.69985  0.39293  1.0000
  H   H7507     1.0  0.92158  0.71279  0.38355  1.0000
  H   H7508     1.0  0.91622  0.71267  0.39791  1.0000
  H   H7509     1.0  0.93205  0.68244  0.39353  1.0000
  H   H7510     1.0  0.92451  0.68411  0.40731  1.0000
  H   H7511     1.0  0.93525  0.67233  0.40576  1.0000
  C   C4387     1.0  0.87076  0.70943  0.40884  1.0000
  H   H7512     1.0  0.97101  0.58549  0.27207  1.0000
  C   C4388     1.0  0.97692  0.59016  0.26571  1.0000
  H   H7513     1.0  0.86039  0.67630  0.36531  1.0000
  S   S1254     1.0  0.84361  0.57702  0.23910  1.0000
  H   H7514     1.0  0.89328  0.61780  0.26257  1.0000
  S   S1255     1.0  0.95795  0.72218  0.41462  1.0000
  N   N314      1.0  0.86267  0.70169  0.41279  1.0000
  H   H7515     1.0  0.87907  0.71957  0.39386  1.0000
  H   H7516     1.0  0.84864  0.69455  0.32000  1.0000
  H   H7517     1.0  0.87028  0.68466  0.34718  1.0000
  H   H7518     1.0  0.84351  0.71121  0.32678  1.0000
  H   H7519     1.0  0.92559  0.54825  0.29006  1.0000
  H   H7520     1.0  0.92492  0.57939  0.30536  1.0000
  C   C4389     1.0  0.90475  0.57801  0.28223  1.0000
  C   C4390     1.0  0.94177  0.56096  0.27821  1.0000
  S   S1256     1.0  0.88271  0.70622  0.47998  1.0000
  H   H7521     1.0  0.87966  0.62671  0.26217  1.0000
  Fe  Fe624     1.0  0.95889  0.73299  0.39761  1.0000
  C   C4391     1.0  0.92063  0.72673  0.46109  1.0000
  H   H7522     1.0  0.84229  0.69689  0.41007  1.0000
  H   H7523     1.0  0.87571  0.69097  0.40324  1.0000
  H   H7524     1.0  0.89546  0.51981  0.24003  1.0000
  C   C4392     1.0  0.86373  0.70106  0.33162  1.0000
  H   H7525     1.0  0.87248  0.69607  0.32985  1.0000
  H   H7526     1.0  0.87279  0.68537  0.43629  1.0000
  N   N315      1.0  0.89022  0.50402  0.24492  1.0000
  C   C4393     1.0  0.89455  0.49271  0.24200  1.0000
  C   C4394     1.0  0.86412  0.71152  0.33523  1.0000
  C   C4395     1.0  0.90671  0.63352  0.25634  1.0000
  H   H7527     1.0  0.87875  0.68457  0.42209  1.0000
  H   H7528     1.0  0.84695  0.68284  0.36229  1.0000
  C   C4396     1.0  0.97467  0.62135  0.23693  1.0000
  H   H7529     1.0  0.90689  0.54434  0.29954  1.0000
  H   H7530     1.0  0.90336  0.63026  0.26527  1.0000
  H   H7531     1.0  0.90973  0.57947  0.27362  1.0000
  H   H7532     1.0  0.86667  0.70949  0.34325  1.0000
  H   H7533     1.0  0.85488  0.68209  0.41705  1.0000
  N   N316      1.0  0.91336  0.63984  0.31778  1.0000
  C   C4397     1.0  0.90637  0.64401  0.30907  1.0000
  C   C4398     1.0  0.91128  0.62850  0.32418  1.0000
  C   C4399     1.0  0.92565  0.63881  0.31255  1.0000
  C   C4400     1.0  0.91004  0.64803  0.32524  1.0000
  C   C4401     1.0  0.90825  0.65495  0.30071  1.0000
  C   C4402     1.0  0.89988  0.62842  0.33244  1.0000
  C   C4403     1.0  0.93029  0.63151  0.30379  1.0000
  C   C4404     1.0  0.91617  0.64498  0.33490  1.0000
  H   H7534     1.0  0.90773  0.63764  0.30416  1.0000
  H   H7535     1.0  0.89730  0.64534  0.31299  1.0000
  H   H7536     1.0  0.91794  0.62385  0.32888  1.0000
  H   H7537     1.0  0.91174  0.62316  0.31842  1.0000
  H   H7538     1.0  0.92765  0.64717  0.30865  1.0000
  H   H7539     1.0  0.93076  0.63519  0.31901  1.0000
  H   H7540     1.0  0.91162  0.65634  0.32047  1.0000
  H   H7541     1.0  0.90087  0.64973  0.32867  1.0000
  H   H7542     1.0  0.90249  0.65705  0.29493  1.0000
  H   H7543     1.0  0.90623  0.66210  0.30474  1.0000
  H   H7544     1.0  0.91686  0.65412  0.29553  1.0000
  H   H7545     1.0  0.89933  0.63197  0.33962  1.0000
  H   H7546     1.0  0.89272  0.63294  0.32845  1.0000
  H   H7547     1.0  0.89886  0.61968  0.33580  1.0000
  H   H7548     1.0  0.92648  0.63508  0.29641  1.0000
  H   H7549     1.0  0.92912  0.62285  0.30726  1.0000
  H   H7550     1.0  0.93944  0.63110  0.30080  1.0000
  H   H7551     1.0  0.92376  0.64858  0.33237  1.0000
  H   H7552     1.0  0.91865  0.63590  0.33809  1.0000
  H   H7553     1.0  0.91043  0.64838  0.34204  1.0000
  C   C4405     1.0  0.85575  0.67949  0.35848  1.0000
  H   H7554     1.0  0.93869  0.72475  0.46062  1.0000
  C   C4406     1.0  0.90231  0.49811  0.25975  1.0000
  H   H7555     1.0  0.93092  0.57728  0.27745  1.0000
  H   H7556     1.0  0.91315  0.54819  0.30840  1.0000
  H   H7557     1.0  0.94663  0.56344  0.26963  1.0000
  H   H7558     1.0  0.96098  0.62433  0.26208  1.0000
  H   H7559     1.0  0.93378  0.55610  0.30048  1.0000
  H   H7560     1.0  0.92656  0.70957  0.41476  1.0000
  N   N317      1.0  0.89722  0.63921  0.25039  1.0000
  H   H7561     1.0  0.83113  0.60681  0.25813  1.0000
  H   H7562     1.0  0.84039  0.69828  0.42433  1.0000
  H   H7563     1.0  0.85596  0.71757  0.33574  1.0000
  H   H7564     1.0  0.87084  0.71176  0.39108  1.0000
  H   H7565     1.0  0.91962  0.71904  0.46755  1.0000
  H   H7566     1.0  0.88538  0.63981  0.26619  1.0000
  H   H7567     1.0  0.84605  0.57021  0.26386  1.0000
  C   C4407     1.0  0.88207  0.73729  0.40191  1.0000
  H   H7568     1.0  0.83353  0.70893  0.41470  1.0000
  H   H7569     1.0  0.92165  0.62033  0.25716  1.0000
  H   H7570     1.0  0.83565  0.60571  0.28334  1.0000
  H   H7571     1.0  0.84491  0.55748  0.28174  1.0000
  C   C4408     1.0  0.88740  0.62258  0.25711  1.0000
  H   H7572     1.0  0.84081  0.72831  0.36001  1.0000
  H   H7573     1.0  0.86288  0.67758  0.33559  1.0000
  C   C4409     1.0  0.85516  0.72533  0.36714  1.0000
  C   C4410     1.0  0.84183  0.56651  0.28174  1.0000
  H   H7574     1.0  0.94693  0.70242  0.36303  1.0000
  H   H7575     1.0  0.85364  0.68000  0.32031  1.0000
  H   H7576     1.0  0.87947  0.70468  0.40904  1.0000
  C   C4411     1.0  0.89256  0.63106  0.24731  1.0000
  H   H7577     1.0  0.83903  0.69488  0.34913  1.0000
  C   C4412     1.0  0.99648  0.61356  0.24077  1.0000
  H   H7578     1.0  0.93568  0.71693  0.45270  1.0000
  C   C4413     1.0  0.91510  0.62345  0.25221  1.0000
  C   C4414     1.0  0.84746  0.57323  0.27065  1.0000
  H   H7579     1.0  0.85686  0.69077  0.42851  1.0000
  C   C4415     1.0  0.92994  0.56853  0.27934  1.0000
  C   C4416     1.0  0.93860  0.73752  0.41915  1.0000
  C   C4417     1.0  0.86125  0.68854  0.34973  1.0000
  C   C4418     1.0  0.90955  0.55140  0.30088  1.0000
  H   H7580     1.0  0.89809  0.65335  0.26371  1.0000
  H   H7581     1.0  0.86107  0.69487  0.35427  1.0000
  H   H7582     1.0  0.86892  0.71527  0.41448  1.0000
  C   C4419     1.0  0.85550  0.68456  0.33475  1.0000
  H   H7583     1.0  0.88003  0.64845  0.25463  1.0000
  H   H7584     1.0  0.87918  0.69629  0.42730  1.0000
  C   C4420     1.0  0.84144  0.70265  0.41549  1.0000
  H   H7585     1.0  0.87282  0.50265  0.25021  1.0000
  C   C4421     1.0  0.86638  0.69310  0.40565  1.0000
  H   H7586     1.0  0.88593  0.63564  0.24257  1.0000
  H   H7587     1.0  0.84858  0.59916  0.25485  1.0000
  C   C4422     1.0  0.84455  0.70048  0.34354  1.0000
  C   C4423     1.0  0.85825  0.73808  0.42798  1.0000
  H   H7588     1.0  0.86383  0.52204  0.24444  1.0000
  C   C4424     1.0  0.92707  0.56383  0.29999  1.0000
  C   C4425     1.0  0.84393  0.58949  0.27898  1.0000
  H   H7589     1.0  0.88328  0.65830  0.26758  1.0000
  H   H7590     1.0  0.90631  0.57453  0.29931  1.0000
  H   H7591     1.0  0.92256  0.72917  0.40524  1.0000
  H   H7592     1.0  0.83259  0.56826  0.28303  1.0000
  H   H7593     1.0  0.90022  0.57129  0.28355  1.0000
  C   C4426     1.0  0.86132  0.73007  0.37148  1.0000
  C   C4427     1.0  0.84567  0.73193  0.36328  1.0000
  H   H7594     1.0  0.83326  0.70254  0.33247  1.0000
  H   H7595     1.0  0.86356  0.68854  0.31707  1.0000
  S   S1257     1.0  0.95471  0.72012  0.36631  1.0000
  H   H7596     1.0  0.91401  0.54358  0.23598  1.0000
  H   H7597     1.0  0.89242  0.57626  0.23639  1.0000
  H   H7598     1.0  0.98329  0.60299  0.28817  1.0000
  C   C4428     1.0  0.89737  0.51185  0.23720  1.0000
  S   S1258     1.0  0.94430  0.73627  0.38974  1.0000
  C   C4429     1.0  0.99482  0.60218  0.27277  1.0000
  H   H7599     1.0  0.90360  0.72926  0.47949  1.0000
  H   H7600     1.0  0.98562  0.58654  0.26686  1.0000
  H   H7601     1.0  0.99214  0.73081  0.40964  1.0000
  C   C4430     1.0  0.89978  0.57039  0.23934  1.0000
  H   H7602     1.0  0.92594  0.54056  0.24191  1.0000
  C   C4431     1.0  0.90413  0.70484  0.48206  1.0000
  H   H7603     1.0  0.90388  0.72985  0.40330  1.0000
  H   H7604     1.0  0.91611  0.72679  0.45476  1.0000
  H   H7605     1.0  0.89229  0.73566  0.33974  1.0000
  C   C4432     1.0  0.91752  0.73727  0.40165  1.0000
  H   H7606     1.0  0.87336  0.73656  0.40606  1.0000
  S   S1259     1.0  0.90663  0.73688  0.43488  1.0000
  H   H7607     1.0  0.90332  0.73459  0.41502  1.0000
  C   C4433     1.0  0.91933  0.54746  0.23871  1.0000
  H   H7608     1.0  0.88635  0.73133  0.35963  1.0000
  H   H7609     1.0  0.85019  0.73729  0.41550  1.0000
  H   H7610     1.0  0.89601  0.60733  0.23781  1.0000
  H   H7611     1.0  0.89627  0.73698  0.36308  1.0000
  H   H7612     1.0  0.98834  0.72020  0.40010  1.0000
  H   H7613     1.0  0.99502  0.60284  0.26395  1.0000
  H   H7614     1.0  0.88467  0.49881  0.26257  1.0000
  N   N318      1.0  0.91566  0.73687  0.46612  1.0000
  C   C4434     1.0  0.90374  0.73627  0.47214  1.0000
  H   H7615     1.0  0.90154  0.49839  0.26853  1.0000
  C   C4435     1.0  0.89606  0.73494  0.46531  1.0000
  H   H7616     1.0  0.96630  0.62449  0.23534  1.0000
  H   H7617     1.0  0.88733  0.73580  0.47031  1.0000
  H   H7618     1.0  0.88267  0.73726  0.37161  1.0000
  H   H7619     1.0  0.91713  0.73649  0.35818  1.0000
  H   H7620     1.0  0.99663  0.72567  0.38730  1.0000
  H   H7621     1.0  0.99724  0.60011  0.23315  1.0000
  C   C4436     1.0  0.99677  0.72211  0.39621  1.0000
  H   H7622     1.0  0.93419  0.73706  0.36376  1.0000
  H   H7623     1.0  0.90376  0.48993  0.24145  1.0000
  C   C4437     1.0  0.88737  0.73813  0.36286  1.0000
  H   H7624     1.0  0.89336  0.49307  0.23361  1.0000
  C   C4438     1.0  0.86616  0.56951  0.23300  1.0000
  H   H7625     1.0  0.88034  0.62262  0.23438  1.0000
  H   H7626     1.0  0.86946  0.63450  0.23480  1.0000
  H   H7627     1.0  0.92007  0.73846  0.39251  1.0000
  C   C4439     1.0  0.98122  0.61157  0.23367  1.0000
  Fe  Fe625     1.0  0.95954  0.59987  0.23322  1.0000
  H   H7628     1.0  0.93071  0.55834  0.23284  1.0000
  H   H7629     1.0  0.90185  0.69974  0.51938  1.0000
  C   C4440     1.0  0.91739  0.59479  0.66455  1.0000
  C   C4441     1.0  0.91131  0.73046  0.62388  1.0000
  Fe  Fe626     1.0  0.91376  0.71728  0.51965  1.0000
  C   C4442     1.0  0.91190  0.70601  0.48745  1.0000
  Fe  Fe627     1.0  0.90492  0.70889  0.54446  1.0000
  S   S1260     1.0  0.90849  0.72296  0.54927  1.0000
  S   S1261     1.0  0.89802  0.69421  0.55570  1.0000
  Fe  Fe628     1.0  0.92471  0.72043  0.53686  1.0000
  H   H7630     1.0  0.95402  0.57265  0.69726  1.0000
  H   H7631     1.0  0.93761  0.72125  0.58513  1.0000
  S   S1262     1.0  0.92176  0.70537  0.53319  1.0000
  C   C4443     1.0  0.88020  0.72916  0.64095  1.0000
  H   H7632     1.0  0.84030  0.71800  0.61234  1.0000
  Fe  Fe629     1.0  0.90940  0.62160  0.71812  1.0000
  S   S1263     1.0  0.91348  0.62225  0.69985  1.0000
  H   H7633     1.0  0.94857  0.59593  0.72705  1.0000
  H   H7634     1.0  0.87058  0.71661  0.58088  1.0000
  S   S1264     1.0  0.89306  0.60929  0.70480  1.0000
  Fe  Fe630     1.0  0.91133  0.60455  0.70490  1.0000
  S   S1265     1.0  0.92252  0.59176  0.69537  1.0000
  Fe  Fe631     1.0  0.89489  0.62701  0.70134  1.0000
  S   S1266     1.0  0.88605  0.64052  0.68906  1.0000
  H   H7635     1.0  0.88998  0.58361  0.71150  1.0000
  S   S1267     1.0  0.89083  0.62757  0.71942  1.0000
  Fe  Fe632     1.0  0.91197  0.69903  0.61387  1.0000
  S   S1268     1.0  0.90837  0.68257  0.61468  1.0000
  S   S1269     1.0  0.92441  0.70609  0.59952  1.0000
  Fe  Fe633     1.0  0.89302  0.70396  0.63322  1.0000
  S   S1270     1.0  0.88746  0.68804  0.63559  1.0000
  S   S1271     1.0  0.88562  0.71491  0.64566  1.0000
  Fe  Fe634     1.0  0.90578  0.68011  0.63319  1.0000
  S   S1272     1.0  0.91378  0.66440  0.64403  1.0000
  Fe  Fe635     1.0  0.89050  0.69193  0.61695  1.0000
  S   S1273     1.0  0.87914  0.68946  0.60751  1.0000
  S   S1274     1.0  0.91120  0.69581  0.63204  1.0000
  S   S1275     1.0  0.89424  0.70861  0.61486  1.0000
  H   H7636     1.0  0.91015  0.60603  0.65110  1.0000
  C   C4444     1.0  0.93594  0.58520  0.72212  1.0000
  C   C4445     1.0  0.86188  0.71564  0.58224  1.0000
  H   H7637     1.0  0.93006  0.67358  0.57047  1.0000
  H   H7638     1.0  0.90973  0.60814  0.68070  1.0000
  C   C4446     1.0  0.89383  0.64716  0.67662  1.0000
  C   C4447     1.0  0.88820  0.65441  0.66850  1.0000
  C   C4448     1.0  0.89420  0.65983  0.65849  1.0000
  C   C4449     1.0  0.90589  0.65792  0.65649  1.0000
  C   C4450     1.0  0.91151  0.65061  0.66457  1.0000
  C   C4451     1.0  0.90550  0.64534  0.67464  1.0000
  H   H7639     1.0  0.87916  0.65583  0.66997  1.0000
  H   H7640     1.0  0.88979  0.66537  0.65226  1.0000
  H   H7641     1.0  0.92056  0.64915  0.66308  1.0000
  H   H7642     1.0  0.90990  0.63998  0.68091  1.0000
  C   C4452     1.0  0.86818  0.72879  0.60933  1.0000
  H   H7643     1.0  0.87681  0.69032  0.54361  1.0000
  C   C4453     1.0  0.92265  0.57130  0.69254  1.0000
  C   C4454     1.0  0.92027  0.57805  0.70020  1.0000
  C   C4455     1.0  0.91689  0.57356  0.71152  1.0000
  H   H7644     1.0  0.91560  0.67574  0.52543  1.0000
  H   H7645     1.0  0.87693  0.72993  0.60738  1.0000
  H   H7646     1.0  0.92544  0.57462  0.68379  1.0000
  H   H7647     1.0  0.90489  0.73653  0.57491  1.0000
  C   C4456     1.0  0.89265  0.70861  0.48589  1.0000
  H   H7648     1.0  0.87924  0.55258  0.70975  1.0000
  C   C4457     1.0  0.91414  0.68438  0.52050  1.0000
  C   C4458     1.0  0.94719  0.72771  0.55576  1.0000
  H   H7649     1.0  0.93103  0.69615  0.55452  1.0000
  H   H7650     1.0  0.90121  0.67670  0.51085  1.0000
  C   C4459     1.0  0.92183  0.70012  0.57494  1.0000
  C   C4460     1.0  0.89238  0.69371  0.56996  1.0000
  C   C4461     1.0  0.89293  0.70174  0.57529  1.0000
  C   C4462     1.0  0.88928  0.70032  0.58691  1.0000
  C   C4463     1.0  0.88446  0.69123  0.59309  1.0000
  C   C4464     1.0  0.88341  0.68358  0.58764  1.0000
  C   C4465     1.0  0.88755  0.68469  0.57618  1.0000
  H   H7651     1.0  0.89625  0.70896  0.57050  1.0000
  H   H7652     1.0  0.89002  0.70636  0.59104  1.0000
  H   H7653     1.0  0.87961  0.67660  0.59233  1.0000
  H   H7654     1.0  0.88700  0.67850  0.57212  1.0000
  C   C4466     1.0  0.90828  0.71116  0.49656  1.0000
  H   H7655     1.0  0.90371  0.49927  0.72531  1.0000
  S   S1276     1.0  0.95734  0.73032  0.60811  1.0000
  H   H7656     1.0  0.94469  0.69680  0.58545  1.0000
  N   N319      1.0  0.93046  0.68999  0.57209  1.0000
  C   C4467     1.0  0.88550  0.61929  0.67482  1.0000
  C   C4468     1.0  0.85008  0.73318  0.59548  1.0000
  H   H7657     1.0  0.92916  0.73849  0.61252  1.0000
  H   H7658     1.0  0.93271  0.68499  0.58902  1.0000
  C   C4469     1.0  0.94881  0.72289  0.60572  1.0000
  C   C4470     1.0  0.94366  0.71539  0.61447  1.0000
  C   C4471     1.0  0.93619  0.71005  0.61266  1.0000
  C   C4472     1.0  0.93393  0.71223  0.60210  1.0000
  H   H7659     1.0  0.94067  0.57315  0.70671  1.0000
  H   H7660     1.0  0.96322  0.57471  0.70954  1.0000
  H   H7661     1.0  0.94534  0.71382  0.62266  1.0000
  H   H7662     1.0  0.93219  0.70428  0.61942  1.0000
  C   C4473     1.0  0.94839  0.59414  0.70594  1.0000
  H   H7663     1.0  0.95105  0.68689  0.54793  1.0000
  C   C4474     1.0  0.92849  0.62415  0.73203  1.0000
  H   H7664     1.0  0.91020  0.59062  0.66820  1.0000
  C   C4475     1.0  0.93928  0.71956  0.59333  1.0000
  H   H7665     1.0  0.94831  0.60926  0.71128  1.0000
  H   H7666     1.0  0.87790  0.61568  0.67758  1.0000
  H   H7667     1.0  0.88431  0.56876  0.70876  1.0000
  H   H7668     1.0  0.94380  0.59248  0.70049  1.0000
  H   H7669     1.0  0.93365  0.71023  0.57465  1.0000
  H   H7670     1.0  0.85705  0.72312  0.57747  1.0000
  H   H7671     1.0  0.93447  0.60733  0.71198  1.0000
  S   S1277     1.0  0.91609  0.54182  0.71142  1.0000
  H   H7672     1.0  0.90510  0.62254  0.67783  1.0000
  C   C4476     1.0  0.93689  0.69289  0.56032  1.0000
  C   C4477     1.0  0.91646  0.67753  0.58379  1.0000
  C   C4478     1.0  0.90392  0.62640  0.65664  1.0000
  H   H7673     1.0  0.95187  0.67925  0.56172  1.0000
  H   H7674     1.0  0.92676  0.71488  0.56310  1.0000
  H   H7675     1.0  0.92632  0.61289  0.67886  1.0000
  H   H7676     1.0  0.94233  0.67709  0.55455  1.0000
  C   C4479     1.0  0.94978  0.57012  0.70606  1.0000
  H   H7677     1.0  0.95116  0.56088  0.70840  1.0000
  H   H7678     1.0  0.88593  0.73190  0.55424  1.0000
  H   H7679     1.0  0.85374  0.70030  0.61647  1.0000
  H   H7680     1.0  0.91621  0.68439  0.51151  1.0000
  H   H7681     1.0  0.92845  0.61365  0.66462  1.0000
  H   H7682     1.0  0.92279  0.62622  0.66989  1.0000
  H   H7683     1.0  0.95081  0.73052  0.58832  1.0000
  C   C4480     1.0  0.92264  0.61727  0.67149  1.0000
  H   H7684     1.0  0.91929  0.71720  0.57646  1.0000
  H   H7685     1.0  0.88323  0.62758  0.66939  1.0000
  H   H7686     1.0  0.95711  0.59376  0.70098  1.0000
  H   H7687     1.0  0.91889  0.68435  0.56617  1.0000
  C   C4481     1.0  0.91052  0.61562  0.67387  1.0000
  H   H7688     1.0  0.92292  0.55515  0.69009  1.0000
  H   H7689     1.0  0.91297  0.71627  0.63771  1.0000
  H   H7690     1.0  0.90145  0.69153  0.53297  1.0000
  H   H7691     1.0  0.87449  0.67620  0.53220  1.0000
  H   H7692     1.0  0.91712  0.62567  0.64139  1.0000
  H   H7693     1.0  0.89255  0.67669  0.54010  1.0000
  C   C4482     1.0  0.88248  0.67024  0.53314  1.0000
  C   C4483     1.0  0.89680  0.71511  0.50030  1.0000
  H   H7694     1.0  0.90975  0.68447  0.58646  1.0000
  C   C4484     1.0  0.88901  0.71371  0.49505  1.0000
  H   H7695     1.0  0.85636  0.58280  0.72427  1.0000
  C   C4485     1.0  0.87837  0.69780  0.53710  1.0000
  C   C4486     1.0  0.91625  0.56225  0.71512  1.0000
  H   H7696     1.0  0.89623  0.60322  0.67494  1.0000
  H   H7697     1.0  0.84727  0.72536  0.61725  1.0000
  H   H7698     1.0  0.87237  0.71350  0.60357  1.0000
  H   H7699     1.0  0.96715  0.59504  0.71232  1.0000
  N   N320      1.0  0.90621  0.61505  0.66421  1.0000
  H   H7700     1.0  0.88462  0.66461  0.52726  1.0000
  C   C4487     1.0  0.85369  0.70750  0.61977  1.0000
  H   H7701     1.0  0.90001  0.66943  0.52971  1.0000
  H   H7702     1.0  0.92026  0.68848  0.52174  1.0000
  N   N321      1.0  0.89266  0.68659  0.52329  1.0000
  C   C4488     1.0  0.92132  0.56023  0.69610  1.0000
  S   S1278     1.0  0.89660  0.71958  0.53061  1.0000
  C   C4489     1.0  0.89229  0.67581  0.53176  1.0000
  H   H7703     1.0  0.90868  0.72916  0.64203  1.0000
  H   H7704     1.0  0.94183  0.67629  0.58041  1.0000
  H   H7705     1.0  0.87963  0.69314  0.50544  1.0000
  C   C4490     1.0  0.94735  0.69111  0.57960  1.0000
  N   N322      1.0  0.89164  0.68414  0.67665  1.0000
  C   C4491     1.0  0.89759  0.67330  0.68288  1.0000
  C   C4492     1.0  0.89849  0.68628  0.66495  1.0000
  C   C4493     1.0  0.88012  0.68284  0.67666  1.0000
  C   C4494     1.0  0.89077  0.69316  0.68260  1.0000
  C   C4495     1.0  0.89115  0.66855  0.69458  1.0000
  C   C4496     1.0  0.91080  0.68677  0.66376  1.0000
  C   C4497     1.0  0.87489  0.68957  0.66663  1.0000
  C   C4498     1.0  0.88620  0.70520  0.67689  1.0000
  H   H7706     1.0  0.89975  0.66674  0.67801  1.0000
  H   H7707     1.0  0.90571  0.67408  0.68404  1.0000
  H   H7708     1.0  0.89467  0.69418  0.65984  1.0000
  H   H7709     1.0  0.89866  0.67971  0.66067  1.0000
  H   H7710     1.0  0.88025  0.67402  0.67683  1.0000
  H   H7711     1.0  0.87398  0.68476  0.68431  1.0000
  H   H7712     1.0  0.88524  0.69172  0.69099  1.0000
  H   H7713     1.0  0.89909  0.69295  0.68405  1.0000
  H   H7714     1.0  0.88325  0.66650  0.69441  1.0000
  H   H7715     1.0  0.89645  0.66058  0.69813  1.0000
  H   H7716     1.0  0.88941  0.67419  0.70035  1.0000
  H   H7717     1.0  0.91588  0.67849  0.66684  1.0000
  H   H7718     1.0  0.91463  0.68918  0.65482  1.0000
  H   H7719     1.0  0.91152  0.69309  0.66782  1.0000
  H   H7720     1.0  0.87514  0.69850  0.66448  1.0000
  H   H7721     1.0  0.86596  0.68901  0.66848  1.0000
  H   H7722     1.0  0.87914  0.68594  0.65924  1.0000
  H   H7723     1.0  0.89147  0.70781  0.66860  1.0000
  H   H7724     1.0  0.88627  0.71094  0.68200  1.0000
  H   H7725     1.0  0.87739  0.70648  0.67629  1.0000
  C   C4499     1.0  0.96570  0.58895  0.72029  1.0000
  H   H7726     1.0  0.95057  0.69580  0.57126  1.0000
  C   C4500     1.0  0.94668  0.72490  0.59514  1.0000
  H   H7727     1.0  0.88262  0.72841  0.62391  1.0000
  H   H7728     1.0  0.93082  0.58634  0.71596  1.0000
  H   H7729     1.0  0.89992  0.63294  0.66157  1.0000
  H   H7730     1.0  0.88737  0.62030  0.68239  1.0000
  H   H7731     1.0  0.94827  0.71947  0.56104  1.0000
  C   C4501     1.0  0.95332  0.58804  0.72449  1.0000
  C   C4502     1.0  0.91398  0.63040  0.64811  1.0000
  C   C4503     1.0  0.90216  0.69105  0.52427  1.0000
  C   C4504     1.0  0.84876  0.71869  0.61260  1.0000
  H   H7732     1.0  0.91735  0.72550  0.61804  1.0000
  H   H7733     1.0  0.91117  0.63926  0.64405  1.0000
  H   H7734     1.0  0.89779  0.62676  0.65169  1.0000
  H   H7735     1.0  0.94324  0.61180  0.69894  1.0000
  H   H7736     1.0  0.92358  0.58958  0.65900  1.0000
  H   H7737     1.0  0.92151  0.59471  0.67119  1.0000
  H   H7738     1.0  0.92124  0.67339  0.59041  1.0000
  H   H7739     1.0  0.92192  0.60929  0.65312  1.0000
  C   C4505     1.0  0.93787  0.68522  0.58043  1.0000
  H   H7740     1.0  0.92092  0.63016  0.65189  1.0000
  C   C4506     1.0  0.91398  0.60667  0.65770  1.0000
  C   C4507     1.0  0.95439  0.57434  0.71379  1.0000
  S   S1279     1.0  0.94088  0.71838  0.54210  1.0000
  N   N323      1.0  0.85559  0.72175  0.60104  1.0000
  C   C4508     1.0  0.91421  0.72495  0.63537  1.0000
  C   C4509     1.0  0.85630  0.71313  0.59469  1.0000
  H   H7741     1.0  0.89216  0.60977  0.66207  1.0000
  H   H7742     1.0  0.86996  0.57459  0.71146  1.0000
  H   H7743     1.0  0.86227  0.70702  0.62065  1.0000
  C   C4510     1.0  0.87652  0.73610  0.64858  1.0000
  C   C4511     1.0  0.94602  0.68335  0.55606  1.0000
  C   C4512     1.0  0.89521  0.61128  0.66880  1.0000
  Fe  Fe636     1.0  0.91167  0.53321  0.72946  1.0000
  C   C4513     1.0  0.86729  0.72205  0.60137  1.0000
  H   H7744     1.0  0.84786  0.71163  0.59545  1.0000
  H   H7745     1.0  0.86119  0.70493  0.59828  1.0000
  N   N324      1.0  0.94803  0.58540  0.71657  1.0000
  C   C4514     1.0  0.94329  0.60626  0.70728  1.0000
  H   H7746     1.0  0.87773  0.54056  0.72062  1.0000
  H   H7747     1.0  0.93207  0.59237  0.72622  1.0000
  H   H7748     1.0  0.87476  0.69320  0.52389  1.0000
  H   H7749     1.0  0.91784  0.69863  0.58392  1.0000
  C   C4515     1.0  0.94322  0.72961  0.54604  1.0000
  H   H7750     1.0  0.87692  0.73264  0.65719  1.0000
  H   H7751     1.0  0.95288  0.58165  0.73236  1.0000
  S   S1280     1.0  0.91814  0.63100  0.72434  1.0000
  C   C4516     1.0  0.92579  0.71114  0.57208  1.0000
  H   H7752     1.0  0.85550  0.73615  0.58736  1.0000
  H   H7753     1.0  0.94106  0.69981  0.55910  1.0000
  H   H7754     1.0  0.91497  0.70190  0.57046  1.0000
  H   H7755     1.0  0.88930  0.54688  0.71854  1.0000
  C   C4517     1.0  0.89506  0.68469  0.51165  1.0000
  H   H7756     1.0  0.95473  0.68474  0.58193  1.0000
  C   C4518     1.0  0.92417  0.68132  0.57252  1.0000
  H   H7757     1.0  0.91219  0.67136  0.58295  1.0000
  H   H7758     1.0  0.87990  0.67870  0.51241  1.0000
  C   C4519     1.0  0.88205  0.69534  0.52536  1.0000
  H   H7759     1.0  0.89393  0.71925  0.50721  1.0000
  C   C4520     1.0  0.88502  0.68467  0.50704  1.0000
  H   H7760     1.0  0.86277  0.73725  0.60838  1.0000
  H   H7761     1.0  0.89912  0.69127  0.50558  1.0000
  H   H7762     1.0  0.88072  0.66523  0.54174  1.0000
  S   S1281     1.0  0.91839  0.71260  0.50287  1.0000
  H   H7763     1.0  0.88292  0.70336  0.51933  1.0000
  H   H7764     1.0  0.88824  0.68228  0.49885  1.0000
  S   S1282     1.0  0.91808  0.73218  0.52239  1.0000
  H   H7765     1.0  0.87038  0.70414  0.53764  1.0000
  H   H7766     1.0  0.87185  0.72563  0.59301  1.0000
  H   H7767     1.0  0.97131  0.58070  0.71963  1.0000
  C   C4521     1.0  0.91809  0.55565  0.70741  1.0000
  C   C4522     1.0  0.83839  0.73425  0.59333  1.0000
  H   H7768     1.0  0.96818  0.59193  0.72647  1.0000
  H   H7769     1.0  0.86236  0.70848  0.57865  1.0000
  H   H7770     1.0  0.88013  0.71664  0.49805  1.0000
  S   S1283     1.0  0.90907  0.60344  0.72307  1.0000
  H   H7771     1.0  0.88450  0.70139  0.53894  1.0000
  H   H7772     1.0  0.87992  0.73195  0.57418  1.0000
  H   H7773     1.0  0.91507  0.57867  0.71754  1.0000
  H   H7774     1.0  0.86629  0.72436  0.61812  1.0000
  H   H7775     1.0  0.95524  0.56775  0.72138  1.0000
  C   C4523     1.0  0.87967  0.73372  0.62982  1.0000
  Fe  Fe637     1.0  0.89081  0.60941  0.72273  1.0000
  H   H7776     1.0  0.83215  0.73230  0.60111  1.0000
  H   H7777     1.0  0.84833  0.70651  0.62826  1.0000
  H   H7778     1.0  0.91422  0.55864  0.72384  1.0000
  H   H7779     1.0  0.92313  0.72441  0.63519  1.0000
  H   H7780     1.0  0.90294  0.72899  0.62425  1.0000
  H   H7781     1.0  0.87805  0.59014  0.70513  1.0000
  C   C4524     1.0  0.87765  0.57328  0.71465  1.0000
  H   H7782     1.0  0.99138  0.73234  0.59869  1.0000
  H   H7783     1.0  0.83864  0.72901  0.58762  1.0000
  Fe  Fe638     1.0  0.90145  0.73349  0.53451  1.0000
  C   C4525     1.0  0.88805  0.56244  0.72937  1.0000
  C   C4526     1.0  0.89952  0.49239  0.72912  1.0000
  H   H7784     1.0  0.91342  0.73192  0.60149  1.0000
  C   C4527     1.0  0.87278  0.55602  0.72657  1.0000
  H   H7785     1.0  0.94909  0.55120  0.73149  1.0000
  H   H7786     1.0  0.93519  0.56746  0.72730  1.0000
  C   C4528     1.0  0.95005  0.73636  0.55853  1.0000
  C   C4529     1.0  0.85633  0.57698  0.73245  1.0000
  H   H7787     1.0  0.92076  0.70288  0.48456  1.0000
  H   H7788     1.0  0.89480  0.56109  0.72196  1.0000
  C   C4530     1.0  0.88078  0.58460  0.71267  1.0000
  C   C4531     1.0  0.88029  0.54869  0.71837  1.0000
  H   H7789     1.0  0.87633  0.58914  0.71933  1.0000
  N   N325      1.0  0.87670  0.56628  0.72628  1.0000
  C   C4532     1.0  0.93378  0.57471  0.73108  1.0000
  H   H7790     1.0  0.89152  0.57837  0.72978  1.0000
  H   H7791     1.0  0.86434  0.55822  0.72462  1.0000
  H   H7792     1.0  0.95321  0.73481  0.56598  1.0000
  C   C4533     1.0  0.99731  0.73806  0.59548  1.0000
  H   H7793     1.0  0.93269  0.63959  0.73139  1.0000
  H   H7794     1.0  0.84901  0.73945  0.60045  1.0000
  C   C4534     1.0  0.81435  0.55124  0.97956  1.0000
  C   C4535     1.0  0.53347  0.70994  0.97545  1.0000
  H   H7795     1.0  0.75508  0.49790  0.90341  1.0000
  Fe  Fe639     1.0  0.75359  0.58686  0.97771  1.0000
  H   H7796     1.0  0.89714  0.59367  0.77443  1.0000
  H   H7797     1.0  0.72535  0.51035  0.88942  1.0000
  S   S1284     1.0  0.79188  0.56478  0.96301  1.0000
  S   S1285     1.0  0.75874  0.57570  0.96560  1.0000
  Fe  Fe640     1.0  0.73914  0.51530  0.94475  1.0000
  S   S1286     1.0  0.72167  0.51238  0.94992  1.0000
  S   S1287     1.0  0.75013  0.51314  0.95667  1.0000
  Fe  Fe641     1.0  0.73901  0.52015  0.92025  1.0000
  S   S1288     1.0  0.72141  0.51781  0.92324  1.0000
  S   S1289     1.0  0.75108  0.52329  0.90389  1.0000
  Fe  Fe642     1.0  0.71787  0.52756  0.93655  1.0000
  S   S1290     1.0  0.70251  0.54080  0.94090  1.0000
  Fe  Fe643     1.0  0.72674  0.50291  0.93627  1.0000
  S   S1291     1.0  0.73504  0.53113  0.93240  1.0000
  S   S1292     1.0  0.74461  0.50463  0.93224  1.0000
  N   N326      1.0  0.98248  0.61250  0.76802  1.0000
  H   H7798     1.0  0.93208  0.54440  0.79602  1.0000
  Fe  Fe644     1.0  0.52965  0.71811  0.93830  1.0000
  H   H7799     1.0  0.75363  0.51125  0.87365  1.0000
  S   S1293     1.0  0.54521  0.70531  0.94190  1.0000
  H   H7800     1.0  0.91563  0.54591  0.76291  1.0000
  H   H7801     1.0  0.80656  0.54964  0.97855  1.0000
  S   S1294     1.0  0.51417  0.71870  0.95198  1.0000
  S   S1295     1.0  0.52026  0.72011  0.92500  1.0000
  Fe  Fe645     1.0  0.97908  0.57313  0.76587  1.0000
  H   H7802     1.0  0.78684  0.55286  0.92766  1.0000
  H   H7803     1.0  0.91348  0.62036  0.77564  1.0000
  Fe  Fe646     1.0  0.95555  0.57001  0.77829  1.0000
  S   S1296     1.0  0.94803  0.57767  0.76331  1.0000
  S   S1297     1.0  0.94399  0.56394  0.79423  1.0000
  Fe  Fe647     1.0  0.96352  0.56744  0.75462  1.0000
  H   H7804     1.0  0.92402  0.61410  0.76502  1.0000
  Fe  Fe648     1.0  0.95842  0.59027  0.76008  1.0000
  H   H7805     1.0  0.77273  0.55303  0.95159  1.0000
  S   S1298     1.0  0.97047  0.55875  0.76980  1.0000
  S   S1299     1.0  0.96476  0.58353  0.77582  1.0000
  C   C4536     1.0  0.97063  0.62681  0.75481  1.0000
  S   S1300     1.0  0.91071  0.54148  0.74307  1.0000
  Fe  Fe649     1.0  0.90477  0.51237  0.74542  1.0000
  S   S1301     1.0  0.90323  0.51921  0.76038  1.0000
  Fe  Fe650     1.0  0.89479  0.53537  0.75103  1.0000
  S   S1302     1.0  0.87936  0.54766  0.75732  1.0000
  Fe  Fe651     1.0  0.91930  0.52466  0.75120  1.0000
  S   S1303     1.0  0.93259  0.52278  0.76065  1.0000
  H   H7806     1.0  0.93057  0.56762  0.76097  1.0000
  H   H7807     1.0  0.78233  0.53264  0.92550  1.0000
  Fe  Fe652     1.0  0.62619  0.71464  0.89815  1.0000
  S   S1304     1.0  0.62069  0.70152  0.89368  1.0000
  S   S1305     1.0  0.63316  0.72808  0.88478  1.0000
  Fe  Fe653     1.0  0.62104  0.70424  0.92255  1.0000
  S   S1306     1.0  0.61498  0.69018  0.92028  1.0000
  S   S1307     1.0  0.62108  0.70690  0.93910  1.0000
  Fe  Fe654     1.0  0.62998  0.68928  0.90607  1.0000
  S   S1308     1.0  0.64052  0.67382  0.90005  1.0000
  Fe  Fe655     1.0  0.60621  0.70351  0.90810  1.0000
  S   S1309     1.0  0.58946  0.70504  0.90432  1.0000
  S   S1310     1.0  0.63680  0.70227  0.90937  1.0000
  S   S1311     1.0  0.61100  0.71768  0.91155  1.0000
  Fe  Fe656     1.0  0.69998  0.60884  0.94177  1.0000
  S   S1312     1.0  0.68580  0.60610  0.93630  1.0000
  S   S1313     1.0  0.70146  0.60140  0.95935  1.0000
  Fe  Fe657     1.0  0.70863  0.62277  0.91937  1.0000
  S   S1314     1.0  0.69489  0.62160  0.91206  1.0000
  S   S1315     1.0  0.72067  0.63396  0.90992  1.0000
  Fe  Fe658     1.0  0.68339  0.62436  0.92832  1.0000
  S   S1316     1.0  0.66654  0.63573  0.93300  1.0000
  Fe  Fe659     1.0  0.69856  0.60350  0.92077  1.0000
  S   S1317     1.0  0.70142  0.58977  0.91172  1.0000
  S   S1318     1.0  0.69688  0.62712  0.93491  1.0000
  S   S1319     1.0  0.71310  0.60460  0.92697  1.0000
  Fe  Fe660     1.0  0.77174  0.57736  0.89314  1.0000
  S   S1320     1.0  0.78946  0.56758  0.88983  1.0000
  S   S1321     1.0  0.75514  0.57246  0.89932  1.0000
  Fe  Fe661     1.0  0.77829  0.59938  0.88807  1.0000
  S   S1322     1.0  0.79672  0.59190  0.88427  1.0000
  S   S1323     1.0  0.77130  0.61774  0.88652  1.0000
  Fe  Fe662     1.0  0.79228  0.58164  0.87507  1.0000
  S   S1324     1.0  0.80117  0.57928  0.85773  1.0000
  Fe  Fe663     1.0  0.79265  0.57853  0.89927  1.0000
  S   S1325     1.0  0.80477  0.57189  0.91063  1.0000
  S   S1326     1.0  0.77415  0.59039  0.87755  1.0000
  S   S1327     1.0  0.77469  0.58699  0.90392  1.0000
  H   H7808     1.0  0.78065  0.63641  0.85417  1.0000
  Fe  Fe664     1.0  0.86076  0.59784  0.79549  1.0000
  S   S1328     1.0  0.86518  0.60419  0.80804  1.0000
  S   S1329     1.0  0.85414  0.61074  0.78159  1.0000
  Fe  Fe665     1.0  0.86948  0.57377  0.80579  1.0000
  S   S1330     1.0  0.87490  0.57821  0.81905  1.0000
  S   S1331     1.0  0.87253  0.55556  0.80558  1.0000
  Fe  Fe666     1.0  0.85820  0.59031  0.82053  1.0000
  S   S1332     1.0  0.84821  0.59291  0.83755  1.0000
  Fe  Fe667     1.0  0.88135  0.59165  0.80538  1.0000
  S   S1333     1.0  0.89728  0.59794  0.80135  1.0000
  S   S1334     1.0  0.85231  0.58493  0.80817  1.0000
  S   S1335     1.0  0.87738  0.58618  0.79198  1.0000
  H   H7809     1.0  0.59016  0.66959  0.93184  1.0000
  H   H7810     1.0  0.59639  0.71286  0.86109  1.0000
  C   C4537     1.0  0.86561  0.59655  0.76768  1.0000
  C   C4538     1.0  0.86122  0.60763  0.76863  1.0000
  C   C4539     1.0  0.86268  0.61624  0.75921  1.0000
  C   C4540     1.0  0.86862  0.61375  0.74888  1.0000
  H   H7811     1.0  0.90156  0.54415  0.76630  1.0000
  H   H7812     1.0  0.86432  0.58989  0.77486  1.0000
  H   H7813     1.0  0.85926  0.62481  0.75992  1.0000
  H   H7814     1.0  0.86964  0.62038  0.74160  1.0000
  C   C4541     1.0  0.81440  0.58274  0.85227  1.0000
  C   C4542     1.0  0.81882  0.58413  0.84081  1.0000
  C   C4543     1.0  0.82924  0.58717  0.83619  1.0000
  C   C4544     1.0  0.83527  0.58886  0.84302  1.0000
  C   C4545     1.0  0.83084  0.58748  0.85448  1.0000
  C   C4546     1.0  0.82046  0.58436  0.85910  1.0000
  H   H7815     1.0  0.81409  0.58301  0.83547  1.0000
  H   H7816     1.0  0.83248  0.58846  0.82732  1.0000
  H   H7817     1.0  0.83549  0.58876  0.85980  1.0000
  H   H7818     1.0  0.81718  0.58321  0.86796  1.0000
  C   C4547     1.0  0.73455  0.62888  0.90330  1.0000
  C   C4548     1.0  0.73899  0.61753  0.90340  1.0000
  C   C4549     1.0  0.75028  0.61394  0.89821  1.0000
  C   C4550     1.0  0.75707  0.62173  0.89288  1.0000
  C   C4551     1.0  0.75254  0.63302  0.89275  1.0000
  C   C4552     1.0  0.74136  0.63657  0.89794  1.0000
  H   H7819     1.0  0.73377  0.61156  0.90756  1.0000
  H   H7820     1.0  0.75373  0.60518  0.89834  1.0000
  H   H7821     1.0  0.75772  0.63908  0.88868  1.0000
  H   H7822     1.0  0.73800  0.64535  0.89782  1.0000
  C   C4553     1.0  0.64761  0.66314  0.90924  1.0000
  C   C4554     1.0  0.65622  0.65480  0.90507  1.0000
  C   C4555     1.0  0.66202  0.64619  0.91226  1.0000
  C   C4556     1.0  0.65908  0.64581  0.92367  1.0000
  C   C4557     1.0  0.65021  0.65395  0.92784  1.0000
  C   C4558     1.0  0.64461  0.66270  0.92064  1.0000
  H   H7823     1.0  0.65849  0.65507  0.89625  1.0000
  H   H7824     1.0  0.66878  0.63989  0.90900  1.0000
  H   H7825     1.0  0.64784  0.65363  0.93668  1.0000
  H   H7826     1.0  0.63792  0.66905  0.92392  1.0000
  H   H7827     1.0  0.91326  0.62459  0.75070  1.0000
  H   H7828     1.0  0.91331  0.60446  0.75444  1.0000
  H   H7829     1.0  0.93897  0.57259  0.73736  1.0000
  C   C4559     1.0  0.93040  0.61264  0.73639  1.0000
  H   H7830     1.0  0.91148  0.53430  0.77355  1.0000
  C   C4560     1.0  0.87741  0.54961  0.77083  1.0000
  C   C4561     1.0  0.88033  0.54072  0.77944  1.0000
  C   C4562     1.0  0.87848  0.54252  0.79020  1.0000
  C   C4563     1.0  0.87404  0.55326  0.79228  1.0000
  C   C4564     1.0  0.87111  0.56212  0.78368  1.0000
  C   C4565     1.0  0.87265  0.56027  0.77302  1.0000
  H   H7831     1.0  0.88388  0.53244  0.77783  1.0000
  H   H7832     1.0  0.88072  0.53562  0.79685  1.0000
  H   H7833     1.0  0.86752  0.57039  0.78527  1.0000
  H   H7834     1.0  0.87022  0.56713  0.76642  1.0000
  C   C4566     1.0  0.93809  0.60771  0.74340  1.0000
  H   H7835     1.0  0.78482  0.62077  0.84542  1.0000
  H   H7836     1.0  0.99116  0.59580  0.74819  1.0000
  H   H7837     1.0  0.82865  0.61543  0.84362  1.0000
  H   H7838     1.0  0.78930  0.54745  0.91528  1.0000
  H   H7839     1.0  0.67410  0.69079  0.92127  1.0000
  C   C4567     1.0  0.93115  0.57354  0.79654  1.0000
  C   C4568     1.0  0.92225  0.57041  0.80506  1.0000
  C   C4569     1.0  0.91172  0.57776  0.80650  1.0000
  C   C4570     1.0  0.91020  0.58839  0.79963  1.0000
  C   C4571     1.0  0.91924  0.59168  0.79143  1.0000
  C   C4572     1.0  0.92964  0.58423  0.78977  1.0000
  H   H7840     1.0  0.92347  0.56225  0.81048  1.0000
  H   H7841     1.0  0.90486  0.57529  0.81304  1.0000
  H   H7842     1.0  0.91820  0.60002  0.78637  1.0000
  H   H7843     1.0  0.93654  0.58684  0.78340  1.0000
  C   C4573     1.0  0.78413  0.55400  0.91984  1.0000
  H   H7844     1.0  0.92170  0.62858  0.76446  1.0000
  H   H7845     1.0  0.76971  0.55511  0.91352  1.0000
  C   C4574     1.0  0.94126  0.53250  0.75504  1.0000
  N   N327      1.0  0.76726  0.54496  0.93011  1.0000
  H   H7846     1.0  0.62069  0.71865  0.87156  1.0000
  H   H7847     1.0  0.91287  0.60225  0.76883  1.0000
  H   H7848     1.0  0.61957  0.64425  0.91630  1.0000
  C   C4575     1.0  0.91738  0.62154  0.76666  1.0000
  H   H7849     1.0  0.99454  0.62693  0.77280  1.0000
  C   C4576     1.0  0.90749  0.60484  0.76265  1.0000
  H   H7850     1.0  0.59816  0.68209  0.91528  1.0000
  C   C4577     1.0  0.55755  0.70626  0.93158  1.0000
  C   C4578     1.0  0.55701  0.71125  0.92054  1.0000
  C   C4579     1.0  0.56690  0.71106  0.91226  1.0000
  C   C4580     1.0  0.57738  0.70621  0.91503  1.0000
  C   C4581     1.0  0.57797  0.70170  0.92614  1.0000
  C   C4582     1.0  0.56805  0.70157  0.93438  1.0000
  H   H7851     1.0  0.54895  0.71487  0.91832  1.0000
  H   H7852     1.0  0.56639  0.71459  0.90368  1.0000
  H   H7853     1.0  0.58602  0.69796  0.92834  1.0000
  H   H7854     1.0  0.56852  0.69772  0.94291  1.0000
  C   C4583     1.0  0.58661  0.72690  0.95213  1.0000
  C   C4584     1.0  0.59570  0.72650  0.95652  1.0000
  C   C4585     1.0  0.60627  0.72004  0.95277  1.0000
  C   C4586     1.0  0.60772  0.71407  0.94461  1.0000
  C   C4587     1.0  0.59854  0.71429  0.94044  1.0000
  C   C4588     1.0  0.58800  0.72067  0.94421  1.0000
  Fe  Fe668     1.0  0.77416  0.56892  0.97253  1.0000
  H   H7855     1.0  0.61337  0.71986  0.95602  1.0000
  H   H7856     1.0  0.59954  0.70952  0.93431  1.0000
  H   H7857     1.0  0.58097  0.72093  0.94081  1.0000
  C   C4589     1.0  0.93413  0.54263  0.78762  1.0000
  H   H7858     1.0  0.85191  0.57031  0.73325  1.0000
  C   C4590     1.0  0.75171  0.53619  0.97243  1.0000
  H   H7859     1.0  0.82609  0.61745  0.83022  1.0000
  H   H7860     1.0  0.92047  0.53454  0.78985  1.0000
  C   C4591     1.0  0.75423  0.55898  0.89946  1.0000
  C   C4592     1.0  0.76350  0.55126  0.89527  1.0000
  C   C4593     1.0  0.76248  0.54032  0.89620  1.0000
  C   C4594     1.0  0.75223  0.53716  0.90139  1.0000
  C   C4595     1.0  0.74296  0.54499  0.90530  1.0000
  C   C4596     1.0  0.74396  0.55587  0.90435  1.0000
  H   H7861     1.0  0.77145  0.55367  0.89144  1.0000
  H   H7862     1.0  0.76968  0.53426  0.89317  1.0000
  H   H7863     1.0  0.73499  0.54264  0.90910  1.0000
  H   H7864     1.0  0.73681  0.56181  0.90763  1.0000
  C   C4597     1.0  0.70223  0.55431  0.93257  1.0000
  C   C4598     1.0  0.69314  0.56299  0.93514  1.0000
  C   C4599     1.0  0.69297  0.57396  0.92895  1.0000
  C   C4600     1.0  0.70177  0.57622  0.91997  1.0000
  C   C4601     1.0  0.71069  0.56748  0.91718  1.0000
  C   C4602     1.0  0.71102  0.55658  0.92356  1.0000
  H   H7865     1.0  0.68622  0.56124  0.94197  1.0000
  H   H7866     1.0  0.68591  0.58061  0.93097  1.0000
  H   H7867     1.0  0.71738  0.56913  0.91009  1.0000
  H   H7868     1.0  0.71798  0.54992  0.92143  1.0000
  H   H7869     1.0  0.97062  0.62015  0.78107  1.0000
  H   H7870     1.0  0.72319  0.56729  0.94494  1.0000
  S   S1336     1.0  0.89502  0.52825  0.73675  1.0000
  C   C4603     1.0  0.74254  0.54474  0.97002  1.0000
  C   C4604     1.0  0.73283  0.60402  0.96834  1.0000
  C   C4605     1.0  0.72614  0.61365  0.96321  1.0000
  C   C4606     1.0  0.71661  0.61291  0.96007  1.0000
  C   C4607     1.0  0.71363  0.60259  0.96243  1.0000
  C   C4608     1.0  0.72023  0.59306  0.96769  1.0000
  C   C4609     1.0  0.72994  0.59374  0.97036  1.0000
  H   H7871     1.0  0.72831  0.62164  0.96170  1.0000
  H   H7872     1.0  0.71137  0.62034  0.95618  1.0000
  H   H7873     1.0  0.71793  0.58508  0.96972  1.0000
  S   S1337     1.0  0.90063  0.49522  0.74957  1.0000
  C   C4610     1.0  0.79477  0.56713  0.94843  1.0000
  C   C4611     1.0  0.78644  0.57205  0.94222  1.0000
  C   C4612     1.0  0.78931  0.57375  0.93053  1.0000
  C   C4613     1.0  0.80050  0.57042  0.92513  1.0000
  C   C4614     1.0  0.80872  0.56553  0.93140  1.0000
  C   C4615     1.0  0.80588  0.56391  0.94296  1.0000
  H   H7874     1.0  0.77785  0.57455  0.94640  1.0000
  H   H7875     1.0  0.78292  0.57757  0.92574  1.0000
  H   H7876     1.0  0.81735  0.56296  0.92729  1.0000
  H   H7877     1.0  0.81235  0.56012  0.94769  1.0000
  S   S1338     1.0  0.57349  0.73536  0.95605  1.0000
  H   H7878     1.0  0.68676  0.57203  0.98068  1.0000
  C   C4616     1.0  0.73832  0.53386  0.95939  1.0000
  C   C4617     1.0  0.74730  0.52522  0.96190  1.0000
  H   H7879     1.0  0.58431  0.72017  0.88316  1.0000
  C   C4618     1.0  0.60066  0.73093  0.88226  1.0000
  H   H7880     1.0  0.98728  0.61922  0.78553  1.0000
  H   H7881     1.0  0.73297  0.53301  0.95453  1.0000
  H   H7882     1.0  0.75380  0.49131  0.88162  1.0000
  N   N328      1.0  0.55290  0.71437  0.97312  1.0000
  H   H7883     1.0  0.61363  0.66743  0.92194  1.0000
  H   H7884     1.0  0.89930  0.61775  0.74578  1.0000
  H   H7885     1.0  0.76547  0.53714  0.94754  1.0000
  H   H7886     1.0  0.93941  0.59888  0.74698  1.0000
  C   C4619     1.0  0.75488  0.54635  0.93099  1.0000
  H   H7887     1.0  0.75134  0.54038  0.93834  1.0000
  Fe  Fe669     1.0  0.75104  0.56352  0.97982  1.0000
  C   C4620     1.0  0.87129  0.59406  0.75735  1.0000
  H   H7888     1.0  0.97961  0.63048  0.76480  1.0000
  C   C4621     1.0  0.62266  0.73535  0.92345  1.0000
  H   H7889     1.0  0.76033  0.52425  0.93205  1.0000
  H   H7890     1.0  0.58391  0.66402  0.92388  1.0000
  H   H7891     1.0  0.73850  0.55734  0.93295  1.0000
  C   C4622     1.0  0.89385  0.61972  0.75375  1.0000
  H   H7892     1.0  0.98982  0.61053  0.74480  1.0000
  H   H7893     1.0  0.77430  0.51671  0.92841  1.0000
  H   H7894     1.0  0.90402  0.63298  0.75975  1.0000
  H   H7895     1.0  0.89212  0.62605  0.77545  1.0000
  C   C4623     1.0  0.88792  0.63210  0.75114  1.0000
  C   C4624     1.0  0.74697  0.49757  0.88550  1.0000
  H   H7896     1.0  0.87445  0.58547  0.75663  1.0000
  H   H7897     1.0  0.88585  0.57047  0.74331  1.0000
  S   S1339     1.0  0.95317  0.60883  0.75495  1.0000
  C   C4625     1.0  0.98080  0.62378  0.76030  1.0000
  H   H7898     1.0  0.77243  0.53568  0.91698  1.0000
  H   H7899     1.0  0.80525  0.63575  0.85013  1.0000
  H   H7900     1.0  0.99064  0.57395  0.78708  1.0000
  C   C4626     1.0  0.95427  0.54886  0.74680  1.0000
  N   N329      1.0  0.75154  0.60785  0.93215  1.0000
  C   C4627     1.0  0.73897  0.61186  0.93354  1.0000
  C   C4628     1.0  0.75479  0.59731  0.92779  1.0000
  C   C4629     1.0  0.75709  0.61678  0.92390  1.0000
  C   C4630     1.0  0.75427  0.60582  0.94336  1.0000
  C   C4631     1.0  0.73414  0.62404  0.93490  1.0000
  C   C4632     1.0  0.74925  0.58764  0.93512  1.0000
  C   C4633     1.0  0.76924  0.61313  0.91760  1.0000
  C   C4634     1.0  0.76666  0.60148  0.94414  1.0000
  H   H7901     1.0  0.73614  0.61115  0.92632  1.0000
  H   H7902     1.0  0.73448  0.60656  0.94089  1.0000
  H   H7903     1.0  0.76395  0.59390  0.92639  1.0000
  H   H7904     1.0  0.75272  0.59912  0.91948  1.0000
  H   H7905     1.0  0.75232  0.62089  0.91723  1.0000
  H   H7906     1.0  0.75697  0.62350  0.92798  1.0000
  H   H7907     1.0  0.75151  0.61362  0.94655  1.0000
  H   H7908     1.0  0.74935  0.60012  0.94974  1.0000
  H   H7909     1.0  0.73684  0.62589  0.94160  1.0000
  H   H7910     1.0  0.73634  0.63011  0.92706  1.0000
  H   H7911     1.0  0.72484  0.62550  0.93704  1.0000
  H   H7912     1.0  0.75149  0.58480  0.94337  1.0000
  H   H7913     1.0  0.74000  0.58978  0.93612  1.0000
  H   H7914     1.0  0.75240  0.58044  0.93101  1.0000
  H   H7915     1.0  0.77236  0.62068  0.91250  1.0000
  H   H7916     1.0  0.76961  0.60806  0.91168  1.0000
  H   H7917     1.0  0.77514  0.60858  0.92307  1.0000
  H   H7918     1.0  0.77107  0.60846  0.94189  1.0000
  H   H7919     1.0  0.77125  0.59520  0.93912  1.0000
  H   H7920     1.0  0.76710  0.59706  0.95282  1.0000
  N   N330      1.0  0.69830  0.56905  0.96531  1.0000
  C   C4635     1.0  0.69043  0.57700  0.95827  1.0000
  C   C4636     1.0  0.71001  0.57039  0.95929  1.0000
  H   H7921     1.0  0.68883  0.55617  0.97332  1.0000
  C   C4637     1.0  0.69661  0.55739  0.96698  1.0000
  C   C4638     1.0  0.67777  0.57773  0.96308  1.0000
  C   C4639     1.0  0.71410  0.56734  0.94779  1.0000
  H   H7922     1.0  0.58545  0.70763  0.87156  1.0000
  C   C4640     1.0  0.94189  0.62579  0.74154  1.0000
  H   H7923     1.0  0.69186  0.58561  0.95628  1.0000
  H   H7924     1.0  0.69208  0.57476  0.95015  1.0000
  H   H7925     1.0  0.71632  0.56559  0.96423  1.0000
  H   H7926     1.0  0.71071  0.57916  0.95798  1.0000
  H   H7927     1.0  0.81690  0.55816  0.97274  1.0000
  H   H7928     1.0  0.58242  0.72157  0.86382  1.0000
  H   H7929     1.0  0.92485  0.57619  0.73551  1.0000
  C   C4641     1.0  0.99798  0.57750  0.78329  1.0000
  C   C4642     1.0  0.72335  0.50583  0.89816  1.0000
  H   H7930     1.0  0.58282  0.73335  0.89197  1.0000
  H   H7931     1.0  0.69529  0.55617  0.95918  1.0000
  H   H7932     1.0  0.55627  0.70779  0.95829  1.0000
  H   H7933     1.0  0.71301  0.55899  0.94794  1.0000
  H   H7934     1.0  0.70994  0.57368  0.94149  1.0000
  H   H7935     1.0  0.97149  0.62130  0.74914  1.0000
  C   C4643     1.0  0.97418  0.60244  0.78783  1.0000
  C   C4644     1.0  0.94173  0.53875  0.74419  1.0000
  H   H7936     1.0  0.97637  0.59430  0.78543  1.0000
  H   H7937     1.0  0.98484  0.59510  0.76786  1.0000
  H   H7938     1.0  0.71083  0.54363  0.96325  1.0000
  C   C4645     1.0  0.80478  0.61942  0.87338  1.0000
  H   H7939     1.0  0.88137  0.63305  0.74649  1.0000
  H   H7940     1.0  0.88165  0.60700  0.77513  1.0000
  H   H7941     1.0  0.61380  0.71002  0.86762  1.0000
  H   H7942     1.0  0.77006  0.52158  0.94102  1.0000
  C   C4646     1.0  0.81084  0.61606  0.86224  1.0000
  C   C4647     1.0  0.89940  0.56378  0.79593  1.0000
  C   C4648     1.0  0.93427  0.63067  0.73461  1.0000
  C   C4649     1.0  0.98294  0.60341  0.76235  1.0000
  H   H7943     1.0  0.67474  0.58203  0.97012  1.0000
  H   H7944     1.0  0.75902  0.50712  0.88594  1.0000
  H   H7945     1.0  0.56083  0.73762  0.90214  1.0000
  H   H7946     1.0  0.74021  0.49948  0.88087  1.0000
  H   H7947     1.0  0.53928  0.72464  0.95684  1.0000
  C   C4650     1.0  0.58676  0.67135  0.92428  1.0000
  C   C4651     1.0  0.99419  0.61853  0.77814  1.0000
  H   H7948     1.0  0.99532  0.60182  0.77659  1.0000
  H   H7949     1.0  0.75343  0.54432  0.92363  1.0000
  H   H7950     1.0  0.52764  0.70532  0.98203  1.0000
  H   H7951     1.0  0.55072  0.72430  0.94519  1.0000
  H   H7952     1.0  0.54114  0.73556  0.90955  1.0000
  H   H7953     1.0  0.86746  0.56664  0.74311  1.0000
  H   H7954     1.0  0.71180  0.56630  0.98147  1.0000
  N   N331      1.0  0.59689  0.72932  0.87275  1.0000
  H   H7955     1.0  0.92567  0.60767  0.73469  1.0000
  C   C4652     1.0  0.59526  0.67529  0.91371  1.0000
  H   H7956     1.0  0.93708  0.53732  0.73896  1.0000
  H   H7957     1.0  0.59028  0.67939  0.90719  1.0000
  Fe  Fe670     1.0  0.50469  0.72241  0.93845  1.0000
  H   H7958     1.0  0.85129  0.58184  0.73881  1.0000
  H   H7959     1.0  0.71035  0.49643  0.97750  1.0000
  H   H7960     1.0  0.60551  0.65702  0.92663  1.0000
  H   H7961     1.0  0.62523  0.73422  0.93136  1.0000
  H   H7962     1.0  0.96499  0.61223  0.77542  1.0000
  H   H7963     1.0  0.98057  0.60278  0.79209  1.0000
  C   C4653     1.0  0.62169  0.65183  0.91710  1.0000
  H   H7964     1.0  0.59752  0.65214  0.91423  1.0000
  C   C4654     1.0  0.58898  0.71519  0.86761  1.0000
  H   H7965     1.0  0.79732  0.61578  0.87750  1.0000
  H   H7966     1.0  0.94748  0.52915  0.76991  1.0000
  C   C4655     1.0  0.95381  0.54258  0.75765  1.0000
  S   S1340     1.0  0.52966  0.73628  0.93547  1.0000
  H   H7967     1.0  0.74127  0.49278  0.96660  1.0000
  H   H7968     1.0  0.53384  0.70806  0.96737  1.0000
  H   H7969     1.0  0.95841  0.54404  0.76290  1.0000
  S   S1341     1.0  0.97328  0.58090  0.74987  1.0000
  C   C4656     1.0  0.94383  0.61434  0.74595  1.0000
  C   C4657     1.0  0.90536  0.55029  0.77879  1.0000
  C   C4658     1.0  0.73609  0.54361  0.96329  1.0000
  C   C4659     1.0  0.76980  0.54344  0.94134  1.0000
  C   C4660     1.0  0.94759  0.53419  0.76163  1.0000
  H   H7970     1.0  0.89950  0.54593  0.78564  1.0000
  Fe  Fe671     1.0  0.51905  0.73837  0.92331  1.0000
  H   H7971     1.0  0.79684  0.59075  0.98090  1.0000
  C   C4661     1.0  0.90863  0.62426  0.75942  1.0000
  N   N332      1.0  0.80389  0.61853  0.85365  1.0000
  H   H7972     1.0  0.61639  0.73029  0.92479  1.0000
  C   C4662     1.0  0.77150  0.55453  0.92171  1.0000
  H   H7973     1.0  0.57390  0.70008  0.96452  1.0000
  H   H7974     1.0  0.87803  0.61470  0.78572  1.0000
  H   H7975     1.0  0.91583  0.55551  0.79836  1.0000
  C   C4663     1.0  0.76912  0.52376  0.93229  1.0000
  H   H7976     1.0  0.78593  0.56202  0.91455  1.0000
  H   H7977     1.0  0.54030  0.72988  0.97304  1.0000
  C   C4664     1.0  0.70621  0.54762  0.97037  1.0000
  C   C4665     1.0  0.77319  0.53452  0.92572  1.0000
  H   H7978     1.0  0.73702  0.50816  0.90351  1.0000
  N   N333      1.0  0.72548  0.59895  0.88267  1.0000
  C   C4666     1.0  0.71365  0.60516  0.88637  1.0000
  C   C4667     1.0  0.72809  0.58894  0.89178  1.0000
  C   C4668     1.0  0.72678  0.59498  0.87225  1.0000
  C   C4669     1.0  0.73332  0.60670  0.88032  1.0000
  C   C4670     1.0  0.70898  0.61518  0.87777  1.0000
  C   C4671     1.0  0.73006  0.59140  0.90215  1.0000
  C   C4672     1.0  0.71852  0.58783  0.87279  1.0000
  C   C4673     1.0  0.74591  0.60161  0.87673  1.0000
  H   H7979     1.0  0.70769  0.59947  0.88911  1.0000
  H   H7980     1.0  0.71290  0.60844  0.89380  1.0000
  H   H7981     1.0  0.73552  0.58269  0.88874  1.0000
  H   H7982     1.0  0.72116  0.58436  0.89474  1.0000
  H   H7983     1.0  0.72611  0.60211  0.86502  1.0000
  H   H7984     1.0  0.73536  0.58982  0.87004  1.0000
  H   H7985     1.0  0.73145  0.61388  0.87343  1.0000
  H   H7986     1.0  0.73205  0.61070  0.88741  1.0000
  H   H7987     1.0  0.71351  0.62202  0.87572  1.0000
  H   H7988     1.0  0.70892  0.61279  0.87010  1.0000
  H   H7989     1.0  0.70012  0.61864  0.88145  1.0000
  H   H7990     1.0  0.73054  0.58366  0.90873  1.0000
  H   H7991     1.0  0.73812  0.59403  0.90038  1.0000
  H   H7992     1.0  0.72314  0.59776  0.90559  1.0000
  H   H7993     1.0  0.70970  0.59257  0.87397  1.0000
  H   H7994     1.0  0.71928  0.58015  0.87940  1.0000
  H   H7995     1.0  0.72049  0.58515  0.86480  1.0000
  H   H7996     1.0  0.74836  0.60209  0.86764  1.0000
  H   H7997     1.0  0.74836  0.59284  0.88103  1.0000
  H   H7998     1.0  0.75093  0.60625  0.87897  1.0000
  H   H7999     1.0  0.90683  0.54635  0.80037  1.0000
  H   H8000     1.0  0.89261  0.56329  0.79232  1.0000
  H   H8001     1.0  0.91182  0.56959  0.77559  1.0000
  H   H8002     1.0  0.90184  0.57193  0.79221  1.0000
  C   C4674     1.0  0.90888  0.54329  0.76985  1.0000
  H   H8003     1.0  0.62303  0.71789  0.85746  1.0000
  H   H8004     1.0  0.71874  0.49936  0.89894  1.0000
  H   H8005     1.0  0.90013  0.55841  0.77540  1.0000
  C   C4675     1.0  0.60686  0.72822  0.86319  1.0000
  H   H8006     1.0  0.93851  0.54894  0.78155  1.0000
  H   H8007     1.0  0.89582  0.56364  0.80488  1.0000
  H   H8008     1.0  0.93026  0.55357  0.76314  1.0000
  H   H8009     1.0  0.92439  0.56461  0.78014  1.0000
  H   H8010     1.0  0.92716  0.53897  0.77604  1.0000
  C   C4676     1.0  0.88166  0.61505  0.77675  1.0000
  H   H8011     1.0  0.89790  0.61197  0.78051  1.0000
  C   C4677     1.0  0.59130  0.73369  0.89236  1.0000
  C   C4678     1.0  0.74734  0.55794  0.93178  1.0000
  C   C4679     1.0  0.90099  0.59550  0.76544  1.0000
  C   C4680     1.0  0.76658  0.55378  0.94655  1.0000
  H   H8012     1.0  0.94024  0.53452  0.78797  1.0000
  H   H8013     1.0  0.76684  0.56178  0.94055  1.0000
  H   H8014     1.0  0.74784  0.56090  0.93892  1.0000
  H   H8015     1.0  0.57920  0.67820  0.92525  1.0000
  H   H8016     1.0  0.82105  0.54368  0.97849  1.0000
  H   H8017     1.0  0.89464  0.59717  0.76040  1.0000
  H   H8018     1.0  0.87589  0.62175  0.77221  1.0000
  H   H8019     1.0  0.67313  0.58287  0.95656  1.0000
  C   C4681     1.0  0.89347  0.61752  0.77399  1.0000
  C   C4682     1.0  0.97272  0.61237  0.77788  1.0000
  H   H8020     1.0  0.71747  0.51200  0.90287  1.0000
  H   H8021     1.0  0.74907  0.56419  0.92397  1.0000
  H   H8022     1.0  0.97462  0.60399  0.76069  1.0000
  H   H8023     1.0  0.62815  0.65464  0.90988  1.0000
  H   H8024     1.0  0.71032  0.49590  0.92405  1.0000
  C   C4683     1.0  0.99160  0.60296  0.75130  1.0000
  H   H8025     1.0  0.94623  0.63096  0.74357  1.0000
  H   H8026     1.0  0.54936  0.73332  0.95413  1.0000
  H   H8027     1.0  0.77882  0.53970  0.94131  1.0000
  H   H8028     1.0  0.50910  0.71877  0.90321  1.0000
  C   C4684     1.0  0.61651  0.71804  0.86525  1.0000
  C   C4685     1.0  0.61113  0.66103  0.91924  1.0000
  H   H8029     1.0  0.76708  0.56270  0.92378  1.0000
  H   H8030     1.0  0.74487  0.51526  0.88597  1.0000
  S   S1342     1.0  0.74509  0.60458  0.97183  1.0000
  C   C4686     1.0  0.56360  0.70958  0.97736  1.0000
  H   H8031     1.0  0.96262  0.62667  0.76102  1.0000
  H   H8032     1.0  0.67553  0.56946  0.96554  1.0000
  H   H8033     1.0  0.61101  0.73928  0.89500  1.0000
  H   H8034     1.0  0.60662  0.72335  0.88549  1.0000
  H   H8035     1.0  0.73507  0.58623  0.97410  1.0000
  S   S1343     1.0  0.96200  0.55943  0.74161  1.0000
  C   C4687     1.0  0.55586  0.71570  0.96064  1.0000
  H   H8036     1.0  0.59464  0.73124  0.96270  1.0000
  H   H8037     1.0  0.60746  0.65441  0.88999  1.0000
  H   H8038     1.0  0.70257  0.54101  0.97683  1.0000
  H   H8039     1.0  0.87192  0.55062  0.73509  1.0000
  H   H8040     1.0  0.89992  0.56628  0.73659  1.0000
  N   N334      1.0  0.84264  0.55292  0.83847  1.0000
  C   C4688     1.0  0.83013  0.55361  0.84110  1.0000
  C   C4689     1.0  0.84564  0.55960  0.82683  1.0000
  C   C4690     1.0  0.84516  0.55798  0.84667  1.0000
  C   C4691     1.0  0.84841  0.54079  0.83958  1.0000
  C   C4692     1.0  0.82471  0.54937  0.85337  1.0000
  C   C4693     1.0  0.84366  0.55524  0.81756  1.0000
  C   C4694     1.0  0.85614  0.56225  0.84333  1.0000
  C   C4695     1.0  0.86132  0.53807  0.83610  1.0000
  H   H8041     1.0  0.82555  0.56236  0.83868  1.0000
  H   H8042     1.0  0.82794  0.54882  0.83621  1.0000
  H   H8043     1.0  0.85453  0.56028  0.82444  1.0000
  H   H8044     1.0  0.84084  0.56837  0.82627  1.0000
  H   H8045     1.0  0.83841  0.56534  0.84843  1.0000
  H   H8046     1.0  0.84523  0.55199  0.85480  1.0000
  H   H8047     1.0  0.84639  0.53624  0.84834  1.0000
  H   H8048     1.0  0.84512  0.53651  0.83505  1.0000
  H   H8049     1.0  0.81566  0.54992  0.85403  1.0000
  H   H8050     1.0  0.82845  0.54055  0.85657  1.0000
  H   H8051     1.0  0.82506  0.55466  0.85881  1.0000
  H   H8052     1.0  0.84639  0.56074  0.80944  1.0000
  H   H8053     1.0  0.84879  0.54675  0.81712  1.0000
  H   H8054     1.0  0.83469  0.55546  0.81836  1.0000
  H   H8055     1.0  0.85583  0.56964  0.83638  1.0000
  H   H8056     1.0  0.86370  0.55585  0.84118  1.0000
  H   H8057     1.0  0.85711  0.56510  0.85041  1.0000
  H   H8058     1.0  0.86519  0.53693  0.84325  1.0000
  H   H8059     1.0  0.86483  0.54429  0.82912  1.0000
  H   H8060     1.0  0.86410  0.53021  0.83300  1.0000
  N   N335      1.0  0.60513  0.66645  0.90980  1.0000
  N   N336      1.0  0.90060  0.61653  0.76261  1.0000
  C   C4696     1.0  0.61282  0.67237  0.90021  1.0000
  H   H8061     1.0  0.50724  0.73014  0.89191  1.0000
  C   C4697     1.0  0.60080  0.65807  0.90666  1.0000
  C   C4698     1.0  0.87284  0.60264  0.74796  1.0000
  C   C4699     1.0  0.60762  0.67919  0.89021  1.0000
  H   H8062     1.0  0.56438  0.71746  0.95711  1.0000
  C   C4700     1.0  0.60912  0.65109  0.89848  1.0000
  C   C4701     1.0  0.78804  0.61212  0.84959  1.0000
  H   H8063     1.0  0.88732  0.61478  0.75586  1.0000
  H   H8064     1.0  0.62052  0.66663  0.89694  1.0000
  H   H8065     1.0  0.61599  0.67821  0.90304  1.0000
  C   C4702     1.0  0.92381  0.54170  0.78401  1.0000
  H   H8066     1.0  0.62566  0.64931  0.92440  1.0000
  H   H8067     1.0  0.72383  0.49971  0.97333  1.0000
  H   H8068     1.0  0.59351  0.66240  0.90269  1.0000
  H   H8069     1.0  0.98841  0.62464  0.75359  1.0000
  S   S1344     1.0  0.92160  0.51662  0.73694  1.0000
  H   H8070     1.0  0.78072  0.60830  0.85412  1.0000
  H   H8071     1.0  0.60189  0.68706  0.89203  1.0000
  H   H8072     1.0  0.61442  0.68161  0.88310  1.0000
  H   H8073     1.0  0.60310  0.67443  0.88753  1.0000
  C   C4703     1.0  0.71940  0.49276  0.97720  1.0000
  C   C4704     1.0  0.69546  0.57268  0.97620  1.0000
  H   H8074     1.0  0.58613  0.73841  0.86122  1.0000
  C   C4705     1.0  0.58803  0.73916  0.86892  1.0000
  H   H8075     1.0  0.61809  0.65026  0.89812  1.0000
  H   H8076     1.0  0.60761  0.64249  0.90095  1.0000
  H   H8077     1.0  0.81789  0.62048  0.85913  1.0000
  H   H8078     1.0  0.81476  0.60700  0.86408  1.0000
  H   H8079     1.0  0.78782  0.64414  0.85835  1.0000
  H   H8080     1.0  0.59791  0.71185  0.88069  1.0000
  H   H8081     1.0  0.91866  0.56408  0.75864  1.0000
  H   H8082     1.0  0.80699  0.61689  0.83656  1.0000
  C   C4706     1.0  0.82223  0.61947  0.83852  1.0000
  H   H8083     1.0  0.72930  0.55029  0.96106  1.0000
  C   C4707     1.0  0.54822  0.72506  0.95397  1.0000
  H   H8084     1.0  0.81062  0.61624  0.87917  1.0000
  C   C4708     1.0  0.59208  0.71900  0.87661  1.0000
  C   C4709     1.0  0.79904  0.63086  0.85051  1.0000
  C   C4710     1.0  0.90956  0.55394  0.79476  1.0000
  H   H8085     1.0  0.75817  0.55432  0.95217  1.0000
  H   H8086     1.0  0.81426  0.60554  0.84514  1.0000
  C   C4711     1.0  0.79507  0.61158  0.85790  1.0000
  C   C4712     1.0  0.81151  0.61474  0.84343  1.0000
  H   H8087     1.0  0.79906  0.60264  0.86050  1.0000
  C   C4713     1.0  0.78783  0.63555  0.85796  1.0000
  C   C4714     1.0  0.91886  0.56220  0.77616  1.0000
  H   H8088     1.0  0.80249  0.62861  0.87239  1.0000
  H   H8089     1.0  0.79294  0.60714  0.84329  1.0000
  H   H8090     1.0  0.54895  0.69831  0.97566  1.0000
  N   N337      1.0  0.91457  0.55203  0.78315  1.0000
  H   H8091     1.0  0.78615  0.63086  0.86663  1.0000
  H   H8092     1.0  0.78910  0.61366  0.86550  1.0000
  H   H8093     1.0  0.90703  0.58775  0.76367  1.0000
  H   H8094     1.0  0.59310  0.72770  0.90005  1.0000
  C   C4715     1.0  0.92481  0.56176  0.76405  1.0000
  H   H8095     1.0  0.82050  0.62865  0.83742  1.0000
  N   N338      1.0  0.68647  0.66317  0.92112  1.0000
  C   C4716     1.0  0.69845  0.65685  0.91823  1.0000
  C   C4717     1.0  0.68009  0.66075  0.91400  1.0000
  C   C4718     1.0  0.68177  0.65855  0.93315  1.0000
  C   C4719     1.0  0.68642  0.67540  0.91915  1.0000
  C   C4720     1.0  0.70638  0.65685  0.92548  1.0000
  C   C4721     1.0  0.68435  0.66424  0.90136  1.0000
  C   C4722     1.0  0.66973  0.66412  0.93807  1.0000
  C   C4723     1.0  0.67539  0.68381  0.91712  1.0000
  H   H8096     1.0  0.69872  0.64797  0.91854  1.0000
  H   H8097     1.0  0.70251  0.66021  0.90954  1.0000
  H   H8098     1.0  0.67105  0.66459  0.91585  1.0000
  H   H8099     1.0  0.68039  0.65163  0.91587  1.0000
  H   H8100     1.0  0.68203  0.64949  0.93449  1.0000
  H   H8101     1.0  0.68689  0.65924  0.93863  1.0000
  H   H8102     1.0  0.68870  0.67713  0.92623  1.0000
  H   H8103     1.0  0.69301  0.67774  0.91173  1.0000
  H   H8104     1.0  0.70586  0.66529  0.92661  1.0000
  H   H8105     1.0  0.70481  0.65105  0.93367  1.0000
  H   H8106     1.0  0.71517  0.65369  0.92136  1.0000
  H   H8107     1.0  0.69219  0.65842  0.89841  1.0000
  H   H8108     1.0  0.67799  0.66379  0.89708  1.0000
  H   H8109     1.0  0.68568  0.67287  0.89875  1.0000
  H   H8110     1.0  0.66360  0.66415  0.93338  1.0000
  H   H8111     1.0  0.66925  0.67270  0.93884  1.0000
  H   H8112     1.0  0.66709  0.65928  0.94660  1.0000
  H   H8113     1.0  0.66768  0.68048  0.92029  1.0000
  H   H8114     1.0  0.67606  0.68770  0.90816  1.0000
  H   H8115     1.0  0.79740  0.63300  0.84199  1.0000
  H   H8116     1.0  0.63015  0.73186  0.91757  1.0000
  H   H8117     1.0  0.89394  0.63725  0.74572  1.0000
  H   H8118     1.0  0.97001  0.63543  0.74971  1.0000
  C   C4724     1.0  0.99340  0.61038  0.77156  1.0000
  H   H8119     1.0  0.60427  0.72811  0.85560  1.0000
  C   C4725     1.0  0.57098  0.69885  0.97367  1.0000
  H   H8120     1.0  0.96612  0.60272  0.79404  1.0000
  H   H8121     1.0  0.56217  0.73578  0.93336  1.0000
  C   C4726     1.0  0.50676  0.72801  0.90095  1.0000
  H   H8122     1.0  0.76106  0.51972  0.97032  1.0000
  C   C4727     1.0  0.94847  0.54670  0.73999  1.0000
  H   H8123     1.0  0.88880  0.55414  0.73512  1.0000
  H   H8124     1.0  0.71223  0.54975  0.97383  1.0000
  H   H8125     1.0  0.88380  0.63540  0.75875  1.0000
  S   S1345     1.0  0.73838  0.55670  0.97568  1.0000
  H   H8126     1.0  0.69575  0.58163  0.97469  1.0000
  Fe  Fe672     1.0  0.51357  0.73702  0.94821  1.0000
  C   C4728     1.0  0.75407  0.52639  0.96837  1.0000
  H   H8127     1.0  0.60557  0.73758  0.87930  1.0000
  C   C4729     1.0  0.73378  0.50098  0.90325  1.0000
  C   C4730     1.0  0.86823  0.57227  0.73472  1.0000
  S   S1346     1.0  0.87938  0.59908  0.73512  1.0000
  C   C4731     1.0  0.89138  0.56996  0.73502  1.0000
  H   H8128     1.0  0.55389  0.73123  0.97240  1.0000
  H   H8129     1.0  0.75675  0.53700  0.97763  1.0000
  H   H8130     1.0  0.87092  0.57947  0.73566  1.0000
  H   H8131     1.0  0.56899  0.71585  0.97472  1.0000
  C   C4732     1.0  0.54794  0.72554  0.97628  1.0000
  H   H8132     1.0  0.52951  0.71881  0.97534  1.0000
  H   H8133     1.0  0.51308  0.73154  0.90264  1.0000
  H   H8134     1.0  0.56669  0.69176  0.97685  1.0000
  C   C4733     1.0  0.75134  0.50839  0.88280  1.0000
  H   H8135     1.0  0.73070  0.49718  0.91206  1.0000
  N   N339      1.0  0.74302  0.49276  0.89765  1.0000
  H   H8136     1.0  0.80328  0.57265  0.97770  1.0000
  S   S1347     1.0  0.99771  0.57208  0.76388  1.0000
  H   H8137     1.0  0.57864  0.69640  0.97714  1.0000
  C   C4734     1.0  0.75283  0.49012  0.90317  1.0000
  H   H8138     1.0  0.61072  0.73562  0.86086  1.0000
  H   H8139     1.0  0.73903  0.49035  0.95444  1.0000
  C   C4735     1.0  0.54516  0.70636  0.97832  1.0000
  H   H8140     1.0  0.57990  0.73943  0.87505  1.0000
  H   H8141     1.0  0.64283  0.90221  0.22514  1.0000
  H   H8142     1.0  0.55677  0.79036  0.99988  1.0000
  Fe  Fe673     1.0  0.60547  0.86919  0.20946  1.0000
  S   S1348     1.0  0.60230  0.88787  0.20235  1.0000
  Fe  Fe674     1.0  0.61161  0.84560  0.20436  1.0000
  C   C4736     1.0  0.62579  0.75772  0.08440  1.0000
  S   S1349     1.0  0.61520  0.83348  0.19259  1.0000
  H   H8143     1.0  0.56412  0.74336  0.15144  1.0000
  C   C4737     1.0  0.55266  0.76172  0.04081  1.0000
  S   S1350     1.0  0.59527  0.85779  0.20796  1.0000
  S   S1351     1.0  0.62199  0.85762  0.20442  1.0000
  Fe  Fe675     1.0  0.58876  0.80153  0.15996  1.0000
  S   S1352     1.0  0.57934  0.78794  0.16957  1.0000
  S   S1353     1.0  0.58639  0.81590  0.16886  1.0000
  Fe  Fe676     1.0  0.59532  0.79157  0.13869  1.0000
  S   S1354     1.0  0.58665  0.77751  0.14728  1.0000
  S   S1355     1.0  0.60335  0.79273  0.12029  1.0000
  Fe  Fe677     1.0  0.57268  0.79023  0.15434  1.0000
  S   S1356     1.0  0.55497  0.79145  0.15263  1.0000
  Fe  Fe678     1.0  0.59422  0.77651  0.16143  1.0000
  S   S1357     1.0  0.60145  0.75909  0.16966  1.0000
  S   S1358     1.0  0.58096  0.80459  0.14511  1.0000
  S   S1359     1.0  0.60409  0.78976  0.15253  1.0000
  Fe  Fe679     1.0  0.62021  0.85090  0.22289  1.0000
  S   S1360     1.0  0.60093  0.76864  0.06188  1.0000
  H   H8144     1.0  0.60534  0.75316  0.09579  1.0000
  C   C4738     1.0  0.55422  0.78475  0.11374  1.0000
  S   S1361     1.0  0.57468  0.76712  0.06675  1.0000
  C   C4739     1.0  0.59068  0.82520  0.21705  1.0000
  Fe  Fe680     1.0  0.58955  0.76576  0.05249  1.0000
  S   S1362     1.0  0.58751  0.77436  0.03487  1.0000
  Fe  Fe681     1.0  0.58649  0.76798  0.07670  1.0000
  S   S1363     1.0  0.57971  0.77783  0.09037  1.0000
  H   H8145     1.0  0.62378  0.79932  0.21204  1.0000
  C   C4740     1.0  0.58408  0.74947  0.02247  1.0000
  C   C4741     1.0  0.53762  0.81811  0.17151  1.0000
  H   H8146     1.0  0.56327  0.82765  0.18054  1.0000
  H   H8147     1.0  0.54309  0.92590  0.22049  1.0000
  S   S1364     1.0  0.51503  0.74920  0.14110  1.0000
  Fe  Fe682     1.0  0.52574  0.74555  0.12491  1.0000
  S   S1365     1.0  0.52470  0.75712  0.10842  1.0000
  C   C4742     1.0  0.63162  0.74307  0.09972  1.0000
  S   S1366     1.0  0.53828  0.74683  0.15935  1.0000
  H   H8148     1.0  0.53595  0.75903  0.01187  1.0000
  Fe  Fe683     1.0  0.57495  0.75415  0.98684  1.0000
  H   H8149     1.0  0.58106  0.80658  0.22265  1.0000
  H   H8150     1.0  0.56192  0.81013  0.18158  1.0000
  H   H8151     1.0  0.61200  0.79292  0.21642  1.0000
  H   H8152     1.0  0.63416  0.75651  0.07868  1.0000
  C   C4743     1.0  0.58622  0.76658  0.02587  1.0000
  C   C4744     1.0  0.58554  0.75536  0.02961  1.0000
  C   C4745     1.0  0.57446  0.92562  0.20940  1.0000
  C   C4746     1.0  0.58313  0.75474  0.01152  1.0000
  C   C4747     1.0  0.58387  0.76594  0.00770  1.0000
  C   C4748     1.0  0.58541  0.77183  0.01486  1.0000
  H   H8153     1.0  0.54951  0.80044  0.09149  1.0000
  H   H8154     1.0  0.52337  0.77337  0.12161  1.0000
  H   H8155     1.0  0.58324  0.77008  0.99926  1.0000
  H   H8156     1.0  0.58594  0.78049  0.01187  1.0000
  H   H8157     1.0  0.61696  0.75634  0.11274  1.0000
  C   C4749     1.0  0.55069  0.75380  0.08215  1.0000
  C   C4750     1.0  0.54075  0.75821  0.08908  1.0000
  C   C4751     1.0  0.53657  0.75159  0.09922  1.0000
  H   H8158     1.0  0.52936  0.89505  0.21551  1.0000
  H   H8159     1.0  0.56416  0.76597  0.02551  1.0000
  H   H8160     1.0  0.55396  0.75890  0.07433  1.0000
  H   H8161     1.0  0.53644  0.76676  0.08666  1.0000
  H   H8162     1.0  0.59975  0.75642  0.12852  1.0000
  H   H8163     1.0  0.58056  0.89616  0.21805  1.0000
  C   C4752     1.0  0.55064  0.77894  0.15420  1.0000
  C   C4753     1.0  0.54279  0.77882  0.14834  1.0000
  C   C4754     1.0  0.53905  0.76899  0.14964  1.0000
  C   C4755     1.0  0.54281  0.75936  0.15717  1.0000
  C   C4756     1.0  0.55040  0.75961  0.16326  1.0000
  C   C4757     1.0  0.55452  0.76926  0.16158  1.0000
  H   H8164     1.0  0.53956  0.78637  0.14285  1.0000
  H   H8165     1.0  0.53303  0.76893  0.14511  1.0000
  H   H8166     1.0  0.55323  0.75224  0.16920  1.0000
  H   H8167     1.0  0.56045  0.76929  0.16625  1.0000
  C   C4758     1.0  0.59722  0.78805  0.11194  1.0000
  C   C4759     1.0  0.58887  0.78189  0.11671  1.0000
  C   C4760     1.0  0.58417  0.77815  0.11003  1.0000
  C   C4761     1.0  0.58753  0.78073  0.09842  1.0000
  C   C4762     1.0  0.59583  0.78698  0.09359  1.0000
  C   C4763     1.0  0.60077  0.79048  0.10033  1.0000
  H   H8168     1.0  0.58587  0.78018  0.12555  1.0000
  H   H8169     1.0  0.57776  0.77340  0.11392  1.0000
  H   H8170     1.0  0.59817  0.78945  0.08465  1.0000
  H   H8171     1.0  0.60708  0.79541  0.09652  1.0000
  C   C4764     1.0  0.61326  0.75738  0.14868  1.0000
  C   C4765     1.0  0.60842  0.75176  0.15913  1.0000
  H   H8172     1.0  0.62157  0.75165  0.08328  1.0000
  S   S1367     1.0  0.61181  0.83769  0.22237  1.0000
  H   H8173     1.0  0.61305  0.76619  0.14720  1.0000
  C   C4766     1.0  0.54216  0.74054  0.10226  1.0000
  H   H8174     1.0  0.55384  0.75273  0.04113  1.0000
  C   C4767     1.0  0.60706  0.82897  0.18578  1.0000
  C   C4768     1.0  0.59591  0.83421  0.18527  1.0000
  C   C4769     1.0  0.58981  0.83012  0.18004  1.0000
  C   C4770     1.0  0.59468  0.82071  0.17524  1.0000
  C   C4771     1.0  0.60581  0.81545  0.17580  1.0000
  C   C4772     1.0  0.61193  0.81958  0.18096  1.0000
  H   H8175     1.0  0.59201  0.84148  0.18882  1.0000
  H   H8176     1.0  0.58126  0.83437  0.17964  1.0000
  H   H8177     1.0  0.60975  0.80824  0.17215  1.0000
  H   H8178     1.0  0.62054  0.81543  0.18123  1.0000
  H   H8179     1.0  0.58526  0.76115  0.13413  1.0000
  C   C4773     1.0  0.55878  0.83359  0.17428  1.0000
  H   H8180     1.0  0.54822  0.77509  0.00352  1.0000
  H   H8181     1.0  0.61045  0.77073  0.08394  1.0000
  C   C4774     1.0  0.60429  0.90834  0.20385  1.0000
  C   C4775     1.0  0.55001  0.75621  0.02020  1.0000
  C   C4776     1.0  0.55447  0.78630  0.00878  1.0000
  H   H8182     1.0  0.56184  0.76964  0.00631  1.0000
  H   H8183     1.0  0.55829  0.76286  0.10008  1.0000
  H   H8184     1.0  0.60257  0.91121  0.19561  1.0000
  S   S1368     1.0  0.61376  0.92071  0.22518  1.0000
  C   C4777     1.0  0.60719  0.89345  0.21975  1.0000
  H   H8185     1.0  0.65139  0.91559  0.23030  1.0000
  H   H8186     1.0  0.50549  0.74576  0.08483  1.0000
  H   H8187     1.0  0.55388  0.77736  0.02982  1.0000
  C   C4778     1.0  0.55180  0.79665  0.11573  1.0000
  S   S1369     1.0  0.60369  0.97878  0.22306  1.0000
  H   H8188     1.0  0.56135  0.78627  0.01261  1.0000
  H   H8189     1.0  0.53515  0.80167  0.09931  1.0000
  Fe  Fe684     1.0  0.60472  0.74996  0.06750  1.0000
  S   S1370     1.0  0.56283  0.74553  0.98423  1.0000
  N   N340      1.0  0.54886  0.81914  0.17249  1.0000
  H   H8190     1.0  0.65018  0.88212  0.22936  1.0000
  C   C4779     1.0  0.60627  0.91586  0.20902  1.0000
  H   H8191     1.0  0.54600  0.79740  0.12384  1.0000
  H   H8192     1.0  0.58063  0.93581  0.21700  1.0000
  H   H8193     1.0  0.63726  0.77691  0.10020  1.0000
  H   H8194     1.0  0.55978  0.79845  0.11610  1.0000
  C   C4780     1.0  0.60485  0.89707  0.20914  1.0000
  H   H8195     1.0  0.61977  0.77010  0.07086  1.0000
  C   C4781     1.0  0.60887  0.91216  0.21953  1.0000
  H   H8196     1.0  0.53420  0.78307  0.12735  1.0000
  C   C4782     1.0  0.55500  0.82618  0.15130  1.0000
  Fe  Fe685     1.0  0.58044  0.74870  0.07162  1.0000
  C   C4783     1.0  0.57799  0.82830  0.21727  1.0000
  C   C4784     1.0  0.57513  0.90092  0.21212  1.0000
  H   H8197     1.0  0.54034  0.76536  0.11330  1.0000
  H   H8198     1.0  0.55776  0.80924  0.16023  1.0000
  H   H8199     1.0  0.57521  0.83753  0.21574  1.0000
  C   C4785     1.0  0.61579  0.75820  0.10406  1.0000
  S   S1371     1.0  0.59466  0.74717  0.05700  1.0000
  H   H8200     1.0  0.58132  0.94055  0.20246  1.0000
  H   H8201     1.0  0.51573  0.78726  0.12168  1.0000
  H   H8202     1.0  0.59472  0.82859  0.20838  1.0000
  C   C4786     1.0  0.55624  0.74271  0.08528  1.0000
  H   H8203     1.0  0.54652  0.79149  0.01248  1.0000
  H   H8204     1.0  0.64945  0.74323  0.09166  1.0000
  C   C4787     1.0  0.57086  0.74732  0.14551  1.0000
  H   H8205     1.0  0.61674  0.79761  0.22623  1.0000
  C   C4788     1.0  0.50450  0.75310  0.08830  1.0000
  C   C4789     1.0  0.56559  0.75474  0.13575  1.0000
  H   H8206     1.0  0.51399  0.88569  0.22553  1.0000
  C   C4790     1.0  0.54773  0.83054  0.17452  1.0000
  H   H8207     1.0  0.54229  0.83138  0.18280  1.0000
  H   H8208     1.0  0.53672  0.88939  0.22643  1.0000
  H   H8209     1.0  0.54848  0.80311  0.10902  1.0000
  H   H8210     1.0  0.57235  0.75291  0.15007  1.0000
  H   H8211     1.0  0.57168  0.89475  0.21014  1.0000
  N   N341      1.0  0.54485  0.78108  0.11143  1.0000
  H   H8212     1.0  0.57284  0.82491  0.22530  1.0000
  C   C4791     1.0  0.59252  0.75410  0.13510  1.0000
  C   C4792     1.0  0.59025  0.74330  0.13381  1.0000
  H   H8213     1.0  0.60847  0.74331  0.10838  1.0000
  H   H8214     1.0  0.58830  0.74531  0.12551  1.0000
  H   H8215     1.0  0.55837  0.75166  0.13532  1.0000
  H   H8216     1.0  0.57146  0.75545  0.12761  1.0000
  H   H8217     1.0  0.56249  0.76338  0.13712  1.0000
  Fe  Fe686     1.0  0.60290  0.93669  0.23012  1.0000
  C   C4793     1.0  0.55334  0.77435  0.00960  1.0000
  H   H8218     1.0  0.53021  0.81280  0.18941  1.0000
  S   S1372     1.0  0.58048  0.74704  0.00325  1.0000
  H   H8219     1.0  0.56206  0.82434  0.14425  1.0000
  H   H8220     1.0  0.57000  0.92736  0.20255  1.0000
  H   H8221     1.0  0.54341  0.83717  0.16848  1.0000
  C   C4794     1.0  0.60995  0.98388  0.23088  1.0000
  C   C4795     1.0  0.54194  0.79679  0.09398  1.0000
  S   S1373     1.0  0.59390  0.95223  0.22005  1.0000
  H   H8222     1.0  0.51049  0.74489  0.10337  1.0000
  S   S1374     1.0  0.59097  0.74944  0.08274  1.0000
  H   H8223     1.0  0.54820  0.81274  0.19004  1.0000
  S   S1375     1.0  0.53475  0.76610  0.98400  1.0000
  C   C4796     1.0  0.52811  0.81895  0.18193  1.0000
  H   H8224     1.0  0.55882  0.76235  0.04524  1.0000
  Fe  Fe687     1.0  0.53096  0.74191  0.14751  1.0000
  C   C4797     1.0  0.55508  0.76866  0.02891  1.0000
  N   N342      1.0  0.62694  0.75539  0.09626  1.0000
  C   C4798     1.0  0.61942  0.76939  0.07977  1.0000
  H   H8225     1.0  0.53453  0.82478  0.16473  1.0000
  N   N343      1.0  0.54844  0.76815  0.02098  1.0000
  C   C4799     1.0  0.63027  0.77295  0.10077  1.0000
  H   H8226     1.0  0.52569  0.82746  0.18361  1.0000
  C   C4800     1.0  0.59107  0.80577  0.20616  1.0000
  H   H8227     1.0  0.54401  0.79662  0.18848  1.0000
  H   H8228     1.0  0.57614  0.82561  0.21055  1.0000
  H   H8229     1.0  0.55283  0.79637  0.17472  1.0000
  H   H8230     1.0  0.53949  0.77993  0.09705  1.0000
  H   H8231     1.0  0.62326  0.77604  0.08014  1.0000
  H   H8232     1.0  0.54734  0.82573  0.14901  1.0000
  C   C4801     1.0  0.55193  0.79843  0.18280  1.0000
  H   H8233     1.0  0.55458  0.83478  0.15190  1.0000
  H   H8234     1.0  0.53871  0.79785  0.08644  1.0000
  H   H8235     1.0  0.62475  0.77890  0.09546  1.0000
  H   H8236     1.0  0.63262  0.74098  0.10845  1.0000
  H   H8237     1.0  0.59845  0.79956  0.20299  1.0000
  C   C4802     1.0  0.57614  0.93682  0.21037  1.0000
  H   H8238     1.0  0.55336  0.78121  0.09432  1.0000
  C   C4803     1.0  0.54692  0.76853  0.11489  1.0000
  C   C4804     1.0  0.52822  0.89182  0.22462  1.0000
  C   C4805     1.0  0.53377  0.78566  0.11843  1.0000
  H   H8239     1.0  0.61221  0.81729  0.21597  1.0000
  H   H8240     1.0  0.52277  0.78358  0.10866  1.0000
  H   H8241     1.0  0.54645  0.76580  0.12400  1.0000
  C   C4806     1.0  0.63514  0.76161  0.09728  1.0000
  C   C4807     1.0  0.57680  0.91413  0.22763  1.0000
  H   H8242     1.0  0.56165  0.78412  0.10681  1.0000
  H   H8243     1.0  0.52697  0.87615  0.22232  1.0000
  H   H8244     1.0  0.56549  0.76462  0.10969  1.0000
  C   C4808     1.0  0.55810  0.76206  0.10897  1.0000
  H   H8245     1.0  0.53828  0.81017  0.16907  1.0000
  C   C4809     1.0  0.52343  0.78218  0.11739  1.0000
  C   C4810     1.0  0.60919  0.90095  0.22490  1.0000
  C   C4811     1.0  0.54487  0.78427  0.09920  1.0000
  C   C4812     1.0  0.56963  0.86520  0.23073  1.0000
  H   H8246     1.0  0.55896  0.75304  0.11281  1.0000
  Fe  Fe688     1.0  0.59926  0.96172  0.22962  1.0000
  H   H8247     1.0  0.63809  0.92205  0.22645  1.0000
  H   H8248     1.0  0.51155  0.76671  0.98726  1.0000
  H   H8249     1.0  0.52232  0.77214  0.03843  1.0000
  H   H8250     1.0  0.58336  0.80413  0.20495  1.0000
  H   H8251     1.0  0.56448  0.83414  0.16597  1.0000
  H   H8252     1.0  0.60867  0.81312  0.20560  1.0000
  H   H8253     1.0  0.60627  0.92441  0.20466  1.0000
  C   C4813     1.0  0.55294  0.81046  0.18200  1.0000
  H   H8254     1.0  0.57286  0.86302  0.22271  1.0000
  H   H8255     1.0  0.64149  0.76303  0.08939  1.0000
  C   C4814     1.0  0.50261  0.75030  0.10106  1.0000
  H   H8256     1.0  0.59462  0.75324  0.14314  1.0000
  H   H8257     1.0  0.62189  0.75612  0.13196  1.0000
  H   H8258     1.0  0.53557  0.78147  0.02708  1.0000
  C   C4815     1.0  0.53628  0.77377  0.02421  1.0000
  C   C4816     1.0  0.60667  0.75224  0.10419  1.0000
  H   H8259     1.0  0.58598  0.75123  0.03805  1.0000
  H   H8260     1.0  0.61201  0.76724  0.10212  1.0000
  C   C4817     1.0  0.55725  0.81746  0.16190  1.0000
  C   C4818     1.0  0.61828  0.75167  0.14005  1.0000
  H   H8261     1.0  0.64010  0.75657  0.10362  1.0000
  C   C4819     1.0  0.59008  0.80527  0.21856  1.0000
  H   H8262     1.0  0.58292  0.92085  0.20621  1.0000
  C   C4820     1.0  0.54908  0.93139  0.21886  1.0000
  H   H8263     1.0  0.56587  0.81714  0.16265  1.0000
  H   H8264     1.0  0.59334  0.79647  0.22245  1.0000
  H   H8265     1.0  0.60763  0.88484  0.22395  1.0000
  H   H8266     1.0  0.50181  0.75828  0.10345  1.0000
  H   H8267     1.0  0.59857  0.75617  0.10899  1.0000
  H   H8268     1.0  0.56805  0.94292  0.21179  1.0000
  H   H8269     1.0  0.55867  0.79248  0.18672  1.0000
  H   H8270     1.0  0.62559  0.77189  0.10955  1.0000
  H   H8271     1.0  0.55706  0.77917  0.12126  1.0000
  H   H8272     1.0  0.52057  0.81724  0.18045  1.0000
  H   H8273     1.0  0.56044  0.88149  0.22425  1.0000
  H   H8274     1.0  0.53180  0.79488  0.11672  1.0000
  H   H8275     1.0  0.59185  0.81410  0.20095  1.0000
  H   H8276     1.0  0.52304  0.89886  0.22848  1.0000
  H   H8277     1.0  0.55686  0.84194  0.17628  1.0000
  N   N344      1.0  0.59588  0.81301  0.22084  1.0000
  H   H8278     1.0  0.53277  0.75965  0.03877  1.0000
  S   S1376     1.0  0.60424  0.86284  0.22775  1.0000
  C   C4821     1.0  0.60800  0.81125  0.21470  1.0000
  H   H8279     1.0  0.58353  0.74082  0.02550  1.0000
  H   H8280     1.0  0.59229  0.83038  0.22194  1.0000
  H   H8281     1.0  0.58510  0.91004  0.22326  1.0000
  Fe  Fe689     1.0  0.59601  0.85028  0.22577  1.0000
  N   N345      1.0  0.56873  0.91879  0.21991  1.0000
  H   H8282     1.0  0.56035  0.93238  0.22838  1.0000
  C   C4822     1.0  0.61537  0.79953  0.21767  1.0000
  C   C4823     1.0  0.52854  0.76670  0.03313  1.0000
  H   H8283     1.0  0.55912  0.75229  0.01835  1.0000
  C   C4824     1.0  0.56539  0.90964  0.21704  1.0000
  H   H8284     1.0  0.58029  0.90473  0.20426  1.0000
  C   C4825     1.0  0.52224  0.88202  0.22789  1.0000
  C   C4826     1.0  0.64097  0.88530  0.23127  1.0000
  H   H8285     1.0  0.54446  0.93940  0.22133  1.0000
  H   H8286     1.0  0.55238  0.93360  0.20982  1.0000
  H   H8287     1.0  0.57853  0.92093  0.23037  1.0000
  H   H8288     1.0  0.54663  0.75095  0.02815  1.0000
  H   H8289     1.0  0.56017  0.90514  0.22441  1.0000
  H   H8290     1.0  0.55994  0.91316  0.21089  1.0000
  C   C4827     1.0  0.54481  0.75453  0.01135  1.0000
  H   H8291     1.0  0.53242  0.77660  0.01679  1.0000
  H   H8292     1.0  0.50482  0.87229  0.22843  1.0000
  H   H8293     1.0  0.51240  0.75621  0.08481  1.0000
  H   H8294     1.0  0.54428  0.76511  0.04552  1.0000
  H   H8295     1.0  0.52356  0.76360  0.02917  1.0000
  H   H8296     1.0  0.54971  0.75716  0.00287  1.0000
  H   H8297     1.0  0.63775  0.88494  0.22416  1.0000
  C   C4828     1.0  0.55832  0.92582  0.22558  1.0000
  C   C4829     1.0  0.61825  0.74037  0.14177  1.0000
  H   H8298     1.0  0.54510  0.74551  0.01250  1.0000
  C   C4830     1.0  0.60874  0.74037  0.16097  1.0000
  H   H8299     1.0  0.58798  0.74040  0.15602  1.0000
  C   C4831     1.0  0.56268  0.87566  0.23159  1.0000
  H   H8300     1.0  0.62363  0.96964  0.23236  1.0000
  S   S1377     1.0  0.54184  0.73983  0.13091  1.0000
  H   H8301     1.0  0.62911  0.90097  0.23209  1.0000
  C   C4832     1.0  0.63799  0.89746  0.23267  1.0000
  S   S1378     1.0  0.63388  0.84614  0.23276  1.0000
  S   S1379     1.0  0.62220  0.73966  0.06752  1.0000
  H   H8302     1.0  0.49864  0.75599  0.12179  1.0000
  Fe  Fe690     1.0  0.94699  0.75369  0.38380  1.0000
  H   H8303     1.0  0.69567  0.95224  0.38598  1.0000
  S   S1380     1.0  0.58808  0.93456  0.24413  1.0000
  H   H8304     1.0  0.50745  0.85301  0.27342  1.0000
  S   S1381     1.0  0.58394  0.96131  0.24333  1.0000
  S   S1382     1.0  0.54979  0.89149  0.24304  1.0000
  Fe  Fe691     1.0  0.59398  0.94547  0.25136  1.0000
  S   S1383     1.0  0.59316  0.94190  0.26964  1.0000
  H   H8305     1.0  0.62002  0.88948  0.24776  1.0000
  H   H8306     1.0  0.69142  0.96423  0.39812  1.0000
  H   H8307     1.0  0.88210  0.74002  0.39294  1.0000
  Fe  Fe692     1.0  0.53737  0.90777  0.27648  1.0000
  S   S1384     1.0  0.53256  0.89464  0.29149  1.0000
  S   S1385     1.0  0.53526  0.92572  0.27685  1.0000
  Fe  Fe693     1.0  0.54374  0.89203  0.26100  1.0000
  S   S1386     1.0  0.53960  0.87745  0.27456  1.0000
  H   H8308     1.0  0.89665  0.74671  0.37625  1.0000
  Fe  Fe694     1.0  0.52422  0.88964  0.28063  1.0000
  H   H8309     1.0  0.68350  0.86753  0.32031  1.0000
  Fe  Fe695     1.0  0.54845  0.88373  0.28398  1.0000
  S   S1387     1.0  0.56165  0.87199  0.29299  1.0000
  S   S1388     1.0  0.52779  0.90380  0.26631  1.0000
  S   S1389     1.0  0.55380  0.89721  0.26982  1.0000
  C   C4833     1.0  0.85338  0.74255  0.41869  1.0000
  Fe  Fe696     1.0  0.63620  0.86997  0.28654  1.0000
  S   S1390     1.0  0.62960  0.86643  0.30512  1.0000
  S   S1391     1.0  0.64090  0.85675  0.27614  1.0000
  Fe  Fe697     1.0  0.63525  0.89393  0.28606  1.0000
  S   S1392     1.0  0.62794  0.89270  0.30424  1.0000
  S   S1393     1.0  0.63939  0.90958  0.27451  1.0000
  Fe  Fe698     1.0  0.64104  0.87687  0.30630  1.0000
  S   S1394     1.0  0.65179  0.87215  0.31956  1.0000
  Fe  Fe699     1.0  0.61715  0.88259  0.30157  1.0000
  S   S1395     1.0  0.59855  0.88488  0.30943  1.0000
  S   S1396     1.0  0.64888  0.87866  0.28802  1.0000
  S   S1397     1.0  0.62321  0.88553  0.28315  1.0000
  H   H8310     1.0  0.90425  0.74234  0.34549  1.0000
  H   H8311     1.0  0.72520  0.83438  0.42387  1.0000
  C   C4834     1.0  0.53222  0.86328  0.25428  1.0000
  Fe  Fe700     1.0  0.68103  0.89952  0.35358  1.0000
  S   S1398     1.0  0.69553  0.90803  0.34500  1.0000
  S   S1399     1.0  0.66879  0.90202  0.34226  1.0000
  Fe  Fe701     1.0  0.68913  0.89254  0.37573  1.0000
  S   S1400     1.0  0.70404  0.90030  0.36845  1.0000
  S   S1401     1.0  0.68766  0.88340  0.39373  1.0000
  Fe  Fe702     1.0  0.69233  0.91463  0.36035  1.0000
  S   S1402     1.0  0.69225  0.93214  0.36119  1.0000
  Fe  Fe703     1.0  0.70582  0.89291  0.35395  1.0000
  S   S1403     1.0  0.72287  0.88487  0.34562  1.0000
  S   S1404     1.0  0.67700  0.90743  0.36846  1.0000
  S   S1405     1.0  0.69176  0.88390  0.36171  1.0000
  Fe  Fe704     1.0  0.76684  0.86515  0.38155  1.0000
  S   S1406     1.0  0.77927  0.86624  0.36531  1.0000
  S   S1407     1.0  0.74830  0.86610  0.38507  1.0000
  Fe  Fe705     1.0  0.78443  0.86166  0.39483  1.0000
  S   S1408     1.0  0.79850  0.86245  0.37983  1.0000
  S   S1409     1.0  0.78698  0.85760  0.41224  1.0000
  Fe  Fe706     1.0  0.78616  0.87682  0.37216  1.0000
  S   S1410     1.0  0.79092  0.89296  0.36222  1.0000
  Fe  Fe707     1.0  0.79041  0.85177  0.37442  1.0000
  S   S1411     1.0  0.79846  0.83580  0.36833  1.0000
  S   S1412     1.0  0.77283  0.87692  0.38765  1.0000
  S   S1413     1.0  0.77728  0.84988  0.39014  1.0000
  Fe  Fe708     1.0  0.85567  0.79534  0.37215  1.0000
  S   S1414     1.0  0.84528  0.78357  0.38382  1.0000
  S   S1415     1.0  0.84967  0.81406  0.36850  1.0000
  Fe  Fe709     1.0  0.87693  0.77696  0.36987  1.0000
  S   S1416     1.0  0.86834  0.76366  0.38160  1.0000
  S   S1417     1.0  0.89482  0.77200  0.36075  1.0000
  Fe  Fe710     1.0  0.85437  0.77170  0.37254  1.0000
  S   S1418     1.0  0.84467  0.76255  0.36705  1.0000
  Fe  Fe711     1.0  0.86005  0.77665  0.39179  1.0000
  S   S1419     1.0  0.85804  0.77420  0.41012  1.0000
  S   S1420     1.0  0.86349  0.78416  0.35999  1.0000
  S   S1421     1.0  0.86998  0.78917  0.38096  1.0000
  H   H8312     1.0  0.95184  0.77979  0.35058  1.0000
  H   H8313     1.0  0.62436  0.96841  0.26576  1.0000
  S   S1422     1.0  0.93266  0.76843  0.38573  1.0000
  Fe  Fe712     1.0  0.74304  0.95322  0.36455  1.0000
  S   S1423     1.0  0.75906  0.95906  0.36176  1.0000
  S   S1424     1.0  0.73950  0.94484  0.35274  1.0000
  Fe  Fe713     1.0  0.73591  0.95599  0.38828  1.0000
  S   S1425     1.0  0.75132  0.96155  0.38794  1.0000
  S   S1426     1.0  0.72217  0.95283  0.40309  1.0000
  Fe  Fe714     1.0  0.74864  0.97218  0.37140  1.0000
  Fe  Fe715     1.0  0.76046  0.94806  0.37852  1.0000
  S   S1427     1.0  0.77634  0.93612  0.38224  1.0000
  S   S1428     1.0  0.73240  0.96739  0.37243  1.0000
  S   S1429     1.0  0.74534  0.94148  0.38058  1.0000
  Fe  Fe716     1.0  0.73339  0.90044  0.44193  1.0000
  S   S1430     1.0  0.71521  0.90706  0.44856  1.0000
  S   S1431     1.0  0.74581  0.91137  0.43449  1.0000
  Fe  Fe717     1.0  0.73042  0.87695  0.44613  1.0000
  S   S1432     1.0  0.71186  0.88156  0.45288  1.0000
  S   S1433     1.0  0.74003  0.85943  0.44573  1.0000
  Fe  Fe718     1.0  0.71220  0.89648  0.43854  1.0000
  S   S1434     1.0  0.70129  0.90527  0.42589  1.0000
  Fe  Fe719     1.0  0.71674  0.89170  0.46211  1.0000
  S   S1435     1.0  0.73040  0.89092  0.43115  1.0000
  S   S1436     1.0  0.73524  0.88599  0.45623  1.0000
  C   C4835     1.0  0.72863  0.94152  0.41207  1.0000
  C   C4836     1.0  0.73931  0.94111  0.41349  1.0000
  C   C4837     1.0  0.74468  0.93182  0.42036  1.0000
  C   C4838     1.0  0.73945  0.92285  0.42557  1.0000
  C   C4839     1.0  0.72901  0.92308  0.42373  1.0000
  C   C4840     1.0  0.72350  0.93250  0.41720  1.0000
  H   H8314     1.0  0.74335  0.94804  0.40948  1.0000
  H   H8315     1.0  0.75280  0.93163  0.42167  1.0000
  H   H8316     1.0  0.72516  0.91601  0.42727  1.0000
  H   H8317     1.0  0.71544  0.93257  0.41589  1.0000
  H   H8318     1.0  0.74521  0.85558  0.40926  1.0000
  C   C4841     1.0  0.74119  0.84948  0.41616  1.0000
  N   N346      1.0  0.96346  0.78492  0.36554  1.0000
  H   H8319     1.0  0.74142  0.85181  0.42379  1.0000
  C   C4842     1.0  0.90003  0.75098  0.34223  1.0000
  H   H8320     1.0  0.80965  0.82339  0.42305  1.0000
  H   H8321     1.0  0.82014  0.81426  0.43038  1.0000
  H   H8322     1.0  0.76239  0.95170  0.32217  1.0000
  C   C4843     1.0  0.85744  0.76049  0.41722  1.0000
  C   C4844     1.0  0.86173  0.75617  0.42684  1.0000
  H   H8323     1.0  0.82007  0.83758  0.39184  1.0000
  S   S1437     1.0  0.60971  0.94634  0.23822  1.0000
  H   H8324     1.0  0.71806  0.98456  0.40400  1.0000
  C   C4845     1.0  0.85324  0.75370  0.41313  1.0000
  H   H8325     1.0  0.86493  0.76142  0.43005  1.0000
  H   H8326     1.0  0.72704  0.84973  0.43771  1.0000
  H   H8327     1.0  0.84986  0.75705  0.40572  1.0000
  C   C4846     1.0  0.90554  0.77186  0.36707  1.0000
  C   C4847     1.0  0.90356  0.77809  0.37512  1.0000
  C   C4848     1.0  0.91206  0.77724  0.38059  1.0000
  C   C4849     1.0  0.92247  0.77000  0.37819  1.0000
  C   C4850     1.0  0.92451  0.76387  0.37004  1.0000
  C   C4851     1.0  0.91610  0.76492  0.36439  1.0000
  H   H8328     1.0  0.89547  0.78353  0.37715  1.0000
  H   H8329     1.0  0.91047  0.78201  0.38688  1.0000
  H   H8330     1.0  0.93253  0.75827  0.36815  1.0000
  H   H8331     1.0  0.91766  0.76006  0.35818  1.0000
  C   C4852     1.0  0.51851  0.89061  0.25139  1.0000
  C   C4853     1.0  0.94739  0.78554  0.35627  1.0000
  H   H8332     1.0  0.95587  0.79263  0.38538  1.0000
  C   C4854     1.0  0.81283  0.83004  0.36776  1.0000
  C   C4855     1.0  0.81704  0.81882  0.36708  1.0000
  C   C4856     1.0  0.82836  0.81384  0.36716  1.0000
  C   C4857     1.0  0.83557  0.82012  0.36776  1.0000
  C   C4858     1.0  0.83142  0.83140  0.36821  1.0000
  C   C4859     1.0  0.82006  0.83633  0.36831  1.0000
  H   H8333     1.0  0.81148  0.81393  0.36663  1.0000
  H   H8334     1.0  0.83151  0.80515  0.36675  1.0000
  H   H8335     1.0  0.83698  0.83630  0.36862  1.0000
  H   H8336     1.0  0.81692  0.84500  0.36874  1.0000
  C   C4860     1.0  0.77394  0.85807  0.42154  1.0000
  C   C4861     1.0  0.77296  0.85077  0.43193  1.0000
  C   C4862     1.0  0.76250  0.85113  0.43932  1.0000
  C   C4863     1.0  0.75311  0.85910  0.43653  1.0000
  C   C4864     1.0  0.75416  0.86654  0.42624  1.0000
  C   C4865     1.0  0.76450  0.86588  0.41868  1.0000
  H   H8337     1.0  0.78025  0.84472  0.43418  1.0000
  H   H8338     1.0  0.76171  0.84533  0.44727  1.0000
  H   H8339     1.0  0.74695  0.87261  0.42398  1.0000
  H   H8340     1.0  0.76517  0.87152  0.41070  1.0000
  C   C4866     1.0  0.78669  0.90407  0.36912  1.0000
  C   C4867     1.0  0.79459  0.91010  0.36859  1.0000
  C   C4868     1.0  0.79132  0.91970  0.37296  1.0000
  C   C4869     1.0  0.78005  0.92362  0.37754  1.0000
  C   C4870     1.0  0.77208  0.91755  0.37821  1.0000
  C   C4871     1.0  0.77543  0.90766  0.37415  1.0000
  H   H8341     1.0  0.80327  0.90738  0.36469  1.0000
  H   H8342     1.0  0.79751  0.92431  0.37248  1.0000
  H   H8343     1.0  0.76337  0.92051  0.38180  1.0000
  H   H8344     1.0  0.76929  0.90308  0.37447  1.0000
  C   C4872     1.0  0.70548  0.93537  0.35912  1.0000
  C   C4873     1.0  0.70618  0.94458  0.36269  1.0000
  C   C4874     1.0  0.71662  0.94729  0.36121  1.0000
  C   C4875     1.0  0.72636  0.94116  0.35558  1.0000
  C   C4876     1.0  0.72560  0.93215  0.35172  1.0000
  C   C4877     1.0  0.71525  0.92908  0.35372  1.0000
  H   H8345     1.0  0.69862  0.94962  0.36664  1.0000
  H   H8346     1.0  0.71708  0.95437  0.36405  1.0000
  H   H8347     1.0  0.73303  0.92751  0.34715  1.0000
  H   H8348     1.0  0.71481  0.92204  0.35081  1.0000
  C   C4878     1.0  0.69168  0.88934  0.40262  1.0000
  C   C4879     1.0  0.69331  0.90026  0.39932  1.0000
  C   C4880     1.0  0.69639  0.90490  0.40654  1.0000
  C   C4881     1.0  0.69798  0.89869  0.41705  1.0000
  C   C4882     1.0  0.69639  0.88774  0.42037  1.0000
  C   C4883     1.0  0.69322  0.88310  0.41318  1.0000
  H   H8349     1.0  0.69212  0.90517  0.39125  1.0000
  H   H8350     1.0  0.69779  0.91326  0.40386  1.0000
  H   H8351     1.0  0.69734  0.88296  0.42856  1.0000
  H   H8352     1.0  0.69186  0.87468  0.41583  1.0000
  C   C4884     1.0  0.73033  0.87857  0.35622  1.0000
  C   C4885     1.0  0.74201  0.87717  0.35403  1.0000
  C   C4886     1.0  0.74772  0.87312  0.36280  1.0000
  C   C4887     1.0  0.74175  0.87031  0.37372  1.0000
  C   C4888     1.0  0.73016  0.87132  0.37580  1.0000
  C   C4889     1.0  0.72445  0.87551  0.36711  1.0000
  H   H8353     1.0  0.74659  0.87952  0.34561  1.0000
  H   H8354     1.0  0.75668  0.87232  0.36111  1.0000
  H   H8355     1.0  0.72550  0.86910  0.38419  1.0000
  H   H8356     1.0  0.71546  0.87639  0.36886  1.0000
  C   C4890     1.0  0.65625  0.88066  0.32589  1.0000
  C   C4891     1.0  0.65455  0.89227  0.32232  1.0000
  C   C4892     1.0  0.65841  0.89860  0.32746  1.0000
  C   C4893     1.0  0.66405  0.89348  0.33622  1.0000
  C   C4894     1.0  0.66573  0.88187  0.33983  1.0000
  C   C4895     1.0  0.66187  0.87555  0.33468  1.0000
  H   H8357     1.0  0.65023  0.89637  0.31560  1.0000
  H   H8358     1.0  0.65696  0.90755  0.32460  1.0000
  H   H8359     1.0  0.66983  0.87777  0.34669  1.0000
  H   H8360     1.0  0.66314  0.86660  0.33761  1.0000
  C   C4896     1.0  0.63831  0.85488  0.26383  1.0000
  C   C4897     1.0  0.63036  0.86223  0.25792  1.0000
  C   C4898     1.0  0.62876  0.85984  0.24830  1.0000
  C   C4899     1.0  0.63514  0.85012  0.24458  1.0000
  C   C4900     1.0  0.64307  0.84299  0.25049  1.0000
  C   C4901     1.0  0.64457  0.84529  0.26001  1.0000
  H   H8361     1.0  0.62540  0.86960  0.26085  1.0000
  H   H8362     1.0  0.62269  0.86551  0.24374  1.0000
  H   H8363     1.0  0.95153  0.77943  0.38930  1.0000
  H   H8364     1.0  0.65072  0.83956  0.26444  1.0000
  H   H8365     1.0  0.58540  0.81029  0.24958  1.0000
  C   C4902     1.0  0.56172  0.87105  0.25138  1.0000
  C   C4903     1.0  0.56828  0.86044  0.25059  1.0000
  H   H8366     1.0  0.98626  0.77053  0.40190  1.0000
  H   H8367     1.0  0.88458  0.76970  0.34239  1.0000
  H   H8368     1.0  0.55915  0.87344  0.25928  1.0000
  H   H8369     1.0  0.57054  0.85462  0.25791  1.0000
  C   C4904     1.0  0.99380  0.75889  0.37920  1.0000
  C   C4905     1.0  0.57146  0.87696  0.29687  1.0000
  C   C4906     1.0  0.57017  0.87704  0.30804  1.0000
  C   C4907     1.0  0.57855  0.87948  0.31166  1.0000
  C   C4908     1.0  0.58855  0.88151  0.30427  1.0000
  C   C4909     1.0  0.58994  0.88142  0.29305  1.0000
  C   C4910     1.0  0.58135  0.87927  0.28934  1.0000
  H   H8370     1.0  0.56272  0.87503  0.31396  1.0000
  H   H8371     1.0  0.57738  0.87957  0.32033  1.0000
  H   H8372     1.0  0.59756  0.88310  0.28724  1.0000
  H   H8373     1.0  0.58244  0.87916  0.28072  1.0000
  C   C4911     1.0  0.81845  0.81855  0.42203  1.0000
  H   H8374     1.0  0.57216  0.89797  0.23647  1.0000
  C   C4912     1.0  0.50749  0.86802  0.27814  1.0000
  H   H8375     1.0  0.58152  0.96283  0.27711  1.0000
  H   H8376     1.0  0.51495  0.86440  0.28150  1.0000
  H   H8377     1.0  0.71333  0.88757  0.31933  1.0000
  C   C4913     1.0  0.60613  0.93365  0.27182  1.0000
  C   C4914     1.0  0.60662  0.92424  0.28045  1.0000
  C   C4915     1.0  0.61690  0.91689  0.28137  1.0000
  C   C4916     1.0  0.62673  0.91918  0.27389  1.0000
  C   C4917     1.0  0.62632  0.92892  0.26563  1.0000
  C   C4918     1.0  0.61599  0.93612  0.26455  1.0000
  H   H8378     1.0  0.59907  0.92237  0.28619  1.0000
  H   H8379     1.0  0.61717  0.90941  0.28782  1.0000
  H   H8380     1.0  0.63394  0.93075  0.25992  1.0000
  H   H8381     1.0  0.61568  0.94360  0.25813  1.0000
  C   C4919     1.0  0.84254  0.74330  0.36340  1.0000
  C   C4920     1.0  0.54399  0.95076  0.25137  1.0000
  C   C4921     1.0  0.53815  0.94465  0.26100  1.0000
  C   C4922     1.0  0.54221  0.93321  0.26445  1.0000
  C   C4923     1.0  0.55219  0.92795  0.25832  1.0000
  C   C4924     1.0  0.55842  0.93419  0.24921  1.0000
  H   H8382     1.0  0.99424  0.74596  0.41448  1.0000
  H   H8383     1.0  0.53043  0.94877  0.26570  1.0000
  H   H8384     1.0  0.55541  0.91917  0.26088  1.0000
  H   H8385     1.0  0.50908  0.87815  0.25512  1.0000
  C   C4925     1.0  0.92628  0.75205  0.45296  1.0000
  C   C4926     1.0  0.51311  0.88331  0.24742  1.0000
  N   N347      1.0  0.64010  0.89913  0.24305  1.0000
  C   C4927     1.0  0.91542  0.74744  0.45723  1.0000
  H   H8386     1.0  0.91304  0.74637  0.44991  1.0000
  C   C4928     1.0  0.92717  0.74075  0.42367  1.0000
  H   H8387     1.0  0.70497  0.93880  0.38545  1.0000
  N   N348      1.0  0.73426  0.90488  0.38739  1.0000
  C   C4929     1.0  0.73265  0.91736  0.38325  1.0000
  C   C4930     1.0  0.74092  0.89965  0.37769  1.0000
  C   C4931     1.0  0.74105  0.90159  0.39621  1.0000
  C   C4932     1.0  0.72286  0.90203  0.39208  1.0000
  C   C4933     1.0  0.72721  0.92438  0.39218  1.0000
  C   C4934     1.0  0.73542  0.90282  0.36761  1.0000
  C   C4935     1.0  0.74373  0.88913  0.40169  1.0000
  C   C4936     1.0  0.72202  0.89002  0.39271  1.0000
  H   H8388     1.0  0.74080  0.91975  0.37882  1.0000
  H   H8389     1.0  0.72722  0.92039  0.37705  1.0000
  H   H8390     1.0  0.74295  0.89046  0.37998  1.0000
  H   H8391     1.0  0.74929  0.90190  0.37469  1.0000
  H   H8392     1.0  0.74916  0.90434  0.39275  1.0000
  H   H8393     1.0  0.73666  0.90576  0.40327  1.0000
  H   H8394     1.0  0.71956  0.90365  0.40061  1.0000
  H   H8395     1.0  0.71674  0.90758  0.38705  1.0000
  H   H8396     1.0  0.73327  0.92412  0.39712  1.0000
  H   H8397     1.0  0.72471  0.93323  0.38803  1.0000
  H   H8398     1.0  0.71959  0.92183  0.39780  1.0000
  H   H8399     1.0  0.72666  0.90175  0.36996  1.0000
  H   H8400     1.0  0.73574  0.91147  0.36304  1.0000
  H   H8401     1.0  0.74017  0.89734  0.36172  1.0000
  H   H8402     1.0  0.73606  0.88623  0.40677  1.0000
  H   H8403     1.0  0.74929  0.88792  0.40746  1.0000
  H   H8404     1.0  0.74829  0.88381  0.39567  1.0000
  H   H8405     1.0  0.71652  0.88704  0.40072  1.0000
  H   H8406     1.0  0.72999  0.88385  0.39225  1.0000
  H   H8407     1.0  0.71781  0.88985  0.38623  1.0000
  H   H8408     1.0  0.93410  0.74599  0.45433  1.0000
  S   S1438     1.0  0.56160  0.95316  0.23357  1.0000
  H   H8409     1.0  0.65458  0.88554  0.24433  1.0000
  S   S1439     1.0  0.96035  0.75078  0.39331  1.0000
  H   H8410     1.0  0.88129  0.76663  0.41192  1.0000
  C   C4937     1.0  0.88288  0.74978  0.35621  1.0000
  C   C4938     1.0  0.61941  0.96240  0.26587  1.0000
  H   H8411     1.0  0.90874  0.75431  0.46028  1.0000
  H   H8412     1.0  0.63366  0.89572  0.26079  1.0000
  H   H8413     1.0  0.83534  0.74842  0.36014  1.0000
  C   C4939     1.0  0.98733  0.76206  0.38904  1.0000
  H   H8414     1.0  0.94319  0.74373  0.41387  1.0000
  H   H8415     1.0  0.90651  0.75842  0.40446  1.0000
  C   C4940     1.0  0.68018  0.95387  0.41000  1.0000
  H   H8416     1.0  0.63730  0.88383  0.25502  1.0000
  C   C4941     1.0  0.55875  0.87859  0.24192  1.0000
  H   H8417     1.0  0.94746  0.79429  0.35187  1.0000
  C   C4942     1.0  0.55422  0.94555  0.24556  1.0000
  H   H8418     1.0  0.73916  0.97751  0.40540  1.0000
  H   H8419     1.0  0.68456  0.92547  0.43314  1.0000
  H   H8420     1.0  0.52622  0.86721  0.26089  1.0000
  C   C4943     1.0  0.89813  0.75625  0.40770  1.0000
  H   H8421     1.0  0.86488  0.76537  0.34810  1.0000
  N   N349      1.0  0.52076  0.87584  0.23985  1.0000
  C   C4944     1.0  0.86981  0.76669  0.33947  1.0000
  H   H8422     1.0  0.57594  0.96572  0.29065  1.0000
  H   H8423     1.0  0.72712  0.97525  0.39552  1.0000
  C   C4945     1.0  0.60447  0.98394  0.27001  1.0000
  H   H8424     1.0  0.98461  0.78931  0.34996  1.0000
  N   N350      1.0  0.67111  0.93868  0.33481  1.0000
  C   C4946     1.0  0.68230  0.94207  0.33129  1.0000
  C   C4947     1.0  0.67231  0.92884  0.32987  1.0000
  C   C4948     1.0  0.66873  0.93502  0.34729  1.0000
  C   C4949     1.0  0.66220  0.94852  0.33102  1.0000
  C   C4950     1.0  0.68300  0.95194  0.33571  1.0000
  C   C4951     1.0  0.67663  0.93057  0.31718  1.0000
  C   C4952     1.0  0.65783  0.93082  0.35289  1.0000
  C   C4953     1.0  0.65189  0.94596  0.32874  1.0000
  H   H8425     1.0  0.68907  0.93487  0.33382  1.0000
  H   H8426     1.0  0.68473  0.94463  0.32211  1.0000
  H   H8427     1.0  0.66429  0.92608  0.33183  1.0000
  H   H8428     1.0  0.67817  0.92150  0.33363  1.0000
  H   H8429     1.0  0.67576  0.92828  0.34996  1.0000
  H   H8430     1.0  0.66821  0.94192  0.35127  1.0000
  H   H8431     1.0  0.65899  0.95396  0.33719  1.0000
  H   H8432     1.0  0.66579  0.95395  0.32318  1.0000
  H   H8433     1.0  0.69121  0.95428  0.33166  1.0000
  H   H8434     1.0  0.67637  0.95943  0.33381  1.0000
  H   H8435     1.0  0.68275  0.94969  0.34473  1.0000
  H   H8436     1.0  0.67450  0.92418  0.31415  1.0000
  H   H8437     1.0  0.67290  0.93889  0.31269  1.0000
  H   H8438     1.0  0.68591  0.92937  0.31500  1.0000
  H   H8439     1.0  0.65780  0.92740  0.36185  1.0000
  H   H8440     1.0  0.65707  0.92394  0.34960  1.0000
  H   H8441     1.0  0.65037  0.93774  0.35253  1.0000
  H   H8442     1.0  0.65407  0.94259  0.32113  1.0000
  H   H8443     1.0  0.64555  0.95384  0.32730  1.0000
  H   H8444     1.0  0.64776  0.94013  0.33569  1.0000
  C   C4954     1.0  0.88512  0.74598  0.40625  1.0000
  H   H8445     1.0  0.52042  0.88645  0.25967  1.0000
  C   C4955     1.0  0.72302  0.84312  0.42503  1.0000
  N   N351      1.0  0.72936  0.85028  0.41525  1.0000
  H   H8446     1.0  0.58288  0.98170  0.28013  1.0000
  H   H8447     1.0  0.92300  0.74944  0.42191  1.0000
  C   C4956     1.0  0.84864  0.74810  0.36773  1.0000
  H   H8448     1.0  0.57868  0.97595  0.26037  1.0000
  C   C4957     1.0  0.63346  0.89290  0.25336  1.0000
  H   H8449     1.0  0.66553  0.89371  0.25151  1.0000
  C   C4958     1.0  0.96707  0.77975  0.37643  1.0000
  C   C4959     1.0  0.95219  0.78231  0.36683  1.0000
  H   H8450     1.0  0.57979  0.90296  0.24316  1.0000
  H   H8451     1.0  0.60143  0.81501  0.23461  1.0000
  H   H8452     1.0  0.56636  0.93013  0.24486  1.0000
  H   H8453     1.0  0.73190  0.83487  0.43864  1.0000
  H   H8454     1.0  0.73090  0.87424  0.31608  1.0000
  C   C4960     1.0  0.77683  0.87943  0.43382  1.0000
  H   H8455     1.0  0.72335  0.87069  0.32989  1.0000
  H   H8456     1.0  0.75822  0.92120  0.35761  1.0000
  N   N352      1.0  0.82351  0.81342  0.40269  1.0000
  C   C4961     1.0  0.82577  0.80329  0.39782  1.0000
  C   C4962     1.0  0.83408  0.81792  0.39889  1.0000
  C   C4963     1.0  0.81399  0.82193  0.39825  1.0000
  C   C4964     1.0  0.82037  0.80976  0.41513  1.0000
  C   C4965     1.0  0.81548  0.79862  0.39858  1.0000
  C   C4966     1.0  0.84470  0.80981  0.40221  1.0000
  C   C4967     1.0  0.81311  0.83427  0.39808  1.0000
  H   H8457     1.0  0.82992  0.80508  0.38888  1.0000
  H   H8458     1.0  0.83173  0.79624  0.40188  1.0000
  H   H8459     1.0  0.83313  0.82558  0.40185  1.0000
  H   H8460     1.0  0.83603  0.82061  0.38969  1.0000
  H   H8461     1.0  0.81460  0.82175  0.38948  1.0000
  H   H8462     1.0  0.80575  0.81986  0.40287  1.0000
  H   H8463     1.0  0.81243  0.80674  0.41760  1.0000
  H   H8464     1.0  0.82652  0.80230  0.41833  1.0000
  H   H8465     1.0  0.81842  0.79100  0.39508  1.0000
  H   H8466     1.0  0.81095  0.79615  0.40725  1.0000
  H   H8467     1.0  0.80961  0.80454  0.39356  1.0000
  H   H8468     1.0  0.85170  0.81428  0.39947  1.0000
  H   H8469     1.0  0.84359  0.80668  0.41131  1.0000
  H   H8470     1.0  0.84746  0.80270  0.39796  1.0000
  H   H8471     1.0  0.81273  0.83582  0.40625  1.0000
  H   H8472     1.0  0.80524  0.83927  0.39547  1.0000
  N   N353      1.0  0.57085  0.91700  0.28781  1.0000
  C   C4968     1.0  0.58141  0.91365  0.27947  1.0000
  C   C4969     1.0  0.57382  0.92189  0.29583  1.0000
  C   C4970     1.0  0.56216  0.92556  0.28229  1.0000
  C   C4971     1.0  0.56603  0.90685  0.29365  1.0000
  C   C4972     1.0  0.57995  0.90968  0.26969  1.0000
  C   C4973     1.0  0.58050  0.91352  0.30416  1.0000
  C   C4974     1.0  0.56595  0.93615  0.27481  1.0000
  C   C4975     1.0  0.55516  0.90862  0.30262  1.0000
  H   H8473     1.0  0.58588  0.92062  0.27582  1.0000
  H   H8474     1.0  0.58744  0.90676  0.28358  1.0000
  H   H8475     1.0  0.56622  0.92658  0.30069  1.0000
  H   H8476     1.0  0.57890  0.92826  0.29126  1.0000
  H   H8477     1.0  0.55891  0.92178  0.27733  1.0000
  H   H8478     1.0  0.55465  0.92841  0.28856  1.0000
  H   H8479     1.0  0.56390  0.90332  0.28765  1.0000
  H   H8480     1.0  0.57232  0.89996  0.29729  1.0000
  H   H8481     1.0  0.57449  0.91616  0.26463  1.0000
  H   H8482     1.0  0.58829  0.90784  0.26408  1.0000
  H   H8483     1.0  0.57680  0.90187  0.27246  1.0000
  H   H8484     1.0  0.58292  0.91814  0.30902  1.0000
  H   H8485     1.0  0.57544  0.90774  0.31020  1.0000
  H   H8486     1.0  0.58837  0.90861  0.29997  1.0000
  H   H8487     1.0  0.55878  0.94185  0.27139  1.0000
  H   H8488     1.0  0.57276  0.93432  0.26762  1.0000
  H   H8489     1.0  0.56859  0.94076  0.27950  1.0000
  H   H8490     1.0  0.54767  0.91088  0.29889  1.0000
  H   H8491     1.0  0.55465  0.91509  0.30708  1.0000
  H   H8492     1.0  0.55485  0.90079  0.30904  1.0000
  N   N354      1.0  0.59932  0.84961  0.26825  1.0000
  C   C4976     1.0  0.60938  0.84096  0.26434  1.0000
  C   C4977     1.0  0.60276  0.85496  0.27560  1.0000
  C   C4978     1.0  0.59640  0.85821  0.25816  1.0000
  C   C4979     1.0  0.58983  0.84372  0.27425  1.0000
  C   C4980     1.0  0.60860  0.83604  0.25487  1.0000
  C   C4981     1.0  0.60627  0.84710  0.28613  1.0000
  C   C4982     1.0  0.58908  0.86963  0.26003  1.0000
  C   C4983     1.0  0.57933  0.85019  0.28105  1.0000
  H   H8493     1.0  0.61708  0.84440  0.26144  1.0000
  H   H8494     1.0  0.61116  0.83375  0.27127  1.0000
  H   H8495     1.0  0.59611  0.86188  0.27837  1.0000
  H   H8496     1.0  0.60988  0.85900  0.27085  1.0000
  H   H8497     1.0  0.60419  0.86010  0.25216  1.0000
  H   H8498     1.0  0.59208  0.85492  0.25364  1.0000
  H   H8499     1.0  0.58675  0.84103  0.26826  1.0000
  H   H8500     1.0  0.59275  0.83573  0.27991  1.0000
  H   H8501     1.0  0.61617  0.82935  0.25326  1.0000
  H   H8502     1.0  0.60116  0.83231  0.25695  1.0000
  H   H8503     1.0  0.60863  0.84235  0.24697  1.0000
  H   H8504     1.0  0.59963  0.84263  0.29134  1.0000
  H   H8505     1.0  0.61428  0.84109  0.28410  1.0000
  H   H8506     1.0  0.60774  0.85214  0.29123  1.0000
  H   H8507     1.0  0.58131  0.86901  0.26642  1.0000
  H   H8508     1.0  0.58651  0.87448  0.25216  1.0000
  H   H8509     1.0  0.59390  0.87457  0.26213  1.0000
  H   H8510     1.0  0.57300  0.85474  0.27598  1.0000
  H   H8511     1.0  0.58110  0.85600  0.28501  1.0000
  H   H8512     1.0  0.57540  0.84424  0.28812  1.0000
  H   H8513     1.0  0.74525  0.83114  0.42175  1.0000
  C   C4984     1.0  0.85785  0.74139  0.37210  1.0000
  C   C4985     1.0  0.88258  0.76368  0.33869  1.0000
  C   C4986     1.0  0.50398  0.86936  0.23752  1.0000
  H   H8514     1.0  0.76588  0.90301  0.39938  1.0000
  H   H8515     1.0  0.72009  0.97981  0.42340  1.0000
  H   H8516     1.0  0.79907  0.89136  0.39786  1.0000
  C   C4987     1.0  0.77497  0.93236  0.34906  1.0000
  H   H8517     1.0  0.70314  0.86685  0.31134  1.0000
  C   C4988     1.0  0.68233  0.96427  0.40092  1.0000
  H   H8518     1.0  0.82424  0.82433  0.41865  1.0000
  C   C4989     1.0  0.72517  0.84223  0.43658  1.0000
  H   H8519     1.0  0.78752  0.90247  0.39440  1.0000
  H   H8520     1.0  0.94567  0.78658  0.37300  1.0000
  H   H8521     1.0  0.75678  0.83785  0.41879  1.0000
  H   H8522     1.0  0.76680  0.93178  0.32560  1.0000
  H   H8523     1.0  0.57814  0.80913  0.23995  1.0000
  C   C4990     1.0  0.88958  0.76748  0.40646  1.0000
  H   H8524     1.0  0.89749  0.75289  0.41679  1.0000
  C   C4991     1.0  0.86231  0.74493  0.43210  1.0000
  S   S1440     1.0  0.58185  0.84500  0.23906  1.0000
  H   H8525     1.0  0.59614  0.96530  0.26083  1.0000
  H   H8526     1.0  0.55421  0.92077  0.23338  1.0000
  H   H8527     1.0  0.70880  0.94911  0.38963  1.0000
  C   C4992     1.0  0.99141  0.76790  0.39443  1.0000
  N   N355      1.0  0.89697  0.74768  0.40214  1.0000
  H   H8528     1.0  0.73201  0.91834  0.47949  1.0000
  H   H8529     1.0  0.59918  0.80144  0.23605  1.0000
  N   N356      1.0  0.59935  0.97409  0.27150  1.0000
  H   H8530     1.0  0.79553  0.91732  0.34532  1.0000
  H   H8531     1.0  0.63716  0.87964  0.23865  1.0000
  H   H8532     1.0  0.75935  0.90788  0.35486  1.0000
  H   H8533     1.0  0.90693  0.75591  0.38746  1.0000
  H   H8534     1.0  0.76768  0.98104  0.37831  1.0000
  H   H8535     1.0  0.75442  0.97919  0.40913  1.0000
  H   H8536     1.0  0.60287  0.97645  0.25366  1.0000
  C   C4993     1.0  0.64252  0.91929  0.23344  1.0000
  H   H8537     1.0  0.92743  0.75529  0.44385  1.0000
  Fe  Fe720     1.0  0.57948  0.95059  0.23470  1.0000
  H   H8538     1.0  0.72438  0.90762  0.47086  1.0000
  H   H8539     1.0  0.61669  0.89030  0.26191  1.0000
  H   H8540     1.0  0.88450  0.75597  0.35989  1.0000
  H   H8541     1.0  0.67843  0.97178  0.40451  1.0000
  H   H8542     1.0  0.65546  0.90657  0.25127  1.0000
  H   H8543     1.0  0.76094  0.98907  0.41087  1.0000
  N   N357      1.0  0.68437  0.94279  0.40659  1.0000
  C   C4994     1.0  0.68139  0.93389  0.41675  1.0000
  C   C4995     1.0  0.67813  0.94252  0.39819  1.0000
  H   H8544     1.0  0.64809  0.83552  0.24773  1.0000
  C   C4996     1.0  0.69694  0.94049  0.40254  1.0000
  C   C4997     1.0  0.68621  0.93311  0.42685  1.0000
  C   C4998     1.0  0.68129  0.93162  0.39396  1.0000
  H   H8545     1.0  0.98762  0.77771  0.36146  1.0000
  C   C4999     1.0  0.70156  0.94549  0.39023  1.0000
  H   H8546     1.0  0.67212  0.93498  0.41966  1.0000
  H   H8547     1.0  0.68440  0.92547  0.41480  1.0000
  H   H8548     1.0  0.67909  0.94931  0.39075  1.0000
  H   H8549     1.0  0.66892  0.94407  0.40172  1.0000
  H   H8550     1.0  0.88627  0.76568  0.32967  1.0000
  C   C5000     1.0  0.89955  0.75203  0.38978  1.0000
  H   H8551     1.0  0.70088  0.94349  0.40763  1.0000
  H   H8552     1.0  0.70039  0.93134  0.40378  1.0000
  H   H8553     1.0  0.51225  0.89839  0.25271  1.0000
  H   H8554     1.0  0.63318  0.97785  0.24173  1.0000
  H   H8555     1.0  0.87134  0.73997  0.33503  1.0000
  H   H8556     1.0  0.69042  0.92901  0.39083  1.0000
  H   H8557     1.0  0.67814  0.92473  0.40040  1.0000
  H   H8558     1.0  0.67727  0.93291  0.38688  1.0000
  H   H8559     1.0  0.71460  0.86334  0.41273  1.0000
  N   N358      1.0  0.88758  0.75189  0.34388  1.0000
  H   H8560     1.0  0.75198  0.83638  0.40753  1.0000
  C   C5001     1.0  0.76683  0.93540  0.33259  1.0000
  H   H8561     1.0  0.73424  0.83744  0.40561  1.0000
  C   C5002     1.0  0.74914  0.83797  0.41606  1.0000
  H   H8562     1.0  0.78131  0.91328  0.42600  1.0000
  H   H8563     1.0  0.60496  0.95608  0.27522  1.0000
  H   H8564     1.0  0.58591  0.98512  0.24968  1.0000
  H   H8565     1.0  0.93850  0.78466  0.35871  1.0000
  H   H8566     1.0  0.56534  0.90920  0.24372  1.0000
  H   H8567     1.0  0.52114  0.86014  0.23604  1.0000
  C   C5003     1.0  0.95884  0.78347  0.38673  1.0000
  H   H8568     1.0  0.71501  0.85645  0.39855  1.0000
  H   H8569     1.0  0.90478  0.76319  0.32687  1.0000
  H   H8570     1.0  0.89938  0.74390  0.47545  1.0000
  H   H8571     1.0  0.78980  0.93388  0.32859  1.0000
  H   H8572     1.0  0.67099  0.95521  0.41360  1.0000
  H   H8573     1.0  0.96839  0.77052  0.37803  1.0000
  H   H8574     1.0  0.78165  0.87307  0.42893  1.0000
  H   H8575     1.0  0.97528  0.78125  0.37632  1.0000
  H   H8576     1.0  0.51381  0.86153  0.24971  1.0000
  H   H8577     1.0  0.65211  0.89381  0.26060  1.0000
  H   H8578     1.0  0.77586  0.88599  0.40662  1.0000
  C   C5004     1.0  0.58436  0.81328  0.24086  1.0000
  H   H8579     1.0  0.87369  0.75115  0.35818  1.0000
  C   C5005     1.0  0.70119  0.86606  0.32051  1.0000
  H   H8580     1.0  0.86732  0.77573  0.33589  1.0000
  H   H8581     1.0  0.76633  0.93678  0.35240  1.0000
  C   C5006     1.0  0.65645  0.89748  0.25218  1.0000
  H   H8582     1.0  0.71753  0.84070  0.44298  1.0000
  H   H8583     1.0  0.61644  0.90287  0.25158  1.0000
  C   C5007     1.0  0.88584  0.74355  0.33843  1.0000
  H   H8584     1.0  0.95251  0.77326  0.37018  1.0000
  H   H8585     1.0  0.76596  0.95222  0.33444  1.0000
  H   H8586     1.0  0.86583  0.74163  0.43939  1.0000
  H   H8587     1.0  0.86235  0.74498  0.37578  1.0000
  H   H8588     1.0  0.71573  0.86538  0.43049  1.0000
  H   H8589     1.0  0.53048  0.85509  0.25475  1.0000
  S   S1441     1.0  0.50636  0.88693  0.28537  1.0000
  C   C5008     1.0  0.76831  0.94746  0.32777  1.0000
  S   S1442     1.0  0.98879  0.75209  0.37174  1.0000
  C   C5009     1.0  0.78297  0.94021  0.34734  1.0000
  H   H8590     1.0  0.50042  0.86178  0.23988  1.0000
  H   H8591     1.0  0.95395  0.80155  0.36671  1.0000
  H   H8592     1.0  0.96752  0.80515  0.37299  1.0000
  C   C5010     1.0  0.68988  0.86237  0.32514  1.0000
  H   H8593     1.0  0.58912  0.95631  0.28810  1.0000
  H   H8594     1.0  0.77765  0.91071  0.34861  1.0000
  H   H8595     1.0  0.89254  0.75884  0.38722  1.0000
  H   H8596     1.0  0.73543  0.85089  0.39758  1.0000
  H   H8597     1.0  0.79187  0.93576  0.34607  1.0000
  S   S1443     1.0  0.95892  0.75062  0.36784  1.0000
  H   H8598     1.0  0.96315  0.78073  0.39380  1.0000
  C   C5011     1.0  0.76240  0.90682  0.40673  1.0000
  H   H8599     1.0  0.92545  0.75931  0.45655  1.0000
  C   C5012     1.0  0.58955  0.97411  0.28130  1.0000
  C   C5013     1.0  0.96229  0.79741  0.36237  1.0000
  H   H8600     1.0  0.73487  0.97790  0.42278  1.0000
  C   C5014     1.0  0.59629  0.97396  0.26096  1.0000
  H   H8601     1.0  0.97914  0.76015  0.39246  1.0000
  H   H8602     1.0  0.71277  0.84372  0.40862  1.0000
  H   H8603     1.0  0.72763  0.86724  0.40590  1.0000
  C   C5015     1.0  0.73009  0.84641  0.40487  1.0000
  H   H8604     1.0  0.77683  0.94802  0.32278  1.0000
  C   C5016     1.0  0.79014  0.89338  0.39728  1.0000
  C   C5017     1.0  0.78274  0.88863  0.40838  1.0000
  H   H8605     1.0  0.76439  0.88780  0.42416  1.0000
  H   H8606     1.0  0.54072  0.95956  0.24860  1.0000
  C   C5018     1.0  0.60810  0.96367  0.27434  1.0000
  H   H8607     1.0  0.76742  0.91182  0.41890  1.0000
  H   H8608     1.0  0.68656  0.86259  0.33403  1.0000
  C   C5019     1.0  0.72329  0.86234  0.41369  1.0000
  H   H8609     1.0  0.86736  0.76225  0.33448  1.0000
  H   H8610     1.0  0.71382  0.84604  0.42553  1.0000
  C   C5020     1.0  0.72197  0.86831  0.42307  1.0000
  H   H8611     1.0  0.75817  0.93621  0.33768  1.0000
  H   H8612     1.0  0.87904  0.75386  0.40392  1.0000
  H   H8613     1.0  0.71084  0.85934  0.33867  1.0000
  H   H8614     1.0  0.97925  0.79651  0.36545  1.0000
  H   H8615     1.0  0.67852  0.96539  0.39377  1.0000
  H   H8616     1.0  0.71872  0.87735  0.42022  1.0000
  H   H8617     1.0  0.54071  0.86160  0.25604  1.0000
  H   H8618     1.0  0.69958  0.90112  0.31323  1.0000
  H   H8619     1.0  0.78190  0.94753  0.34046  1.0000
  C   C5021     1.0  0.57314  0.90562  0.23828  1.0000
  H   H8620     1.0  0.69101  0.85366  0.32434  1.0000
  C   C5022     1.0  0.76000  0.91664  0.35088  1.0000
  H   H8621     1.0  0.60773  0.98329  0.27746  1.0000
  H   H8622     1.0  0.68422  0.95409  0.41660  1.0000
  H   H8623     1.0  0.72996  0.86761  0.42534  1.0000
  C   C5023     1.0  0.71885  0.84761  0.40168  1.0000
  H   H8624     1.0  0.78804  0.88060  0.41176  1.0000
  H   H8625     1.0  0.72046  0.84334  0.39474  1.0000
  H   H8626     1.0  0.76632  0.89584  0.43245  1.0000
  C   C5024     1.0  0.98384  0.78062  0.35408  1.0000
  H   H8627     1.0  0.79401  0.88960  0.42258  1.0000
  H   H8628     1.0  0.77711  0.91257  0.40614  1.0000
  H   H8629     1.0  0.78944  0.88967  0.39065  1.0000
  H   H8630     1.0  0.69196  0.89837  0.32755  1.0000
  H   H8631     1.0  0.74885  0.98602  0.42096  1.0000
  C   C5025     1.0  0.77168  0.90711  0.41221  1.0000
  C   C5026     1.0  0.62097  0.89408  0.25351  1.0000
  C   C5027     1.0  0.97099  0.80217  0.36511  1.0000
  H   H8632     1.0  0.90172  0.75623  0.34700  1.0000
  C   C5028     1.0  0.69241  0.89778  0.31898  1.0000
  H   H8633     1.0  0.70211  0.88304  0.33710  1.0000
  H   H8634     1.0  0.68466  0.90331  0.31651  1.0000
  H   H8635     1.0  0.60998  0.96302  0.28252  1.0000
  H   H8636     1.0  0.97257  0.80969  0.35861  1.0000
  H   H8637     1.0  0.69543  0.93229  0.42469  1.0000
  H   H8638     1.0  0.52601  0.89317  0.24564  1.0000
  C   C5029     1.0  0.78660  0.92608  0.33167  1.0000
  C   C5030     1.0  0.77099  0.89014  0.42674  1.0000
  C   C5031     1.0  0.78837  0.89770  0.41987  1.0000
  H   H8639     1.0  0.79346  0.90482  0.43085  1.0000
  H   H8640     1.0  0.97178  0.77024  0.35878  1.0000
  H   H8641     1.0  0.96244  0.80048  0.35334  1.0000
  H   H8642     1.0  0.91985  0.74375  0.40428  1.0000
  C   C5032     1.0  0.63648  0.91138  0.24319  1.0000
  H   H8643     1.0  0.61832  0.96314  0.25739  1.0000
  H   H8644     1.0  0.77032  0.87562  0.44030  1.0000
  H   H8645     1.0  0.68996  0.87795  0.33888  1.0000
  H   H8646     1.0  0.70786  0.86716  0.34895  1.0000
  C   C5033     1.0  0.97162  0.77936  0.35663  1.0000
  H   H8647     1.0  0.78126  0.94339  0.35503  1.0000
  H   H8648     1.0  0.63692  0.91304  0.25112  1.0000
  N   N359      1.0  0.77845  0.89591  0.41679  1.0000
  H   H8649     1.0  0.79364  0.90218  0.41247  1.0000
  H   H8650     1.0  0.79497  0.90853  0.33672  1.0000
  C   C5034     1.0  0.65239  0.89480  0.24311  1.0000
  C   C5035     1.0  0.69918  0.87625  0.33552  1.0000
  H   H8651     1.0  0.64262  0.92673  0.23629  1.0000
  H   H8652     1.0  0.90491  0.74966  0.32459  1.0000
  H   H8653     1.0  0.78238  0.88120  0.43818  1.0000
  C   C5036     1.0  0.69286  0.88582  0.31818  1.0000
  H   H8654     1.0  0.68432  0.88429  0.32218  1.0000
  H   H8655     1.0  0.72419  0.86283  0.31963  1.0000
  H   H8656     1.0  0.80418  0.91804  0.33162  1.0000
  N   N360      1.0  0.70164  0.87672  0.32321  1.0000
  C   C5037     1.0  0.71290  0.87961  0.31764  1.0000
  C   C5038     1.0  0.70413  0.86521  0.34298  1.0000
  H   H8657     1.0  0.69393  0.88590  0.30923  1.0000
  H   H8658     1.0  0.70768  0.85892  0.32339  1.0000
  C   C5039     1.0  0.58381  0.96413  0.28434  1.0000
  H   H8659     1.0  0.74261  0.98557  0.39203  1.0000
  H   H8660     1.0  0.91568  0.75148  0.33004  1.0000
  C   C5040     1.0  0.78554  0.90453  0.42890  1.0000
  H   H8661     1.0  0.78031  0.90079  0.43674  1.0000
  C   C5041     1.0  0.72326  0.87120  0.32113  1.0000
  H   H8662     1.0  0.71422  0.88092  0.30846  1.0000
  H   H8663     1.0  0.89244  0.77358  0.40922  1.0000
  H   H8664     1.0  0.69735  0.86085  0.34811  1.0000
  H   H8665     1.0  0.96898  0.78264  0.34856  1.0000
  C   C5042     1.0  0.61993  0.97782  0.23416  1.0000
  H   H8666     1.0  0.68208  0.94020  0.43100  1.0000
  N   N361      1.0  0.77517  0.92782  0.33927  1.0000
  H   H8667     1.0  0.78614  0.92374  0.32405  1.0000
  H   H8668     1.0  0.75798  0.91552  0.40383  1.0000
  H   H8669     1.0  0.88865  0.77115  0.39779  1.0000
  H   H8670     1.0  0.75604  0.90244  0.41271  1.0000
  H   H8671     1.0  0.59222  0.97430  0.28883  1.0000
  C   C5043     1.0  0.79577  0.91699  0.33672  1.0000
  H   H8672     1.0  0.75343  0.92007  0.34593  1.0000
  H   H8673     1.0  0.53659  0.87740  0.24215  1.0000
  H   H8674     1.0  0.62457  0.95396  0.26835  1.0000
  C   C5044     1.0  0.77185  0.91665  0.34349  1.0000
  H   H8675     1.0  0.77255  0.91275  0.33646  1.0000
  H   H8676     1.0  0.77722  0.92546  0.35600  1.0000
  C   C5045     1.0  0.62536  0.98252  0.23942  1.0000
  H   H8677     1.0  0.98899  0.77532  0.34813  1.0000
  H   H8678     1.0  0.58108  0.82240  0.23971  1.0000
  C   C5046     1.0  0.58486  0.98123  0.25868  1.0000
  C   C5047     1.0  0.90655  0.75405  0.33017  1.0000
  H   H8679     1.0  0.88720  0.74669  0.32928  1.0000
  C   C5048     1.0  0.57233  0.85757  0.24026  1.0000
  Fe  Fe721     1.0  0.97223  0.74641  0.37792  1.0000
  C   C5049     1.0  0.51540  0.86625  0.24095  1.0000
  H   H8680     1.0  0.61180  0.98402  0.26294  1.0000
  S   S1444     1.0  0.71026  0.89138  0.48050  1.0000
  H   H8681     1.0  0.65774  0.89774  0.23495  1.0000
  H   H8682     1.0  0.62743  0.91443  0.24303  1.0000
  C   C5050     1.0  0.72271  0.90637  0.47980  1.0000
  H   H8683     1.0  0.88314  0.74359  0.41549  1.0000
  C   C5051     1.0  0.72670  0.98384  0.42373  1.0000
  H   H8684     1.0  0.74299  0.87624  0.48094  1.0000
  C   C5052     1.0  0.53214  0.87090  0.24268  1.0000
  H   H8685     1.0  0.89594  0.74140  0.45754  1.0000
  H   H8686     1.0  0.53768  0.86598  0.23650  1.0000
  H   H8687     1.0  0.72468  0.98524  0.43231  1.0000
  C   C5053     1.0  0.87434  0.74007  0.34237  1.0000
  C   C5054     1.0  0.50319  0.86156  0.27361  1.0000
  C   C5055     1.0  0.75265  0.98708  0.41197  1.0000
  H   H8688     1.0  0.86755  0.74550  0.34714  1.0000
  H   H8689     1.0  0.91525  0.75398  0.47626  1.0000
  C   C5056     1.0  0.50193  0.87901  0.27864  1.0000
  C   C5057     1.0  0.72548  0.98374  0.39709  1.0000
  C   C5058     1.0  0.91706  0.74555  0.48157  1.0000
  H   H8690     1.0  0.91093  0.74315  0.37717  1.0000
  C   C5059     1.0  0.90225  0.74359  0.38224  1.0000
  H   H8691     1.0  0.58116  0.98807  0.26317  1.0000
  C   C5060     1.0  0.73599  0.98533  0.39980  1.0000
  H   H8692     1.0  0.50613  0.88889  0.24356  1.0000
  H   H8693     1.0  0.61114  0.89799  0.23301  1.0000
  C   C5061     1.0  0.59582  0.81046  0.23305  1.0000
  Fe  Fe722     1.0  0.94792  0.76968  0.58924  1.0000
  S   S1445     1.0  0.94400  0.75469  0.58656  1.0000
  S   S1446     1.0  0.93423  0.78248  0.59693  1.0000
  Fe  Fe723     1.0  0.97319  0.76202  0.58139  1.0000
  Fe  Fe724     1.0  0.95689  0.75692  0.57067  1.0000
  H   H8694     1.0  0.91030  0.74489  0.59224  1.0000
  S   S1447     1.0  0.95958  0.77290  0.57270  1.0000
  S   S1448     1.0  0.96174  0.76017  0.59818  1.0000
  H   H8695     1.0  0.85000  0.80259  0.56855  1.0000
  H   H8696     1.0  0.86766  0.81144  0.59026  1.0000
  H   H8697     1.0  0.86959  0.75285  0.65106  1.0000
  Fe  Fe725     1.0  0.95875  0.74533  0.59423  1.0000
  S   S1449     1.0  0.62112  0.89306  0.70652  1.0000
  Fe  Fe726     1.0  0.60256  0.91606  0.72197  1.0000
  S   S1450     1.0  0.60428  0.91766  0.70382  1.0000
  H   H8698     1.0  0.90106  0.75574  0.57742  1.0000
  Fe  Fe727     1.0  0.60263  0.89993  0.70854  1.0000
  S   S1451     1.0  0.59191  0.89475  0.70034  1.0000
  Fe  Fe728     1.0  0.62265  0.91080  0.70337  1.0000
  S   S1452     1.0  0.63473  0.91923  0.68924  1.0000
  S   S1453     1.0  0.62106  0.91076  0.72130  1.0000
  Fe  Fe729     1.0  0.85120  0.78702  0.59597  1.0000
  S   S1454     1.0  0.85322  0.76916  0.60529  1.0000
  S   S1455     1.0  0.83465  0.79745  0.59211  1.0000
  Fe  Fe730     1.0  0.87626  0.78597  0.58996  1.0000
  S   S1456     1.0  0.88060  0.76811  0.59865  1.0000
  S   S1457     1.0  0.88923  0.79568  0.57947  1.0000
  Fe  Fe731     1.0  0.86764  0.76562  0.59122  1.0000
  S   S1458     1.0  0.87092  0.74949  0.58592  1.0000
  Fe  Fe732     1.0  0.86595  0.77295  0.61207  1.0000
  S   S1459     1.0  0.86690  0.76659  0.62998  1.0000
  S   S1460     1.0  0.86461  0.78304  0.58120  1.0000
  S   S1461     1.0  0.86267  0.79123  0.60409  1.0000
  Fe  Fe733     1.0  0.70862  0.89763  0.63196  1.0000
  S   S1462     1.0  0.69617  0.88813  0.63194  1.0000
  S   S1463     1.0  0.72655  0.89080  0.63353  1.0000
  Fe  Fe734     1.0  0.69199  0.91966  0.63015  1.0000
  S   S1464     1.0  0.67802  0.91213  0.62997  1.0000
  S   S1465     1.0  0.68863  0.93796  0.62970  1.0000
  Fe  Fe735     1.0  0.68410  0.89855  0.64360  1.0000
  S   S1466     1.0  0.67274  0.89023  0.65864  1.0000
  Fe  Fe736     1.0  0.69118  0.90253  0.61833  1.0000
  S   S1467     1.0  0.68603  0.89961  0.60406  1.0000
  S   S1468     1.0  0.69709  0.90688  0.64476  1.0000
  S   S1469     1.0  0.70468  0.91124  0.61733  1.0000
  Fe  Fe737     1.0  0.79015  0.87214  0.57724  1.0000
  S   S1470     1.0  0.80157  0.87468  0.58663  1.0000
  S   S1471     1.0  0.79212  0.87813  0.55879  1.0000
  Fe  Fe738     1.0  0.77487  0.86224  0.59783  1.0000
  S   S1472     1.0  0.78517  0.86354  0.60891  1.0000
  S   S1473     1.0  0.75848  0.85664  0.60483  1.0000
  Fe  Fe739     1.0  0.78565  0.88061  0.59834  1.0000
  S   S1474     1.0  0.78059  0.89398  0.60826  1.0000
  Fe  Fe740     1.0  0.80014  0.85738  0.59637  1.0000
  S   S1475     1.0  0.81489  0.84547  0.60296  1.0000
  S   S1476     1.0  0.77439  0.87969  0.58801  1.0000
  S   S1477     1.0  0.78976  0.85442  0.58616  1.0000
  Fe  Fe741     1.0  0.74874  0.98035  0.58955  1.0000
  S   S1478     1.0  0.73198  0.97557  0.59516  1.0000
  Fe  Fe742     1.0  0.76110  0.95633  0.58895  1.0000
  S   S1479     1.0  0.74534  0.94975  0.59469  1.0000
  S   S1480     1.0  0.77801  0.94488  0.58496  1.0000
  Fe  Fe743     1.0  0.73845  0.96471  0.58271  1.0000
  S   S1481     1.0  0.72663  0.96230  0.57366  1.0000
  Fe  Fe744     1.0  0.74024  0.96110  0.60660  1.0000
  S   S1482     1.0  0.73115  0.95720  0.62438  1.0000
  S   S1483     1.0  0.75460  0.97067  0.57592  1.0000
  S   S1484     1.0  0.75661  0.96651  0.60200  1.0000
  Fe  Fe745     1.0  0.71801  0.91632  0.54383  1.0000
  S   S1485     1.0  0.73335  0.91066  0.55101  1.0000
  S   S1486     1.0  0.70037  0.92120  0.55317  1.0000
  Fe  Fe746     1.0  0.73088  0.91532  0.52023  1.0000
  S   S1487     1.0  0.74749  0.90981  0.52529  1.0000
  S   S1488     1.0  0.73028  0.91894  0.50206  1.0000
  Fe  Fe747     1.0  0.73887  0.89853  0.53977  1.0000
  S   S1489     1.0  0.74673  0.88067  0.54597  1.0000
  Fe  Fe748     1.0  0.74060  0.92244  0.53600  1.0000
  S   S1490     1.0  0.75092  0.93362  0.53728  1.0000
  S   S1491     1.0  0.72273  0.90303  0.53393  1.0000
  S   S1492     1.0  0.72482  0.92910  0.52963  1.0000
  H   H8699     1.0  0.85581  0.83086  0.55380  1.0000
  S   S1493     1.0  0.54113  0.91898  0.71370  1.0000
  C   C5062     1.0  0.72496  0.91088  0.49630  1.0000
  C   C5063     1.0  0.71848  0.90324  0.50296  1.0000
  C   C5064     1.0  0.71395  0.89735  0.49804  1.0000
  H   H8700     1.0  0.95540  0.78942  0.58802  1.0000
  H   H8701     1.0  0.57633  0.94815  0.71702  1.0000
  C   C5065     1.0  0.96312  0.79043  0.58982  1.0000
  H   H8702     1.0  0.71676  0.90204  0.51189  1.0000
  H   H8703     1.0  0.70880  0.89157  0.50320  1.0000
  H   H8704     1.0  0.90820  0.74878  0.63495  1.0000
  C   C5066     1.0  0.73330  0.95465  0.56328  1.0000
  C   C5067     1.0  0.72739  0.94841  0.56039  1.0000
  C   C5068     1.0  0.73275  0.94190  0.55243  1.0000
  C   C5069     1.0  0.74389  0.94202  0.54697  1.0000
  C   C5070     1.0  0.74959  0.94871  0.54946  1.0000
  C   C5071     1.0  0.74442  0.95477  0.55781  1.0000
  H   H8705     1.0  0.71871  0.94851  0.56437  1.0000
  H   H8706     1.0  0.72823  0.93689  0.55044  1.0000
  H   H8707     1.0  0.75805  0.94915  0.54497  1.0000
  H   H8708     1.0  0.74895  0.95975  0.55982  1.0000
  C   C5072     1.0  0.99027  0.77228  0.59602  1.0000
  C   C5073     1.0  0.77999  0.87824  0.55467  1.0000
  C   C5074     1.0  0.77682  0.88624  0.54553  1.0000
  C   C5075     1.0  0.76662  0.88701  0.54277  1.0000
  C   C5076     1.0  0.75985  0.87944  0.54881  1.0000
  C   C5077     1.0  0.76342  0.87097  0.55744  1.0000
  C   C5078     1.0  0.77329  0.87058  0.56062  1.0000
  H   H8709     1.0  0.78206  0.89209  0.54081  1.0000
  H   H8710     1.0  0.76406  0.89344  0.53594  1.0000
  H   H8711     1.0  0.75847  0.86481  0.56178  1.0000
  H   H8712     1.0  0.77580  0.86425  0.56755  1.0000
  C   C5079     1.0  0.78010  0.90801  0.60151  1.0000
  C   C5080     1.0  0.78938  0.91150  0.59394  1.0000
  C   C5081     1.0  0.78879  0.92289  0.58908  1.0000
  C   C5082     1.0  0.77898  0.93080  0.59187  1.0000
  C   C5083     1.0  0.76985  0.92728  0.59967  1.0000
  C   C5084     1.0  0.77041  0.91592  0.60442  1.0000
  H   H8713     1.0  0.79704  0.90545  0.59199  1.0000
  H   H8714     1.0  0.79594  0.92557  0.58314  1.0000
  H   H8715     1.0  0.76239  0.93328  0.60210  1.0000
  H   H8716     1.0  0.76331  0.91321  0.61032  1.0000
  C   C5085     1.0  0.70063  0.94295  0.62831  1.0000
  C   C5086     1.0  0.70137  0.94794  0.63648  1.0000
  C   C5087     1.0  0.71080  0.95225  0.63526  1.0000
  C   C5088     1.0  0.71925  0.95208  0.62563  1.0000
  C   C5089     1.0  0.71834  0.94741  0.61730  1.0000
  C   C5090     1.0  0.70921  0.94252  0.61882  1.0000
  H   H8717     1.0  0.69471  0.94833  0.64381  1.0000
  H   H8718     1.0  0.71145  0.95587  0.64172  1.0000
  H   H8719     1.0  0.72485  0.94714  0.60990  1.0000
  H   H8720     1.0  0.70883  0.93838  0.61270  1.0000
  C   C5091     1.0  0.69057  0.90576  0.59006  1.0000
  C   C5092     1.0  0.68384  0.90664  0.58272  1.0000
  C   C5093     1.0  0.68703  0.91130  0.57144  1.0000
  C   C5094     1.0  0.69722  0.91470  0.56728  1.0000
  C   C5095     1.0  0.70418  0.91362  0.57453  1.0000
  C   C5096     1.0  0.70072  0.90937  0.58600  1.0000
  H   H8721     1.0  0.67602  0.90383  0.58580  1.0000
  H   H8722     1.0  0.68160  0.91218  0.56591  1.0000
  H   H8723     1.0  0.71200  0.91640  0.57136  1.0000
  H   H8724     1.0  0.70588  0.90878  0.59167  1.0000
  C   C5097     1.0  0.73503  0.88131  0.62541  1.0000
  C   C5098     1.0  0.74622  0.88206  0.62087  1.0000
  C   C5099     1.0  0.75335  0.87447  0.61460  1.0000
  C   C5100     1.0  0.74947  0.86588  0.61305  1.0000
  C   C5101     1.0  0.73833  0.86493  0.61781  1.0000
  C   C5102     1.0  0.73104  0.87276  0.62385  1.0000
  H   H8725     1.0  0.74943  0.88855  0.62212  1.0000
  H   H8726     1.0  0.76191  0.87529  0.61107  1.0000
  H   H8727     1.0  0.73530  0.85818  0.61682  1.0000
  H   H8728     1.0  0.72245  0.87203  0.62754  1.0000
  C   C5103     1.0  0.82943  0.81084  0.59505  1.0000
  C   C5104     1.0  0.82087  0.81815  0.59002  1.0000
  C   C5105     1.0  0.81651  0.82891  0.59216  1.0000
  C   C5106     1.0  0.82057  0.83233  0.59951  1.0000
  C   C5107     1.0  0.82918  0.82504  0.60450  1.0000
  C   C5108     1.0  0.83363  0.81433  0.60225  1.0000
  H   H8729     1.0  0.81762  0.81549  0.58441  1.0000
  H   H8730     1.0  0.80996  0.83449  0.58820  1.0000
  H   H8731     1.0  0.83234  0.82765  0.61021  1.0000
  H   H8732     1.0  0.84018  0.80872  0.60622  1.0000
  H   H8733     1.0  0.92096  0.76741  0.54529  1.0000
  C   C5109     1.0  0.87175  0.75212  0.63402  1.0000
  H   H8734     1.0  0.67922  0.95064  0.49869  1.0000
  C   C5110     1.0  0.72703  0.91243  0.48471  1.0000
  H   H8735     1.0  0.92322  0.74549  0.48633  1.0000
  C   C5111     1.0  0.64582  0.91115  0.68116  1.0000
  C   C5112     1.0  0.65142  0.91639  0.67083  1.0000
  C   C5113     1.0  0.65990  0.91009  0.66396  1.0000
  C   C5114     1.0  0.66279  0.89849  0.66737  1.0000
  C   C5115     1.0  0.65729  0.89328  0.67777  1.0000
  C   C5116     1.0  0.64888  0.89959  0.68468  1.0000
  H   H8736     1.0  0.64914  0.92534  0.66810  1.0000
  H   H8737     1.0  0.66411  0.91418  0.65597  1.0000
  H   H8738     1.0  0.65956  0.88432  0.68049  1.0000
  H   H8739     1.0  0.64480  0.89552  0.69272  1.0000
  H   H8740     1.0  0.90936  0.74387  0.48781  1.0000
  C   C5117     1.0  0.74230  0.87351  0.49007  1.0000
  C   C5118     1.0  0.90724  0.74667  0.60918  1.0000
  H   H8741     1.0  0.68151  0.93179  0.58281  1.0000
  C   C5119     1.0  0.57767  0.90095  0.70435  1.0000
  C   C5120     1.0  0.57277  0.90148  0.71545  1.0000
  C   C5121     1.0  0.56131  0.90623  0.71855  1.0000
  C   C5122     1.0  0.55491  0.91118  0.71044  1.0000
  C   C5123     1.0  0.55988  0.91080  0.69933  1.0000
  C   C5124     1.0  0.57113  0.90545  0.69634  1.0000
  H   H8742     1.0  0.57780  0.89819  0.72164  1.0000
  H   H8743     1.0  0.58417  0.87827  0.72350  1.0000
  H   H8744     1.0  0.55499  0.91464  0.69302  1.0000
  H   H8745     1.0  0.57486  0.90510  0.68775  1.0000
  C   C5125     1.0  0.88210  0.74975  0.54904  1.0000
  C   C5126     1.0  0.87696  0.75980  0.55247  1.0000
  C   C5127     1.0  0.87304  0.75982  0.56382  1.0000
  C   C5128     1.0  0.87437  0.74980  0.57168  1.0000
  H   H8746     1.0  0.72904  0.88174  0.51162  1.0000
  H   H8747     1.0  0.90533  0.76824  0.53861  1.0000
  H   H8748     1.0  0.87639  0.76758  0.54638  1.0000
  H   H8749     1.0  0.86922  0.76759  0.56647  1.0000
  H   H8750     1.0  0.95420  0.79454  0.60616  1.0000
  H   H8751     1.0  0.57050  0.96762  0.71682  1.0000
  C   C5129     1.0  0.92184  0.78568  0.59196  1.0000
  C   C5130     1.0  0.92186  0.79036  0.58075  1.0000
  C   C5131     1.0  0.91176  0.79366  0.57705  1.0000
  C   C5132     1.0  0.90171  0.79179  0.58441  1.0000
  C   C5133     1.0  0.90172  0.78691  0.59559  1.0000
  C   C5134     1.0  0.91173  0.78415  0.59940  1.0000
  H   H8752     1.0  0.92961  0.79173  0.57500  1.0000
  H   H8753     1.0  0.91175  0.79757  0.56843  1.0000
  H   H8754     1.0  0.89396  0.78561  0.60137  1.0000
  H   H8755     1.0  0.91166  0.78091  0.60811  1.0000
  C   C5135     1.0  0.70489  0.94664  0.58908  1.0000
  C   C5136     1.0  0.92045  0.76197  0.56755  1.0000
  H   H8756     1.0  0.71343  0.92948  0.59595  1.0000
  S   S1494     1.0  0.59944  0.89875  0.72680  1.0000
  H   H8757     1.0  0.75664  0.92345  0.62499  1.0000
  H   H8758     1.0  0.71654  0.97976  0.63098  1.0000
  H   H8759     1.0  0.75455  0.93514  0.63056  1.0000
  N   N362      1.0  0.78619  0.82929  0.62379  1.0000
  C   C5137     1.0  0.79253  0.82802  0.61221  1.0000
  C   C5138     1.0  0.79318  0.83407  0.62839  1.0000
  C   C5139     1.0  0.77507  0.83725  0.62282  1.0000
  C   C5140     1.0  0.78448  0.81796  0.63048  1.0000
  C   C5141     1.0  0.78627  0.82469  0.60522  1.0000
  C   C5142     1.0  0.80447  0.82644  0.63046  1.0000
  C   C5143     1.0  0.76912  0.84357  0.63224  1.0000
  C   C5144     1.0  0.77924  0.81702  0.64296  1.0000
  H   H8760     1.0  0.79501  0.83596  0.60731  1.0000
  H   H8761     1.0  0.80047  0.82163  0.61240  1.0000
  H   H8762     1.0  0.78868  0.83645  0.63639  1.0000
  H   H8763     1.0  0.79501  0.84201  0.62273  1.0000
  H   H8764     1.0  0.77613  0.84388  0.61518  1.0000
  H   H8765     1.0  0.76897  0.83293  0.62184  1.0000
  H   H8766     1.0  0.77887  0.81495  0.62716  1.0000
  H   H8767     1.0  0.79243  0.81152  0.62955  1.0000
  H   H8768     1.0  0.78421  0.81639  0.60896  1.0000
  H   H8769     1.0  0.77859  0.83102  0.60367  1.0000
  H   H8770     1.0  0.79186  0.82413  0.59696  1.0000
  H   H8771     1.0  0.80333  0.81870  0.63675  1.0000
  H   H8772     1.0  0.81019  0.82434  0.62275  1.0000
  H   H8773     1.0  0.80882  0.83095  0.63370  1.0000
  H   H8774     1.0  0.76798  0.83803  0.64055  1.0000
  H   H8775     1.0  0.76062  0.84812  0.63087  1.0000
  H   H8776     1.0  0.77358  0.85001  0.63208  1.0000
  H   H8777     1.0  0.76995  0.81878  0.64447  1.0000
  H   H8778     1.0  0.78181  0.82243  0.64680  1.0000
  H   H8779     1.0  0.78221  0.80840  0.64750  1.0000
  N   N363      1.0  0.69640  0.93679  0.51293  1.0000
  C   C5145     1.0  0.69754  0.92872  0.52384  1.0000
  C   C5146     1.0  0.70549  0.94333  0.50994  1.0000
  C   C5147     1.0  0.69801  0.93003  0.50436  1.0000
  C   C5148     1.0  0.68483  0.94414  0.51445  1.0000
  C   C5149     1.0  0.68985  0.92022  0.52797  1.0000
  C   C5150     1.0  0.70431  0.95127  0.51758  1.0000
  C   C5151     1.0  0.76324  0.86809  0.51640  1.0000
  C   C5152     1.0  0.68219  0.95364  0.50452  1.0000
  H   H8780     1.0  0.70631  0.92376  0.52335  1.0000
  H   H8781     1.0  0.69582  0.93317  0.53067  1.0000
  H   H8782     1.0  0.70614  0.94860  0.50145  1.0000
  H   H8783     1.0  0.71385  0.93756  0.50972  1.0000
  H   H8784     1.0  0.70416  0.92208  0.50611  1.0000
  H   H8785     1.0  0.69010  0.92754  0.50482  1.0000
  H   H8786     1.0  0.67837  0.93912  0.51627  1.0000
  H   H8787     1.0  0.68281  0.94773  0.52195  1.0000
  C   C5153     1.0  0.97762  0.80136  0.58445  1.0000
  H   H8788     1.0  0.89676  0.74441  0.63328  1.0000
  H   H8789     1.0  0.69121  0.91482  0.52204  1.0000
  H   H8790     1.0  0.70436  0.94688  0.52630  1.0000
  H   H8791     1.0  0.71163  0.95531  0.51467  1.0000
  H   H8792     1.0  0.69669  0.95802  0.51724  1.0000
  C   C5154     1.0  0.60049  0.86959  0.72623  1.0000
  H   H8793     1.0  0.55706  0.96877  0.71439  1.0000
  H   H8794     1.0  0.54246  0.96093  0.72300  1.0000
  C   C5155     1.0  0.74551  0.88223  0.49425  1.0000
  H   H8795     1.0  0.68933  0.95761  0.49994  1.0000
  H   H8796     1.0  0.67552  0.96044  0.50762  1.0000
  N   N364      1.0  0.77621  0.91720  0.56304  1.0000
  C   C5156     1.0  0.78849  0.91401  0.56349  1.0000
  C   C5157     1.0  0.77485  0.92668  0.55316  1.0000
  C   C5158     1.0  0.77288  0.90723  0.56165  1.0000
  C   C5159     1.0  0.76970  0.92063  0.57376  1.0000
  C   C5160     1.0  0.79239  0.90259  0.57093  1.0000
  C   C5161     1.0  0.77856  0.93728  0.55311  1.0000
  C   C5162     1.0  0.76291  0.90951  0.55599  1.0000
  C   C5163     1.0  0.75690  0.92429  0.57521  1.0000
  H   H8797     1.0  0.79388  0.91385  0.55504  1.0000
  H   H8798     1.0  0.79082  0.92030  0.56652  1.0000
  H   H8799     1.0  0.76603  0.92942  0.55229  1.0000
  H   H8800     1.0  0.77958  0.92385  0.54536  1.0000
  H   H8801     1.0  0.77997  0.90237  0.55640  1.0000
  H   H8802     1.0  0.77110  0.90137  0.56978  1.0000
  H   H8803     1.0  0.77125  0.91379  0.58102  1.0000
  H   H8804     1.0  0.77262  0.92765  0.57481  1.0000
  H   H8805     1.0  0.78648  0.90086  0.57898  1.0000
  H   H8806     1.0  0.79375  0.89576  0.56663  1.0000
  H   H8807     1.0  0.80061  0.90227  0.57264  1.0000
  H   H8808     1.0  0.78748  0.93566  0.55353  1.0000
  H   H8809     1.0  0.77767  0.94333  0.54517  1.0000
  H   H8810     1.0  0.77315  0.94145  0.55986  1.0000
  H   H8811     1.0  0.75566  0.91592  0.55880  1.0000
  H   H8812     1.0  0.75989  0.90171  0.55765  1.0000
  H   H8813     1.0  0.76566  0.91209  0.54684  1.0000
  H   H8814     1.0  0.75436  0.93127  0.56845  1.0000
  H   H8815     1.0  0.75339  0.92736  0.58305  1.0000
  H   H8816     1.0  0.75307  0.91721  0.57601  1.0000
  S   S1495     1.0  0.99040  0.76615  0.57681  1.0000
  H   H8817     1.0  0.98208  0.77029  0.59931  1.0000
  H   H8818     1.0  0.75753  0.97877  0.61766  1.0000
  H   H8819     1.0  0.96508  0.81147  0.56676  1.0000
  C   C5164     1.0  0.75648  0.97767  0.62671  1.0000
  H   H8820     1.0  0.95911  0.78015  0.60633  1.0000
  C   C5165     1.0  0.99603  0.77099  0.58531  1.0000
  C   C5166     1.0  0.94547  0.81174  0.58803  1.0000
  N   N365      1.0  0.96608  0.80140  0.58333  1.0000
  C   C5167     1.0  0.56365  0.96308  0.71864  1.0000
  H   H8821     1.0  0.93933  0.74168  0.53148  1.0000
  H   H8822     1.0  0.98009  0.81803  0.58345  1.0000
  C   C5168     1.0  0.87235  0.74753  0.64512  1.0000
  H   H8823     1.0  0.94395  0.81287  0.57963  1.0000
  C   C5169     1.0  0.94940  0.74683  0.55134  1.0000
  H   H8824     1.0  0.93465  0.75536  0.61187  1.0000
  S   S1496     1.0  0.88909  0.74978  0.53523  1.0000
  H   H8825     1.0  0.75328  0.88424  0.48832  1.0000
  H   H8826     1.0  0.88790  0.78524  0.55911  1.0000
  C   C5170     1.0  0.97550  0.79547  0.56462  1.0000
  H   H8827     1.0  0.68088  0.92432  0.52999  1.0000
  C   C5171     1.0  0.73661  0.87529  0.51338  1.0000
  C   C5172     1.0  0.73454  0.98832  0.61770  1.0000
  H   H8828     1.0  0.88670  0.77209  0.56810  1.0000
  N   N366      1.0  0.91145  0.74270  0.61982  1.0000
  H   H8829     1.0  0.98349  0.79818  0.56312  1.0000
  H   H8830     1.0  0.73568  0.86758  0.51156  1.0000
  H   H8831     1.0  0.95989  0.81909  0.58256  1.0000
  C   C5173     1.0  0.95790  0.81103  0.58770  1.0000
  C   C5174     1.0  0.75726  0.86955  0.50689  1.0000
  H   H8832     1.0  0.91703  0.76218  0.57650  1.0000
  H   H8833     1.0  0.89689  0.75490  0.56578  1.0000
  H   H8834     1.0  0.76144  0.96927  0.62970  1.0000
  H   H8835     1.0  0.83683  0.83303  0.56444  1.0000
  H   H8836     1.0  0.90320  0.77728  0.56912  1.0000
  H   H8837     1.0  0.93190  0.77095  0.55398  1.0000
  H   H8838     1.0  0.67548  0.93574  0.61217  1.0000
  H   H8839     1.0  0.95866  0.81096  0.59618  1.0000
  C   C5175     1.0  0.84755  0.83308  0.57562  1.0000
  H   H8840     1.0  0.69093  0.96255  0.60193  1.0000
  H   H8841     1.0  0.99379  0.74503  0.59987  1.0000
  C   C5176     1.0  0.68362  0.95952  0.60167  1.0000
  H   H8842     1.0  0.97662  0.78655  0.56868  1.0000
  S   S1497     1.0  0.95375  0.75769  0.55395  1.0000
  H   H8843     1.0  0.72383  0.97157  0.64185  1.0000
  H   H8844     1.0  0.90787  0.78051  0.55444  1.0000
  H   H8845     1.0  0.99152  0.80951  0.57548  1.0000
  H   H8846     1.0  0.86836  0.83450  0.57551  1.0000
  H   H8847     1.0  0.87163  0.82285  0.59244  1.0000
  C   C5177     1.0  0.71608  0.89887  0.48644  1.0000
  H   H8848     1.0  0.85111  0.81471  0.55790  1.0000
  C   C5178     1.0  0.86568  0.82064  0.58886  1.0000
  C   C5179     1.0  0.90445  0.75423  0.56885  1.0000
  H   H8849     1.0  0.53608  0.96266  0.71176  1.0000
  C   C5180     1.0  0.86232  0.83003  0.55843  1.0000
  C   C5181     1.0  0.74411  0.97841  0.63291  1.0000
  N   N367      1.0  0.85840  0.82588  0.57072  1.0000
  C   C5182     1.0  0.99526  0.77593  0.60257  1.0000
  H   H8850     1.0  0.84308  0.82815  0.58324  1.0000
  N   N368      1.0  0.62212  0.89906  0.66896  1.0000
  C   C5183     1.0  0.61900  0.90640  0.67725  1.0000
  C   C5184     1.0  0.62252  0.88715  0.67531  1.0000
  C   C5185     1.0  0.61359  0.90216  0.66185  1.0000
  C   C5186     1.0  0.63330  0.90059  0.66155  1.0000
  C   C5187     1.0  0.61715  0.91908  0.67242  1.0000
  C   C5188     1.0  0.63291  0.88146  0.68038  1.0000
  C   C5189     1.0  0.60134  0.90228  0.66824  1.0000
  C   C5190     1.0  0.63819  0.89327  0.65281  1.0000
  H   H8851     1.0  0.61132  0.90479  0.68358  1.0000
  H   H8852     1.0  0.62561  0.90436  0.68208  1.0000
  H   H8853     1.0  0.62192  0.88175  0.67008  1.0000
  H   H8854     1.0  0.61508  0.88662  0.68233  1.0000
  H   H8855     1.0  0.61387  0.91044  0.65616  1.0000
  H   H8856     1.0  0.61563  0.89625  0.65624  1.0000
  H   H8857     1.0  0.63279  0.90933  0.65676  1.0000
  H   H8858     1.0  0.63969  0.89948  0.66644  1.0000
  H   H8859     1.0  0.61441  0.92350  0.67937  1.0000
  H   H8860     1.0  0.62504  0.92159  0.66740  1.0000
  H   H8861     1.0  0.61050  0.92215  0.66757  1.0000
  H   H8862     1.0  0.63407  0.88628  0.68579  1.0000
  H   H8863     1.0  0.63181  0.87316  0.68559  1.0000
  H   H8864     1.0  0.64068  0.88004  0.67392  1.0000
  H   H8865     1.0  0.59590  0.90421  0.66219  1.0000
  H   H8866     1.0  0.59812  0.90880  0.67323  1.0000
  H   H8867     1.0  0.60033  0.89408  0.67372  1.0000
  H   H8868     1.0  0.63595  0.89784  0.64473  1.0000
  H   H8869     1.0  0.63541  0.88528  0.65527  1.0000
  H   H8870     1.0  0.64749  0.89103  0.65160  1.0000
  N   N369      1.0  0.73235  0.88104  0.58601  1.0000
  C   C5191     1.0  0.74405  0.88297  0.58397  1.0000
  C   C5192     1.0  0.73315  0.86862  0.58933  1.0000
  C   C5193     1.0  0.72520  0.88644  0.59546  1.0000
  C   C5194     1.0  0.72805  0.88632  0.57548  1.0000
  C   C5195     1.0  0.74495  0.89521  0.58197  1.0000
  C   C5196     1.0  0.74070  0.86189  0.58073  1.0000
  C   C5197     1.0  0.71438  0.88231  0.60179  1.0000
  C   C5198     1.0  0.71728  0.88353  0.57456  1.0000
  H   H8871     1.0  0.74807  0.87824  0.59108  1.0000
  H   H8872     1.0  0.74957  0.87979  0.57661  1.0000
  H   H8873     1.0  0.72484  0.86642  0.59151  1.0000
  H   H8874     1.0  0.73641  0.86515  0.59705  1.0000
  H   H8875     1.0  0.73008  0.88525  0.60189  1.0000
  H   H8876     1.0  0.72275  0.89562  0.59254  1.0000
  H   H8877     1.0  0.72626  0.89556  0.57413  1.0000
  H   H8878     1.0  0.73461  0.88460  0.56801  1.0000
  H   H8879     1.0  0.75393  0.89549  0.58032  1.0000
  H   H8880     1.0  0.74170  0.90050  0.57462  1.0000
  H   H8881     1.0  0.74075  0.89885  0.58937  1.0000
  H   H8882     1.0  0.74967  0.86126  0.58042  1.0000
  H   H8883     1.0  0.73934  0.85323  0.58333  1.0000
  H   H8884     1.0  0.73881  0.86540  0.57235  1.0000
  H   H8885     1.0  0.70945  0.88785  0.60757  1.0000
  H   H8886     1.0  0.71627  0.87382  0.60701  1.0000
  H   H8887     1.0  0.70895  0.88249  0.59629  1.0000
  H   H8888     1.0  0.70968  0.88933  0.57798  1.0000
  H   H8889     1.0  0.71646  0.87486  0.57839  1.0000
  H   H8890     1.0  0.71746  0.88443  0.56565  1.0000
  C   C5199     1.0  0.91649  0.76072  0.55040  1.0000
  C   C5200     1.0  0.70238  0.93523  0.49209  1.0000
  H   H8891     1.0  0.74789  0.86518  0.49169  1.0000
  H   H8892     1.0  0.89116  0.77331  0.55318  1.0000
  C   C5201     1.0  0.87538  0.74519  0.62634  1.0000
  H   H8893     1.0  0.96897  0.78817  0.60527  1.0000
  N   N370      1.0  0.56081  0.94423  0.71692  1.0000
  C   C5202     1.0  0.56754  0.93403  0.71247  1.0000
  H   H8894     1.0  0.73270  0.98021  0.61796  1.0000
  C   C5203     1.0  0.56839  0.95234  0.71410  1.0000
  C   C5204     1.0  0.55082  0.94910  0.71152  1.0000
  C   C5205     1.0  0.57310  0.93601  0.70000  1.0000
  H   H8895     1.0  0.71085  0.98115  0.64498  1.0000
  H   H8896     1.0  0.69188  0.91460  0.53580  1.0000
  C   C5206     1.0  0.54053  0.95632  0.71787  1.0000
  H   H8897     1.0  0.76707  0.85912  0.51897  1.0000
  H   H8898     1.0  0.56217  0.92806  0.71374  1.0000
  H   H8899     1.0  0.92324  0.75305  0.55066  1.0000
  H   H8900     1.0  0.70214  0.92970  0.48683  1.0000
  C   C5207     1.0  0.92732  0.77116  0.56262  1.0000
  H   H8901     1.0  0.57093  0.95523  0.70496  1.0000
  H   H8902     1.0  0.55333  0.95415  0.70306  1.0000
  H   H8903     1.0  0.54761  0.94226  0.71037  1.0000
  H   H8904     1.0  0.92214  0.77961  0.56288  1.0000
  H   H8905     1.0  0.74175  0.97085  0.63226  1.0000
  H   H8906     1.0  0.56705  0.94100  0.69476  1.0000
  H   H8907     1.0  0.53436  0.95122  0.72301  1.0000
  H   H8908     1.0  0.97778  0.80049  0.59328  1.0000
  H   H8909     1.0  0.95788  0.80052  0.57086  1.0000
  H   H8910     1.0  0.93368  0.76983  0.56759  1.0000
  H   H8911     1.0  0.57428  0.92943  0.71707  1.0000
  H   H8912     1.0  0.92666  0.75393  0.56734  1.0000
  H   H8913     1.0  0.74979  0.88754  0.51746  1.0000
  H   H8914     1.0  0.94501  0.75679  0.53601  1.0000
  H   H8915     1.0  0.87492  0.74868  0.61775  1.0000
  N   N371      1.0  0.73711  0.91618  0.63765  1.0000
  C   C5208     1.0  0.72939  0.91292  0.64870  1.0000
  C   C5209     1.0  0.74673  0.90632  0.63623  1.0000
  C   C5210     1.0  0.73046  0.91877  0.62876  1.0000
  C   C5211     1.0  0.74091  0.92635  0.63779  1.0000
  C   C5212     1.0  0.71821  0.92138  0.65129  1.0000
  C   C5213     1.0  0.75453  0.90312  0.64446  1.0000
  C   C5214     1.0  0.73698  0.91787  0.61688  1.0000
  C   C5215     1.0  0.75004  0.93031  0.62791  1.0000
  H   H8916     1.0  0.72717  0.90485  0.64933  1.0000
  H   H8917     1.0  0.73358  0.91154  0.65568  1.0000
  H   H8918     1.0  0.75221  0.90753  0.62785  1.0000
  H   H8919     1.0  0.74351  0.89882  0.63693  1.0000
  H   H8920     1.0  0.72439  0.91326  0.63095  1.0000
  H   H8921     1.0  0.72516  0.92725  0.62828  1.0000
  H   H8922     1.0  0.73374  0.93365  0.63803  1.0000
  H   H8923     1.0  0.74371  0.92539  0.64558  1.0000
  H   H8924     1.0  0.71952  0.92946  0.65177  1.0000
  H   H8925     1.0  0.71288  0.92281  0.64525  1.0000
  H   H8926     1.0  0.71331  0.91795  0.65953  1.0000
  H   H8927     1.0  0.75840  0.91007  0.64408  1.0000
  H   H8928     1.0  0.75019  0.90007  0.65308  1.0000
  H   H8929     1.0  0.76151  0.89614  0.64217  1.0000
  H   H8930     1.0  0.74061  0.90904  0.61632  1.0000
  H   H8931     1.0  0.74361  0.92273  0.61374  1.0000
  H   H8932     1.0  0.73104  0.92121  0.61120  1.0000
  H   H8933     1.0  0.74632  0.93580  0.62089  1.0000
  C   C5216     1.0  0.96131  0.78840  0.60257  1.0000
  H   H8934     1.0  0.67578  0.94660  0.57825  1.0000
  H   H8935     1.0  0.70057  0.93496  0.57705  1.0000
  H   H8936     1.0  0.72246  0.93886  0.58865  1.0000
  C   C5217     1.0  0.68323  0.93973  0.57722  1.0000
  H   H8937     1.0  0.69606  0.94934  0.57167  1.0000
  C   C5218     1.0  0.69386  0.94232  0.57864  1.0000
  H   H8938     1.0  0.68469  0.93851  0.56864  1.0000
  H   H8939     1.0  0.92629  0.74107  0.62597  1.0000
  C   C5219     1.0  0.71473  0.93636  0.58861  1.0000
  H   H8940     1.0  0.71653  0.93325  0.58091  1.0000
  H   H8941     1.0  0.76027  0.98382  0.62828  1.0000
  H   H8942     1.0  0.89299  0.76453  0.63203  1.0000
  H   H8943     1.0  0.69569  0.92726  0.59693  1.0000
  H   H8944     1.0  0.70716  0.95336  0.58182  1.0000
  H   H8945     1.0  0.87446  0.84027  0.55638  1.0000
  N   N372      1.0  0.69344  0.94486  0.58960  1.0000
  H   H8946     1.0  0.89129  0.76127  0.62003  1.0000
  C   C5220     1.0  0.89763  0.76092  0.62467  1.0000
  H   H8947     1.0  0.69732  0.94354  0.48922  1.0000
  C   C5221     1.0  0.69088  0.93532  0.59915  1.0000
  H   H8948     1.0  0.68786  0.96261  0.58380  1.0000
  C   C5222     1.0  0.68523  0.95575  0.59075  1.0000
  H   H8949     1.0  0.70495  0.94967  0.59638  1.0000
  H   H8950     1.0  0.67680  0.95568  0.58994  1.0000
  H   H8951     1.0  0.67780  0.92569  0.60411  1.0000
  H   H8952     1.0  0.67253  0.93995  0.59853  1.0000
  H   H8953     1.0  0.86963  0.82385  0.55499  1.0000
  H   H8954     1.0  0.71132  0.93570  0.49056  1.0000
  N   N373      1.0  0.74707  0.87895  0.50609  1.0000
  H   H8955     1.0  0.72727  0.87088  0.53022  1.0000
  C   C5223     1.0  0.55751  0.94055  0.72936  1.0000
  C   C5224     1.0  0.67846  0.93435  0.60356  1.0000
  H   H8956     1.0  0.90336  0.76635  0.61947  1.0000
  H   H8957     1.0  0.96975  0.78336  0.58718  1.0000
  H   H8958     1.0  0.69388  0.93576  0.60638  1.0000
  H   H8959     1.0  0.90694  0.75570  0.60577  1.0000
  H   H8960     1.0  0.83106  0.84274  0.57327  1.0000
  N   N374      1.0  0.91115  0.76281  0.56188  1.0000
  H   H8961     1.0  0.74384  0.97729  0.64189  1.0000
  C   C5225     1.0  0.89176  0.77619  0.56033  1.0000
  C   C5226     1.0  0.90369  0.74878  0.62861  1.0000
  H   H8962     1.0  0.75785  0.87071  0.52400  1.0000
  C   C5227     1.0  0.98224  0.81189  0.57809  1.0000
  H   H8963     1.0  0.86618  0.84481  0.54608  1.0000
  H   H8964     1.0  0.92124  0.76134  0.61909  1.0000
  H   H8965     1.0  0.73621  0.87990  0.52893  1.0000
  C   C5228     1.0  0.91074  0.74195  0.56967  1.0000
  S   S1498     1.0  0.97142  0.74620  0.57808  1.0000
  C   C5229     1.0  0.92552  0.75576  0.61324  1.0000
  H   H8966     1.0  0.67632  0.96666  0.60224  1.0000
  H   H8967     1.0  0.68184  0.95292  0.60913  1.0000
  C   C5230     1.0  0.94544  0.74873  0.54164  1.0000
  H   H8968     1.0  0.84190  0.84565  0.56144  1.0000
  H   H8969     1.0  0.91355  0.75448  0.53747  1.0000
  C   C5231     1.0  0.85730  0.81395  0.57282  1.0000
  H   H8970     1.0  0.98388  0.79390  0.58215  1.0000
  H   H8971     1.0  0.60381  0.87293  0.71732  1.0000
  H   H8972     1.0  0.85707  0.82359  0.59346  1.0000
  C   C5232     1.0  0.96566  0.80266  0.57138  1.0000
  H   H8973     1.0  0.92319  0.75946  0.60509  1.0000
  H   H8974     1.0  0.84038  0.81510  0.57068  1.0000
  C   C5233     1.0  0.86745  0.82586  0.57633  1.0000
  H   H8975     1.0  0.74187  0.86517  0.52873  1.0000
  H   H8976     1.0  0.57643  0.92780  0.69757  1.0000
  C   C5234     1.0  0.74823  0.88922  0.50901  1.0000
  H   H8977     1.0  0.94237  0.80436  0.59354  1.0000
  C   C5235     1.0  0.86590  0.84134  0.55507  1.0000
  H   H8978     1.0  0.58038  0.93994  0.69821  1.0000
  C   C5236     1.0  0.84922  0.81173  0.56702  1.0000
  C   C5237     1.0  0.90393  0.77443  0.56141  1.0000
  H   H8979     1.0  0.97916  0.81604  0.57039  1.0000
  H   H8980     1.0  0.87578  0.82135  0.57231  1.0000
  C   C5238     1.0  0.83899  0.83883  0.56814  1.0000
  H   H8981     1.0  0.85431  0.81062  0.58183  1.0000
  H   H8982     1.0  0.86566  0.80849  0.57038  1.0000
  H   H8983     1.0  0.75513  0.86145  0.50755  1.0000
  H   H8984     1.0  0.90179  0.75585  0.54832  1.0000
  H   H8985     1.0  0.73341  0.87294  0.49369  1.0000
  C   C5239     1.0  0.92335  0.74393  0.61805  1.0000
  H   H8986     1.0  0.86001  0.84753  0.55971  1.0000
  C   C5240     1.0  0.73566  0.87272  0.52599  1.0000
  H   H8987     1.0  0.84915  0.83991  0.57845  1.0000
  H   H8988     1.0  0.73896  0.88999  0.49303  1.0000
  C   C5241     1.0  0.90873  0.75991  0.54340  1.0000
  H   H8989     1.0  0.94024  0.81911  0.59138  1.0000
  H   H8990     1.0  0.99078  0.77697  0.61084  1.0000
  Fe  Fe749     1.0  0.61810  0.89346  0.72450  1.0000
  H   H8991     1.0  0.92288  0.74151  0.59719  1.0000
  C   C5242     1.0  0.71881  0.97987  0.63871  1.0000
  H   H8992     1.0  0.97375  0.79629  0.55637  1.0000
  H   H8993     1.0  0.99736  0.74119  0.58650  1.0000
  H   H8994     1.0  0.91352  0.73967  0.56144  1.0000
  H   H8995     1.0  0.89841  0.74571  0.61081  1.0000
  H   H8996     1.0  0.74021  0.89553  0.50928  1.0000
  H   H8997     1.0  0.74249  0.98867  0.61145  1.0000
  N   N375      1.0  0.73592  0.98880  0.62887  1.0000
  H   H8998     1.0  0.58709  0.86399  0.72343  1.0000
  H   H8999     1.0  0.72613  0.98896  0.64556  1.0000
  C   C5243     1.0  0.72491  0.98931  0.63718  1.0000
  C   C5244     1.0  0.91399  0.74079  0.59961  1.0000
  H   H9000     1.0  0.56059  0.96152  0.72777  1.0000
  H   H9001     1.0  0.55759  0.90649  0.72712  1.0000
  H   H9002     1.0  0.56594  0.87838  0.72537  1.0000
  H   H9003     1.0  0.83531  0.74304  0.58927  1.0000
  H   H9004     1.0  0.54419  0.93247  0.72912  1.0000
  C   C5245     1.0  0.58787  0.86990  0.72802  1.0000
  S   S1499     1.0  0.58908  0.92864  0.72998  1.0000
  H   H9005     1.0  0.60541  0.86098  0.72836  1.0000
  H   H9006     1.0  0.77038  0.87239  0.51341  1.0000
  H   H9007     1.0  0.76379  0.87076  0.49911  1.0000
  C   C5246     1.0  0.88259  0.73971  0.55688  1.0000
  C   C5247     1.0  0.94217  0.74020  0.53909  1.0000
  H   H9008     1.0  0.55677  0.92297  0.73272  1.0000
  C   C5248     1.0  0.87890  0.73974  0.56818  1.0000
  H   H9009     1.0  0.91800  0.73990  0.57364  1.0000
  Fe  Fe750     1.0  0.53107  0.91395  0.73094  1.0000
  H   H9010     1.0  0.60214  0.87475  0.73104  1.0000
  C   C5249     1.0  0.75751  0.89500  0.50104  1.0000
  H   H9011     1.0  0.75905  0.90109  0.50491  1.0000
  H   H9012     1.0  0.76554  0.88902  0.49911  1.0000
  H   H9013     1.0  0.75483  0.89985  0.49323  1.0000
  H   H9014     1.0  0.61040  0.93109  0.73277  1.0000
  Fe  Fe751     1.0  0.57460  0.77051  0.96476  1.0000
  S   S1500     1.0  0.56217  0.76368  0.96063  1.0000
  S   S1501     1.0  0.58243  0.78361  0.95175  1.0000
  H   H9015     1.0  0.62668  0.81228  0.83732  1.0000
  C   C5250     1.0  0.59891  0.74763  0.92942  1.0000
  H   H9016     1.0  0.54400  0.74947  0.93896  1.0000
  S   S1502     1.0  0.52023  0.75098  0.90722  1.0000
  H   H9017     1.0  0.59109  0.74204  0.89356  1.0000
  H   H9018     1.0  0.53844  0.84783  0.85099  1.0000
  Fe  Fe752     1.0  0.58854  0.86049  0.78939  1.0000
  S   S1503     1.0  0.59857  0.86491  0.79888  1.0000
  S   S1504     1.0  0.59682  0.85139  0.77557  1.0000
  Fe  Fe753     1.0  0.56650  0.87152  0.80213  1.0000
  S   S1505     1.0  0.57456  0.87712  0.81258  1.0000
  S   S1506     1.0  0.54795  0.87642  0.80368  1.0000
  Fe  Fe754     1.0  0.58680  0.88165  0.79672  1.0000
  S   S1507     1.0  0.59366  0.89726  0.78959  1.0000
  Fe  Fe755     1.0  0.58543  0.85982  0.81388  1.0000
  S   S1508     1.0  0.58929  0.85059  0.83066  1.0000
  S   S1509     1.0  0.57773  0.87751  0.78614  1.0000
  S   S1510     1.0  0.57636  0.85392  0.80450  1.0000
  Fe  Fe756     1.0  0.57534  0.79596  0.87106  1.0000
  S   S1511     1.0  0.58670  0.77900  0.87200  1.0000
  S   S1512     1.0  0.57299  0.80542  0.85390  1.0000
  Fe  Fe757     1.0  0.56966  0.79335  0.89603  1.0000
  S   S1513     1.0  0.58074  0.77635  0.89897  1.0000
  S   S1514     1.0  0.55889  0.80007  0.91081  1.0000
  Fe  Fe758     1.0  0.59296  0.78351  0.88451  1.0000
  S   S1515     1.0  0.61151  0.77920  0.88356  1.0000
  Fe  Fe759     1.0  0.57344  0.77329  0.88630  1.0000
  S   S1516     1.0  0.57032  0.75617  0.88925  1.0000
  S   S1517     1.0  0.58263  0.80102  0.88258  1.0000
  S   S1518     1.0  0.56136  0.78975  0.88436  1.0000
  Fe  Fe760     1.0  0.58184  0.96553  0.76451  1.0000
  S   S1519     1.0  0.57928  0.96777  0.78184  1.0000
  S   S1520     1.0  0.59885  0.96072  0.75382  1.0000
  Fe  Fe761     1.0  0.55703  0.96856  0.76560  1.0000
  S   S1521     1.0  0.55216  0.97109  0.78306  1.0000
  S   S1522     1.0  0.54547  0.96908  0.75466  1.0000
  Fe  Fe762     1.0  0.56498  0.98181  0.77750  1.0000
  Fe  Fe763     1.0  0.56676  0.95697  0.78616  1.0000
  S   S1523     1.0  0.56541  0.94326  0.80152  1.0000
  S   S1524     1.0  0.56864  0.98053  0.75966  1.0000
  S   S1525     1.0  0.57053  0.95347  0.76924  1.0000
  C   C5251     1.0  0.61286  0.81320  0.85720  1.0000
  S   S1526     1.0  0.53883  0.90840  0.74580  1.0000
  H   H9019     1.0  0.52738  0.77485  0.94876  1.0000
  H   H9020     1.0  0.56544  0.77034  0.93666  1.0000
  Fe  Fe764     1.0  0.52308  0.91873  0.75400  1.0000
  S   S1527     1.0  0.52378  0.92699  0.76722  1.0000
  Fe  Fe765     1.0  0.52924  0.89489  0.75073  1.0000
  S   S1528     1.0  0.53785  0.87751  0.75775  1.0000
  C   C5252     1.0  0.53964  0.77701  0.91314  1.0000
  H   H9021     1.0  0.54771  0.75989  0.91423  1.0000
  C   C5253     1.0  0.52854  0.93948  0.76383  1.0000
  C   C5254     1.0  0.53150  0.94272  0.77208  1.0000
  C   C5255     1.0  0.53625  0.95211  0.76947  1.0000
  C   C5256     1.0  0.53801  0.95833  0.75858  1.0000
  C   C5257     1.0  0.53440  0.95550  0.75049  1.0000
  C   C5258     1.0  0.52980  0.94601  0.75305  1.0000
  H   H9022     1.0  0.53040  0.93778  0.78047  1.0000
  H   H9023     1.0  0.53887  0.95433  0.77580  1.0000
  S   S1529     1.0  0.51402  0.90468  0.76011  1.0000
  H   H9024     1.0  0.52573  0.77652  0.93494  1.0000
  H   H9025     1.0  0.55672  0.86036  0.82165  1.0000
  C   C5259     1.0  0.61727  0.76493  0.88416  1.0000
  H   H9026     1.0  0.52159  0.87296  0.73888  1.0000
  H   H9027     1.0  0.60213  0.75940  0.89352  1.0000
  H   H9028     1.0  0.63354  0.76773  0.87494  1.0000
  C   C5260     1.0  0.58473  0.83804  0.83709  1.0000
  C   C5261     1.0  0.58132  0.83238  0.83110  1.0000
  C   C5262     1.0  0.57764  0.82245  0.83641  1.0000
  C   C5263     1.0  0.57746  0.81802  0.84771  1.0000
  C   C5264     1.0  0.58092  0.82365  0.85373  1.0000
  C   C5265     1.0  0.58458  0.83362  0.84841  1.0000
  H   H9029     1.0  0.58167  0.83556  0.82234  1.0000
  H   H9030     1.0  0.57503  0.81810  0.83170  1.0000
  H   H9031     1.0  0.58070  0.82036  0.86248  1.0000
  H   H9032     1.0  0.58720  0.83798  0.85310  1.0000
  C   C5266     1.0  0.54488  0.87628  0.79119  1.0000
  C   C5267     1.0  0.55166  0.86871  0.78470  1.0000
  C   C5268     1.0  0.54918  0.86880  0.77464  1.0000
  C   C5269     1.0  0.54028  0.87678  0.77081  1.0000
  C   C5270     1.0  0.53354  0.88431  0.77733  1.0000
  C   C5271     1.0  0.53572  0.88394  0.78759  1.0000
  H   H9033     1.0  0.55872  0.86272  0.78750  1.0000
  H   H9034     1.0  0.55431  0.86283  0.76973  1.0000
  H   H9035     1.0  0.52662  0.89043  0.77456  1.0000
  H   H9036     1.0  0.53049  0.88984  0.79256  1.0000
  C   C5272     1.0  0.58586  0.90986  0.79338  1.0000
  C   C5273     1.0  0.57709  0.91009  0.80275  1.0000
  C   C5274     1.0  0.57093  0.92036  0.80537  1.0000
  C   C5275     1.0  0.57344  0.93040  0.79855  1.0000
  C   C5276     1.0  0.58229  0.93012  0.78927  1.0000
  C   C5277     1.0  0.58851  0.91989  0.78673  1.0000
  H   H9037     1.0  0.57505  0.90239  0.80796  1.0000
  H   H9038     1.0  0.56410  0.92054  0.81257  1.0000
  H   H9039     1.0  0.58446  0.93780  0.78410  1.0000
  H   H9040     1.0  0.59530  0.91983  0.77952  1.0000
  C   C5278     1.0  0.60510  0.79191  0.84580  1.0000
  C   C5279     1.0  0.59704  0.95299  0.74528  1.0000
  C   C5280     1.0  0.58641  0.95453  0.74323  1.0000
  N   N376      1.0  0.61588  0.80370  0.85126  1.0000
  H   H9041     1.0  0.57971  0.96118  0.74592  1.0000
  H   H9042     1.0  0.54830  0.98285  0.80243  1.0000
  C   C5281     1.0  0.61809  0.87119  0.74630  1.0000
  C   C5282     1.0  0.60802  0.87669  0.75207  1.0000
  C   C5283     1.0  0.60169  0.87071  0.76139  1.0000
  C   C5284     1.0  0.60510  0.85912  0.76454  1.0000
  C   C5285     1.0  0.61496  0.85359  0.75851  1.0000
  C   C5286     1.0  0.62158  0.85964  0.74957  1.0000
  H   H9043     1.0  0.60530  0.88560  0.74954  1.0000
  H   H9044     1.0  0.59406  0.87500  0.76598  1.0000
  H   H9045     1.0  0.61761  0.84463  0.76090  1.0000
  H   H9046     1.0  0.61305  0.78896  0.84024  1.0000
  C   C5287     1.0  0.53415  0.75223  0.90161  1.0000
  C   C5288     1.0  0.53649  0.76227  0.89469  1.0000
  C   C5289     1.0  0.54763  0.76355  0.89075  1.0000
  C   C5290     1.0  0.55639  0.75469  0.89350  1.0000
  C   C5291     1.0  0.58783  0.85737  0.74664  1.0000
  H   H9047     1.0  0.55418  0.74190  0.92287  1.0000
  H   H9048     1.0  0.52970  0.76914  0.89263  1.0000
  H   H9049     1.0  0.54942  0.77138  0.88560  1.0000
  C   C5292     1.0  0.51597  0.76201  0.98091  1.0000
  C   C5293     1.0  0.56026  0.76807  0.92253  1.0000
  C   C5294     1.0  0.57584  0.78854  0.94040  1.0000
  C   C5295     1.0  0.58234  0.79007  0.92957  1.0000
  C   C5296     1.0  0.57719  0.79351  0.92043  1.0000
  C   C5297     1.0  0.56549  0.79595  0.92212  1.0000
  C   C5298     1.0  0.55898  0.79482  0.93294  1.0000
  C   C5299     1.0  0.56415  0.79089  0.94208  1.0000
  H   H9050     1.0  0.59136  0.78851  0.92825  1.0000
  H   H9051     1.0  0.58225  0.79450  0.91209  1.0000
  H   H9052     1.0  0.54993  0.79686  0.93428  1.0000
  H   H9053     1.0  0.55908  0.78990  0.95042  1.0000
  H   H9054     1.0  0.59575  0.83990  0.74746  1.0000
  N   N377      1.0  0.56534  0.91643  0.76782  1.0000
  C   C5300     1.0  0.56910  0.92658  0.75996  1.0000
  C   C5301     1.0  0.57574  0.90735  0.76837  1.0000
  C   C5302     1.0  0.56026  0.91928  0.77909  1.0000
  C   C5303     1.0  0.55679  0.91362  0.76342  1.0000
  C   C5304     1.0  0.56003  0.93734  0.75897  1.0000
  C   C5305     1.0  0.58194  0.90370  0.75737  1.0000
  C   C5306     1.0  0.55775  0.90965  0.78904  1.0000
  C   C5307     1.0  0.55339  0.90228  0.76880  1.0000
  H   H9055     1.0  0.57610  0.92845  0.76239  1.0000
  H   H9056     1.0  0.57242  0.92518  0.75137  1.0000
  H   H9057     1.0  0.57406  0.89975  0.77446  1.0000
  H   H9058     1.0  0.58185  0.90997  0.77141  1.0000
  H   H9059     1.0  0.56581  0.92343  0.78126  1.0000
  H   H9060     1.0  0.55211  0.92537  0.77900  1.0000
  H   H9061     1.0  0.54885  0.92004  0.76428  1.0000
  H   H9062     1.0  0.55953  0.91413  0.75431  1.0000
  H   H9063     1.0  0.56655  0.96552  0.80500  1.0000
  S   S1530     1.0  0.51587  0.92550  0.73871  1.0000
  H   H9064     1.0  0.56707  0.97977  0.80030  1.0000
  H   H9065     1.0  0.57631  0.90148  0.75343  1.0000
  H   H9066     1.0  0.58617  0.91017  0.75140  1.0000
  H   H9067     1.0  0.58861  0.89621  0.75912  1.0000
  H   H9068     1.0  0.55450  0.91311  0.79666  1.0000
  H   H9069     1.0  0.56530  0.90313  0.79051  1.0000
  H   H9070     1.0  0.55105  0.90594  0.78849  1.0000
  H   H9071     1.0  0.54469  0.90362  0.77386  1.0000
  H   H9072     1.0  0.55883  0.89624  0.77412  1.0000
  H   H9073     1.0  0.55337  0.89813  0.76226  1.0000
  C   C5308     1.0  0.53530  0.86315  0.83424  1.0000
  C   C5309     1.0  0.52527  0.87026  0.84095  1.0000
  H   H9074     1.0  0.53638  0.86770  0.82540  1.0000
  H   H9075     1.0  0.53250  0.85550  0.83456  1.0000
  H   H9076     1.0  0.54967  0.87638  0.82933  1.0000
  H   H9077     1.0  0.54253  0.87579  0.84343  1.0000
  H   H9078     1.0  0.52425  0.86697  0.85002  1.0000
  H   H9079     1.0  0.52600  0.87910  0.83885  1.0000
  H   H9080     1.0  0.51745  0.87023  0.83864  1.0000
  H   H9081     1.0  0.56437  0.76417  0.91526  1.0000
  H   H9082     1.0  0.54385  0.78028  0.93356  1.0000
  H   H9083     1.0  0.54701  0.76888  0.94436  1.0000
  N   N378      1.0  0.60832  0.75382  0.92549  1.0000
  C   C5310     1.0  0.59095  0.75071  0.86632  1.0000
  H   H9084     1.0  0.63288  0.78694  0.84101  1.0000
  H   H9085     1.0  0.61999  0.75727  0.93317  1.0000
  H   H9086     1.0  0.55794  0.83768  0.84864  1.0000
  C   C5311     1.0  0.54322  0.77141  0.93694  1.0000
  H   H9087     1.0  0.53147  0.77802  0.91097  1.0000
  C   C5312     1.0  0.54287  0.76519  0.92023  1.0000
  H   H9088     1.0  0.62970  0.87526  0.77688  1.0000
  N   N379      1.0  0.54956  0.76425  0.92862  1.0000
  H   H9089     1.0  0.58849  0.73982  0.92426  1.0000
  H   H9090     1.0  0.52901  0.76279  0.94341  1.0000
  H   H9091     1.0  0.59495  0.76092  0.94523  1.0000
  H   H9092     1.0  0.54613  0.77836  0.90539  1.0000
  C   C5313     1.0  0.54471  0.85298  0.84965  1.0000
  C   C5314     1.0  0.50784  0.87906  0.75191  1.0000
  C   C5315     1.0  0.53064  0.77130  0.94120  1.0000
  C   C5316     1.0  0.56387  0.97363  0.80766  1.0000
  H   H9093     1.0  0.50937  0.88107  0.73411  1.0000
  S   S1531     1.0  0.52267  0.89948  0.73514  1.0000
  H   H9094     1.0  0.56561  0.86326  0.74892  1.0000
  C   C5317     1.0  0.61076  0.80997  0.86999  1.0000
  H   H9095     1.0  0.60289  0.77155  0.93810  1.0000
  C   C5318     1.0  0.57019  0.86585  0.74023  1.0000
  H   H9096     1.0  0.61412  0.94367  0.74261  1.0000
  C   C5319     1.0  0.56292  0.96719  0.82818  1.0000
  H   H9097     1.0  0.62939  0.85536  0.74514  1.0000
  H   H9098     1.0  0.60563  0.79241  0.86239  1.0000
  H   H9099     1.0  0.53521  0.76170  0.92403  1.0000
  H   H9100     1.0  0.61875  0.80662  0.87289  1.0000
  C   C5320     1.0  0.62588  0.79554  0.85508  1.0000
  H   H9101     1.0  0.61951  0.81816  0.85436  1.0000
  H   H9102     1.0  0.55425  0.97183  0.83068  1.0000
  H   H9103     1.0  0.59147  0.75227  0.93446  1.0000
  H   H9104     1.0  0.55920  0.86681  0.85050  1.0000
  H   H9105     1.0  0.63794  0.78009  0.85333  1.0000
  N   N380      1.0  0.58156  0.86762  0.73994  1.0000
  C   C5321     1.0  0.54915  0.87095  0.83783  1.0000
  H   H9106     1.0  0.54878  0.83876  0.83498  1.0000
  H   H9107     1.0  0.56746  0.86488  0.83688  1.0000
  H   H9108     1.0  0.56021  0.88324  0.73822  1.0000
  H   H9109     1.0  0.55434  0.87358  0.73513  1.0000
  H   H9110     1.0  0.51521  0.88076  0.75377  1.0000
  C   C5322     1.0  0.63329  0.75024  0.87941  1.0000
  C   C5323     1.0  0.58430  0.94732  0.73795  1.0000
  H   H9111     1.0  0.62392  0.79228  0.86420  1.0000
  H   H9112     1.0  0.59248  0.75262  0.87365  1.0000
  H   H9113     1.0  0.53858  0.78375  0.91748  1.0000
  H   H9114     1.0  0.55608  0.75141  0.94174  1.0000
  C   C5324     1.0  0.55238  0.84431  0.82733  1.0000
  H   H9115     1.0  0.56239  0.84854  0.85171  1.0000
  N   N381      1.0  0.54623  0.86018  0.83806  1.0000
  H   H9116     1.0  0.56017  0.83932  0.82310  1.0000
  H   H9117     1.0  0.56508  0.93763  0.73302  1.0000
  H   H9118     1.0  0.59454  0.84726  0.73370  1.0000
  C   C5325     1.0  0.51546  0.75160  0.96779  1.0000
  H   H9119     1.0  0.56330  0.85152  0.83221  1.0000
  C   C5326     1.0  0.59018  0.84650  0.74253  1.0000
  H   H9120     1.0  0.52729  0.94371  0.74670  1.0000
  C   C5327     1.0  0.60582  0.94474  0.74121  1.0000
  H   H9121     1.0  0.60534  0.80384  0.87354  1.0000
  C   C5328     1.0  0.61919  0.80860  0.83903  1.0000
  C   C5329     1.0  0.55510  0.85440  0.82974  1.0000
  C   C5330     1.0  0.56895  0.76612  0.92960  1.0000
  C   C5331     1.0  0.62853  0.76157  0.87917  1.0000
  H   H9122     1.0  0.58108  0.95798  0.81343  1.0000
  C   C5332     1.0  0.60423  0.76515  0.91870  1.0000
  H   H9123     1.0  0.58237  0.84352  0.74392  1.0000
  H   H9124     1.0  0.58863  0.87820  0.74556  1.0000
  C   C5333     1.0  0.63034  0.78503  0.85017  1.0000
  C   C5334     1.0  0.61265  0.77290  0.91438  1.0000
  H   H9125     1.0  0.52112  0.85930  0.77190  1.0000
  C   C5335     1.0  0.55195  0.75230  0.93482  1.0000
  C   C5336     1.0  0.59280  0.93858  0.73460  1.0000
  H   H9126     1.0  0.59707  0.96500  0.80351  1.0000
  H   H9127     1.0  0.59635  0.76961  0.92340  1.0000
  H   H9128     1.0  0.60200  0.76439  0.91117  1.0000
  H   H9129     1.0  0.54652  0.84714  0.82157  1.0000
  H   H9130     1.0  0.57220  0.75715  0.93270  1.0000
  C   C5337     1.0  0.55521  0.84465  0.85305  1.0000
  H   H9131     1.0  0.52528  0.86164  0.75693  1.0000
  H   H9132     1.0  0.55844  0.77714  0.91884  1.0000
  H   H9133     1.0  0.55300  0.93649  0.75597  1.0000
  H   H9134     1.0  0.63298  0.79976  0.85341  1.0000
  H   H9135     1.0  0.60835  0.78122  0.91032  1.0000
  H   H9136     1.0  0.61584  0.77415  0.92108  1.0000
  H   H9137     1.0  0.61977  0.76981  0.90794  1.0000
  H   H9138     1.0  0.57209  0.86915  0.76177  1.0000
  H   H9139     1.0  0.56382  0.88213  0.75553  1.0000
  C   C5338     1.0  0.57241  0.87748  0.75639  1.0000
  H   H9140     1.0  0.61668  0.74817  0.91023  1.0000
  C   C5339     1.0  0.61836  0.74772  0.91840  1.0000
  C   C5340     1.0  0.60371  0.93757  0.73575  1.0000
  N   N382      1.0  0.62356  0.89900  0.76506  1.0000
  C   C5341     1.0  0.62421  0.89793  0.77692  1.0000
  C   C5342     1.0  0.62176  0.88806  0.76430  1.0000
  C   C5343     1.0  0.61347  0.90803  0.76273  1.0000
  C   C5344     1.0  0.63423  0.90196  0.75746  1.0000
  C   C5345     1.0  0.62438  0.90871  0.78010  1.0000
  C   C5346     1.0  0.63071  0.87767  0.76773  1.0000
  C   C5347     1.0  0.61100  0.91044  0.75112  1.0000
  C   C5348     1.0  0.63758  0.89894  0.74590  1.0000
  H   H9141     1.0  0.61708  0.89455  0.78283  1.0000
  H   H9142     1.0  0.63189  0.89181  0.77892  1.0000
  H   H9143     1.0  0.62131  0.88809  0.75583  1.0000
  H   H9144     1.0  0.61348  0.88655  0.76954  1.0000
  H   H9145     1.0  0.60579  0.90604  0.76879  1.0000
  H   H9146     1.0  0.61425  0.91618  0.76368  1.0000
  H   H9147     1.0  0.63385  0.91104  0.75611  1.0000
  H   H9148     1.0  0.64149  0.89763  0.76145  1.0000
  H   H9149     1.0  0.62668  0.90652  0.78831  1.0000
  H   H9150     1.0  0.63058  0.91325  0.77406  1.0000
  H   H9151     1.0  0.61593  0.91429  0.78109  1.0000
  H   H9152     1.0  0.62958  0.87053  0.76506  1.0000
  H   H9153     1.0  0.63934  0.87887  0.76379  1.0000
  H   H9154     1.0  0.60130  0.73956  0.93514  1.0000
  H   H9155     1.0  0.60299  0.91668  0.75091  1.0000
  H   H9156     1.0  0.60992  0.90303  0.74895  1.0000
  H   H9157     1.0  0.61754  0.91425  0.74475  1.0000
  H   H9158     1.0  0.64180  0.90537  0.73978  1.0000
  H   H9159     1.0  0.63062  0.89853  0.74251  1.0000
  H   H9160     1.0  0.64392  0.89099  0.74592  1.0000
  C   C5349     1.0  0.61007  0.81779  0.83403  1.0000
  H   H9161     1.0  0.62192  0.80222  0.83394  1.0000
  H   H9162     1.0  0.59799  0.80464  0.85515  1.0000
  H   H9163     1.0  0.60189  0.81532  0.83634  1.0000
  H   H9164     1.0  0.60900  0.82575  0.83654  1.0000
  H   H9165     1.0  0.61263  0.81952  0.82483  1.0000
  H   H9166     1.0  0.60182  0.78435  0.85047  1.0000
  H   H9167     1.0  0.59878  0.79696  0.84085  1.0000
  C   C5350     1.0  0.60594  0.79827  0.85417  1.0000
  C   C5351     1.0  0.53326  0.75427  0.96931  1.0000
  S   S1532     1.0  0.62680  0.87866  0.73547  1.0000
  S   S1533     1.0  0.58575  0.75382  0.96970  1.0000
  H   H9168     1.0  0.56360  0.94418  0.75291  1.0000
  H   H9169     1.0  0.55696  0.94011  0.76691  1.0000
  C   C5352     1.0  0.50993  0.75764  0.97606  1.0000
  H   H9170     1.0  0.52371  0.84816  0.76502  1.0000
  C   C5353     1.0  0.50182  0.87574  0.77215  1.0000
  H   H9171     1.0  0.57524  0.88204  0.76098  1.0000
  H   H9172     1.0  0.50760  0.85585  0.75690  1.0000
  H   H9173     1.0  0.60647  0.81752  0.87344  1.0000
  H   H9174     1.0  0.55880  0.95453  0.82190  1.0000
  H   H9175     1.0  0.58367  0.75720  0.86391  1.0000
  H   H9176     1.0  0.60641  0.76189  0.95018  1.0000
  C   C5354     1.0  0.52763  0.76038  0.97757  1.0000
  S   S1534     1.0  0.50726  0.74644  0.96204  1.0000
  H   H9177     1.0  0.57618  0.76976  0.92444  1.0000
  C   C5355     1.0  0.55100  0.93110  0.73352  1.0000
  H   H9178     1.0  0.56185  0.87844  0.83959  1.0000
  H   H9179     1.0  0.62419  0.77955  0.85305  1.0000
  C   C5356     1.0  0.54293  0.74334  0.90426  1.0000
  H   H9180     1.0  0.54118  0.85826  0.85594  1.0000
  C   C5357     1.0  0.60344  0.76273  0.94254  1.0000
  H   H9181     1.0  0.59598  0.85870  0.74712  1.0000
  H   H9182     1.0  0.60508  0.81915  0.85521  1.0000
  C   C5358     1.0  0.56007  0.86998  0.84143  1.0000
  H   H9183     1.0  0.53543  0.96052  0.74216  1.0000
  H   H9184     1.0  0.55314  0.84083  0.86204  1.0000
  C   C5359     1.0  0.55406  0.74451  0.90003  1.0000
  C   C5360     1.0  0.59467  0.74521  0.92028  1.0000
  H   H9185     1.0  0.54773  0.96909  0.80998  1.0000
  C   C5361     1.0  0.52014  0.85723  0.76439  1.0000
  C   C5362     1.0  0.51227  0.87457  0.74109  1.0000
  C   C5363     1.0  0.58941  0.97147  0.80548  1.0000
  H   H9186     1.0  0.58448  0.96405  0.82271  1.0000
  Fe  Fe766     1.0  0.57251  0.74707  0.96669  1.0000
  C   C5364     1.0  0.56218  0.95515  0.82878  1.0000
  H   H9187     1.0  0.57044  0.94930  0.82882  1.0000
  C   C5365     1.0  0.61085  0.75688  0.88966  1.0000
  Fe  Fe767     1.0  0.50802  0.91045  0.74416  1.0000
  N   N383      1.0  0.56903  0.97295  0.81720  1.0000
  C   C5366     1.0  0.58090  0.96613  0.81517  1.0000
  H   H9188     1.0  0.58327  0.85554  0.75541  1.0000
  H   H9189     1.0  0.62560  0.75179  0.91640  1.0000
  H   H9190     1.0  0.55644  0.95221  0.83665  1.0000
  H   H9191     1.0  0.54638  0.97997  0.81704  1.0000
  Fe  Fe768     1.0  0.55344  0.76270  0.97834  1.0000
  H   H9192     1.0  0.50232  0.88741  0.74991  1.0000
  H   H9193     1.0  0.64194  0.74773  0.87528  1.0000
  C   C5367     1.0  0.61583  0.74548  0.89041  1.0000
  H   H9194     1.0  0.59821  0.75164  0.85928  1.0000
  H   H9195     1.0  0.54228  0.75295  0.96669  1.0000
  H   H9196     1.0  0.56702  0.96688  0.83496  1.0000
  H   H9197     1.0  0.54713  0.93050  0.74247  1.0000
  C   C5368     1.0  0.50776  0.85972  0.76357  1.0000
  C   C5369     1.0  0.58036  0.87748  0.74485  1.0000
  H   H9198     1.0  0.50284  0.75012  0.89462  1.0000
  C   C5370     1.0  0.61179  0.75470  0.93553  1.0000
  N   N384      1.0  0.50192  0.87185  0.76196  1.0000
  C   C5371     1.0  0.62698  0.74216  0.88507  1.0000
  C   C5372     1.0  0.56238  0.87592  0.73437  1.0000
  H   H9199     1.0  0.50967  0.86698  0.74115  1.0000
  C   C5373     1.0  0.55918  0.74374  0.92777  1.0000
  H   H9200     1.0  0.51041  0.87628  0.77229  1.0000
  H   H9201     1.0  0.50090  0.75900  0.97871  1.0000
  H   H9202     1.0  0.56682  0.74627  0.92220  1.0000
  C   C5374     1.0  0.55089  0.97652  0.80965  1.0000
  H   H9203     1.0  0.57598  0.94843  0.73668  1.0000
  H   H9204     1.0  0.57718  0.88534  0.73921  1.0000
  H   H9205     1.0  0.59028  0.75293  0.91540  1.0000
  C   C5375     1.0  0.56961  0.98437  0.81796  1.0000
  H   H9206     1.0  0.50324  0.85480  0.77125  1.0000
  H   H9207     1.0  0.59208  0.97802  0.80772  1.0000
  H   H9208     1.0  0.61318  0.74640  0.94129  1.0000
  C   C5376     1.0  0.52715  0.74989  0.96442  1.0000
  H   H9209     1.0  0.58608  0.97504  0.79785  1.0000
  H   H9210     1.0  0.55237  0.94748  0.73336  1.0000
  H   H9211     1.0  0.57107  0.85890  0.73617  1.0000
  H   H9212     1.0  0.53140  0.74528  0.95800  1.0000
  H   H9213     1.0  0.49916  0.86965  0.77989  1.0000
  H   H9214     1.0  0.57421  0.98366  0.82449  1.0000
  H   H9215     1.0  0.60147  0.74068  0.91463  1.0000
  H   H9216     1.0  0.57442  0.98863  0.81007  1.0000
  S   S1535     1.0  0.50290  0.74083  0.93573  1.0000
  S   S1536     1.0  0.56477  0.77140  0.98209  1.0000
