data_image0
_chemical_formula_structural       CH2FeS2FeSH2SC2HSFeS2CHSH3FeSH2C2HCH2CH3FeCH2CHC6H6C3HCH2CHCHCH2CH2NH6CHC2H9C2H2C3HSH3C2H2NCNH2CSHCH2CHC2NHC3HC2H6CHC2H5C2HCH2NH4CFeHFeHNC2H2CHC3HCSHCHC2H4CH4SFeH3CH2FeHCH3SFeS2FeS2FeSFeS2FeHSFeSCH3C3H2SC6HSH4CH2C6H4C2SH14CHC3HCH3CS2HCSCNH3CH2SCH4CHCH3CHNH3CHCH2CSHCH5CHC2H2C2HCHCH3CH2C2HCHC2HCH10CSC2HSHNFe2H4C3HCHCHSFeSHCHFeCSC3HS2H12CH2NCH3CHCSCH2C2FeS2H4C7H8CHFeSH7CHCH5CH2CH3CH2C2HFeHC4SH2C2NHCHSC4HSH3SHC2H2CH3CHSHCH3CH2CHC3H2NCFeHSHCSHSHCH2CH2CS2HFeH3CSC2H2NH2C6H4CSHCSHCFeC2HSHCHFeHC2H2CH2CFeCH2CSHCH7CH3CH5CH3NH4NH2C3H2CHC3SFeC2H3SHCH7CH7SH4C2HCH7CHCH2CSH2CHCHCHCH2SHCFeS2FeS2FeSFeS3HFeS2FeS2H2SH8C7H4C6H4SHCHCHC6H6SHSHCH3CH3C2HCHCH2CHCH2C3NH2SCHCH2CH3CFeHCHCH3FeCH4SH5NC8H20NC3HC2H2CHFeH5CHC2H3FeH2SHCHCH2CH5CSNH3CHNH6CFeC2H2C2H3C2H2CHC2H2NCHFeCH2C3FeSHFeS3CH5FeC2SHCHC4SH2FeH5CFeHCH2C3H2CH2SH2CH3FeHC2H3CHC3H4SCH4NCH2CH5C2NHCHSHCHC4H8CH2SCHFeSCH2CFeH2NC2H2NHSH3C4SCHCH3SHCH2C2H2CSHFeHCH2FeS2FeS2FeSFeS3HFeHFeS3FeHSCH2C2HCHCH2CHC2FeC6H3C6H4C2NC2SH2CHCH2CH4CHNC8H23CS2CHC2H5CH2CHC2H2NH6CFeHSHCSHCH4CH3SH4CH2CH7C3FeC2SCH3SCH5CNH3S2H3SC4HCH6CHCH3SCHSH2CNC5H2CH13SCHCFeHCH2C2NCHCH3C2H2FeSCHCH2SCHCFeHCHCHCH6C4H4FeH3CH2SH2SHFeSHFeSFeSFeS3H2FeHSHCHSCH3C2H2C3H2C6H2CHCH4C2HCH4C3SC2HC2H3CH3CHCH3CH6SC2HCNC8H20C2FeH2C3H3NHCHCHCH2C2H2CHCFeHSH2SHCHNSH5CHCHCSH2SHSHFeH2CH2CH5NH5CH2C2H4FeCHSHSHSHC2FeCHFeS2FeSFeS3FeH3C2HC4HCH4C6H4SCH3FeH2CFeC3H5CNCH9C2H3CH2CHC2NH2C2SHC2H2CNHSHCHSCH3SFeH3CHCHC4HCSHCH2SHCHCHC2HFeH3FeCHNH2SC2NCH2CH2CHCH3SC2H4CHCH3CHCHSHCH4C2H2NH2CHCSH3CFeCSH4SHFeCSC3H2SH5CSHSHCH2CHC3H2CNCHC4H4CH3CFeCHCH2CH7C2HCHCHSH4CNCH3SC2HSC2HC3H2C2H7FeHSC2H2CSCH2SFeS2FeSFeS2CSHFeSHCSCH4SH2SHCNC9H4C5H2FeH3CHC5H8CHCH3SCH3NC5HC3HFeHSCH2CH2S2CH6NCH2CH3CHFeH5C3H8C2H6SH4CH2SHNCHNHCH6FeHC2H2CHFeC2SH2C2H2C2HCHCHFeH
_chemical_formula_sum              "C672 H1152 Fe96 S192 N48"
_cell_length_a       45.5301
_cell_length_b       45.6415
_cell_length_c       58.6944
_cell_angle_alpha    88.236
_cell_angle_beta     88.4522
_cell_angle_gamma    84.8037

_space_group_name_H-M_alt    "P 1"
_space_group_IT_number       1

loop_
  _space_group_symop_operation_xyz
  'x, y, z'

loop_
  _atom_site_type_symbol
  _atom_site_label
  _atom_site_symmetry_multiplicity
  _atom_site_fract_x
  _atom_site_fract_y
  _atom_site_fract_z
  _atom_site_occupancy
  C   C1        1.0  0.42238  0.01920  0.20107  1.0000
  H   H1        1.0  0.41634  0.10567  0.22630  1.0000
  H   H2        1.0  0.46271  0.09738  0.15227  1.0000
  Fe  Fe1       1.0  0.32344  0.01995  0.15105  1.0000
  S   S1        1.0  0.27831  0.04111  0.15966  1.0000
  S   S2        1.0  0.35423  0.03954  0.12549  1.0000
  Fe  Fe2       1.0  0.29115  0.03044  0.19605  1.0000
  S   S3        1.0  0.28142  0.06349  0.22382  1.0000
  H   H3        1.0  0.23739  0.01825  0.03536  1.0000
  H   H4        1.0  0.00818  0.28636  0.16527  1.0000
  S   S4        1.0  0.33724  0.01309  0.18723  1.0000
  C   C2        1.0  0.02822  0.43535  0.24127  1.0000
  C   C3        1.0  0.32204  0.03863  0.29768  1.0000
  H   H5        1.0  0.38203  0.09159  0.14446  1.0000
  S   S5        1.0  0.41781  0.06604  0.30653  1.0000
  Fe  Fe3       1.0  0.40339  0.11393  0.30279  1.0000
  S   S6        1.0  0.37495  0.13262  0.27388  1.0000
  S   S7        1.0  0.44873  0.12845  0.30748  1.0000
  C   C4        1.0  0.26012  0.01995  0.04136  1.0000
  H   H6        1.0  0.44821  0.05448  0.20938  1.0000
  S   S8        1.0  0.05826  0.45533  0.24722  1.0000
  H   H7        1.0  0.27402  0.00717  0.10241  1.0000
  H   H8        1.0  0.99786  0.34575  0.19005  1.0000
  H   H9        1.0  0.47248  0.10386  0.22626  1.0000
  Fe  Fe4       1.0  0.14886  0.01333  0.02493  1.0000
  S   S9        1.0  0.17237  0.03813  0.05086  1.0000
  H   H10       1.0  0.04673  0.17339  0.00692  1.0000
  H   H11       1.0  0.99829  0.48173  0.16397  1.0000
  C   C5        1.0  0.03663  0.28139  0.20712  1.0000
  C   C6        1.0  0.99519  0.30699  0.17021  1.0000
  H   H12       1.0  0.07424  0.07703  0.01463  1.0000
  C   C7        1.0  0.42525  0.05233  0.20407  1.0000
  H   H13       1.0  0.10474  0.06476  0.06762  1.0000
  H   H14       1.0  0.41973  0.11853  0.17458  1.0000
  C   C8        1.0  0.38705  0.01644  0.12362  1.0000
  H   H15       1.0  0.29637  0.05818  0.10175  1.0000
  H   H16       1.0  0.29938  0.05514  0.07206  1.0000
  H   H17       1.0  0.38455  0.20319  0.28069  1.0000
  Fe  Fe5       1.0  0.46208  0.08064  0.31401  1.0000
  C   C9        1.0  0.41289  0.02714  0.11453  1.0000
  H   H18       1.0  0.01282  0.34907  0.22905  1.0000
  H   H19       1.0  0.29805  0.04105  0.29446  1.0000
  C   C10       1.0  0.38777  0.98750  0.13215  1.0000
  H   H20       1.0  0.41237  0.04947  0.10772  1.0000
  C   C11       1.0  0.30864  0.08101  0.23790  1.0000
  C   C12       1.0  0.29952  0.10642  0.24987  1.0000
  C   C13       1.0  0.31994  0.12149  0.26129  1.0000
  C   C14       1.0  0.34966  0.11075  0.26173  1.0000
  C   C15       1.0  0.35891  0.08473  0.25037  1.0000
  C   C16       1.0  0.33850  0.07014  0.23809  1.0000
  H   H21       1.0  0.27655  0.11495  0.24986  1.0000
  H   H22       1.0  0.31262  0.14171  0.26971  1.0000
  H   H23       1.0  0.38185  0.07632  0.25071  1.0000
  H   H24       1.0  0.34571  0.05044  0.22902  1.0000
  H   H25       1.0  0.38385  0.11548  0.20948  1.0000
  H   H26       1.0  0.26008  0.04179  0.04890  1.0000
  C   C17       1.0  0.21443  0.02516  0.11080  1.0000
  C   C18       1.0  0.20231  0.03791  0.09063  1.0000
  C   C19       1.0  0.18895  0.02076  0.07513  1.0000
  H   H27       1.0  0.01974  0.42220  0.27618  1.0000
  C   C20       1.0  0.05788  0.34205  0.21766  1.0000
  H   H28       1.0  0.22418  0.03870  0.12284  1.0000
  H   H29       1.0  0.20291  0.06129  0.08718  1.0000
  C   C21       1.0  0.04750  0.26420  0.22869  1.0000
  H   H30       1.0  0.45783  0.22077  0.29813  1.0000
  C   C22       1.0  0.43983  0.00949  0.11560  1.0000
  H   H31       1.0  0.45077  0.18381  0.27414  1.0000
  C   C23       1.0  0.44366  0.21614  0.31320  1.0000
  H   H32       1.0  0.36962  0.01205  0.31934  1.0000
  H   H33       1.0  0.41084  0.05871  0.21899  1.0000
  C   C24       1.0  0.33415  0.99901  0.27067  1.0000
  H   H34       1.0  0.04135  0.11250  0.03699  1.0000
  H   H35       1.0  0.07371  0.99203  0.13423  1.0000
  N   N1        1.0  0.10487  0.00584  0.10806  1.0000
  H   H36       1.0  0.31190  0.00911  0.10302  1.0000
  H   H37       1.0  0.41084  0.28936  0.28538  1.0000
  H   H38       1.0  0.43646  0.00985  0.18689  1.0000
  H   H39       1.0  0.06024  0.27749  0.23968  1.0000
  H   H40       1.0  0.05828  0.00022  0.10766  1.0000
  H   H41       1.0  0.46006  0.01808  0.10946  1.0000
  C   C25       1.0  0.99665  0.41637  0.21326  1.0000
  H   H42       1.0  0.34766  0.01335  0.25982  1.0000
  C   C26       1.0  0.01098  0.32409  0.18788  1.0000
  C   C27       1.0  0.06143  0.03826  0.12700  1.0000
  H   H43       1.0  0.06272  0.24501  0.22350  1.0000
  H   H44       1.0  0.37869  0.02248  0.29081  1.0000
  H   H45       1.0  0.07546  0.32441  0.21372  1.0000
  H   H46       1.0  0.31540  0.02476  0.04645  1.0000
  H   H47       1.0  0.02605  0.26533  0.19688  1.0000
  H   H48       1.0  0.39922  0.01472  0.19855  1.0000
  H   H49       1.0  0.26367  0.05382  0.08617  1.0000
  H   H50       1.0  0.05649  0.28685  0.19694  1.0000
  H   H51       1.0  0.43343  0.21697  0.26061  1.0000
  C   C28       1.0  0.48559  0.08308  0.25817  1.0000
  C   C29       1.0  0.03427  0.10526  0.02081  1.0000
  H   H52       1.0  0.14948  0.01573  0.11369  1.0000
  H   H53       1.0  0.03221  0.32912  0.17949  1.0000
  C   C30       1.0  0.39876  0.24872  0.30194  1.0000
  C   C31       1.0  0.10426  0.02231  0.08530  1.0000
  C   C32       1.0  0.28759  0.04684  0.08725  1.0000
  H   H54       1.0  0.24920  0.99361  0.07077  1.0000
  S   S10       1.0  0.27327  0.98589  0.19700  1.0000
  H   H55       1.0  0.42971  0.00707  0.21691  1.0000
  H   H56       1.0  0.42786  0.09725  0.13821  1.0000
  H   H57       1.0  0.07769  0.05205  0.13377  1.0000
  C   C33       1.0  0.12781  0.01688  0.12291  1.0000
  C   C34       1.0  0.40653  0.19749  0.28836  1.0000
  H   H58       1.0  0.01485  0.19793  0.01155  1.0000
  H   H59       1.0  0.40594  0.17453  0.29510  1.0000
  N   N2        1.0  0.41138  0.21776  0.30754  1.0000
  C   C35       1.0  0.30352  0.00017  0.26008  1.0000
  N   N3        1.0  0.01594  0.30866  0.21077  1.0000
  H   H60       1.0  0.34815  0.08987  0.15987  1.0000
  H   H61       1.0  0.41221  0.13987  0.21096  1.0000
  C   C36       1.0  0.05286  0.08505  0.00823  1.0000
  S   S11       1.0  0.09953  0.01222  0.02513  1.0000
  H   H62       1.0  0.44854  0.10338  0.19185  1.0000
  C   C37       1.0  0.40805  0.11632  0.21018  1.0000
  H   H63       1.0  0.37194  0.11653  0.16760  1.0000
  H   H64       1.0  0.05432  0.35742  0.20276  1.0000
  C   C38       1.0  0.41407  0.26535  0.28239  1.0000
  H   H65       1.0  0.99896  0.28734  0.25578  1.0000
  C   C39       1.0  0.21300  0.99516  0.11570  1.0000
  C   C40       1.0  0.99792  0.10707  0.99141  1.0000
  N   N4        1.0  0.41790  0.07214  0.18355  1.0000
  H   H66       1.0  0.45806  0.07119  0.13111  1.0000
  C   C41       1.0  0.42455  0.10285  0.18911  1.0000
  C   C42       1.0  0.43722  0.06072  0.16374  1.0000
  C   C43       1.0  0.38571  0.07065  0.17868  1.0000
  H   H67       1.0  0.06610  0.35524  0.23137  1.0000
  C   C44       1.0  0.44658  0.08326  0.14541  1.0000
  C   C45       1.0  0.37172  0.09376  0.16165  1.0000
  H   H68       1.0  0.03317  0.31994  0.24337  1.0000
  H   H69       1.0  0.45843  0.04946  0.16975  1.0000
  H   H70       1.0  0.37535  0.24888  0.29696  1.0000
  H   H71       1.0  0.42683  0.04326  0.15505  1.0000
  H   H72       1.0  0.38209  0.04889  0.17180  1.0000
  H   H73       1.0  0.37207  0.07252  0.19467  1.0000
  C   C46       1.0  0.18826  0.99058  0.07969  1.0000
  H   H74       1.0  0.14867  0.01192  0.15582  1.0000
  C   C47       1.0  0.01994  0.43303  0.21856  1.0000
  C   C48       1.0  0.01332  0.42070  0.25867  1.0000
  H   H75       1.0  0.43824  0.26023  0.28141  1.0000
  H   H76       1.0  0.42138  0.18181  0.25509  1.0000
  H   H77       1.0  0.46258  0.99925  0.30606  1.0000
  H   H78       1.0  0.03159  0.44411  0.20502  1.0000
  H   H79       1.0  0.13026  0.06005  0.09008  1.0000
  C   C49       1.0  0.02893  0.32980  0.22613  1.0000
  C   C50       1.0  0.42955  0.19540  0.26857  1.0000
  H   H80       1.0  0.33174  0.05314  0.28450  1.0000
  C   C51       1.0  0.00693  0.11665  0.01231  1.0000
  H   H81       1.0  0.02910  0.25521  0.23849  1.0000
  H   H82       1.0  0.40450  0.26109  0.26572  1.0000
  N   N5        1.0  0.29666  0.99419  0.07093  1.0000
  H   H83       1.0  0.29025  0.02145  0.26221  1.0000
  H   H84       1.0  0.45160  0.19330  0.31883  1.0000
  H   H85       1.0  0.45442  0.98735  0.27850  1.0000
  H   H86       1.0  0.35038  0.02150  0.07875  1.0000
  C   C52       1.0  0.28669  0.99267  0.31568  1.0000
  Fe  Fe6       1.0  0.05839  0.47898  0.28053  1.0000
  H   H87       1.0  0.12257  0.01307  0.07392  1.0000
  Fe  Fe7       1.0  0.26443  0.99506  0.15962  1.0000
  H   H88       1.0  0.12313  0.04050  0.12663  1.0000
  N   N6        1.0  0.33510  0.00725  0.29532  1.0000
  C   C53       1.0  0.26806  0.99424  0.05842  1.0000
  C   C54       1.0  0.32004  0.98573  0.31072  1.0000
  H   H89       1.0  0.11214  0.00036  0.15651  1.0000
  H   H90       1.0  0.27480  0.01866  0.02595  1.0000
  C   C55       1.0  0.03340  0.19257  0.99928  1.0000
  H   H91       1.0  0.04945  0.05039  0.11284  1.0000
  C   C56       1.0  0.13275  0.00048  0.14604  1.0000
  C   C57       1.0  0.32095  0.00296  0.05483  1.0000
  C   C58       1.0  0.36723  0.00604  0.30133  1.0000
  H   H92       1.0  0.04631  0.21202  0.99808  1.0000
  C   C59       1.0  0.48678  0.08675  0.23439  1.0000
  S   S12       1.0  0.04499  0.46613  0.31640  1.0000
  H   H93       1.0  0.27367  0.99673  0.30013  1.0000
  C   C60       1.0  0.29291  0.01330  0.09150  1.0000
  H   H94       1.0  0.39741  0.26266  0.31726  1.0000
  C   C61       1.0  0.10767  0.05565  0.08529  1.0000
  C   C62       1.0  0.07468  0.00773  0.11938  1.0000
  H   H95       1.0  0.09120  0.06801  0.09628  1.0000
  H   H96       1.0  0.08353  0.01942  0.07629  1.0000
  H   H97       1.0  0.04554  0.03537  0.14142  1.0000
  H   H98       1.0  0.47001  0.09697  0.26807  1.0000
  C   C63       1.0  0.35132  0.00459  0.06554  1.0000
  H   H99       1.0  0.32397  0.98741  0.04049  1.0000
  H   H100      1.0  0.30651  0.99726  0.24141  1.0000
  H   H101      1.0  0.36723  0.01129  0.05211  1.0000
  H   H102      1.0  0.35922  0.18475  0.31329  1.0000
  S   S13       1.0  0.15164  0.02885  0.98818  1.0000
  Fe  Fe8       1.0  0.10300  0.02359  0.98786  1.0000
  H   H103      1.0  0.99254  0.32067  0.15429  1.0000
  H   H104      1.0  0.34886  0.22270  0.32074  1.0000
  H   H105      1.0  0.40072  0.04396  0.63651  1.0000
  C   C64       1.0  0.48140  0.18040  0.45741  1.0000
  H   H106      1.0  0.42817  0.11634  0.47959  1.0000
  H   H107      1.0  0.17201  0.41310  0.41247  1.0000
  Fe  Fe9       1.0  0.23281  0.46316  0.48403  1.0000
  H   H108      1.0  0.41708  0.16432  0.55413  1.0000
  C   C65       1.0  0.32091  0.28921  0.52926  1.0000
  H   H109      1.0  0.18483  0.43510  0.43481  1.0000
  H   H110      1.0  0.33168  0.34425  0.58429  1.0000
  H   H111      1.0  0.15123  0.48043  0.43138  1.0000
  S   S14       1.0  0.25576  0.41980  0.47231  1.0000
  Fe  Fe10      1.0  0.42960  0.25970  0.50840  1.0000
  S   S15       1.0  0.45590  0.26088  0.47547  1.0000
  S   S16       1.0  0.42791  0.21530  0.52673  1.0000
  Fe  Fe11      1.0  0.40081  0.32239  0.49986  1.0000
  S   S17       1.0  0.42426  0.32782  0.46599  1.0000
  S   S18       1.0  0.37181  0.35839  0.51744  1.0000
  Fe  Fe12      1.0  0.41419  0.28109  0.45996  1.0000
  S   S19       1.0  0.39266  0.26340  0.42926  1.0000
  Fe  Fe13      1.0  0.46401  0.30713  0.48447  1.0000
  S   S20       1.0  0.38730  0.27771  0.49246  1.0000
  S   S21       1.0  0.44121  0.30411  0.51880  1.0000
  Fe  Fe14      1.0  0.43662  0.13006  0.34488  1.0000
  H   H112      1.0  0.36814  0.00329  0.63637  1.0000
  S   S22       1.0  0.45543  0.16503  0.36557  1.0000
  Fe  Fe15      1.0  0.40803  0.07270  0.34373  1.0000
  S   S23       1.0  0.38362  0.03837  0.36229  1.0000
  C   C66       1.0  0.22056  0.41071  0.41493  1.0000
  H   H113      1.0  0.30783  0.28806  0.58267  1.0000
  H   H114      1.0  0.12198  0.35740  0.64351  1.0000
  H   H115      1.0  0.44010  0.13067  0.41137  1.0000
  C   C67       1.0  0.43588  0.23037  0.57140  1.0000
  C   C68       1.0  0.43592  0.00547  0.37041  1.0000
  C   C69       1.0  0.40649  0.00539  0.36416  1.0000
  H   H116      1.0  0.22209  0.39058  0.40453  1.0000
  H   H117      1.0  0.30044  0.33498  0.56938  1.0000
  S   S24       1.0  0.18478  0.47181  0.47566  1.0000
  C   C70       1.0  0.41026  0.23505  0.41255  1.0000
  C   C71       1.0  0.44098  0.23037  0.41086  1.0000
  C   C72       1.0  0.45435  0.20855  0.39658  1.0000
  C   C73       1.0  0.43720  0.19082  0.38421  1.0000
  C   C74       1.0  0.40644  0.19491  0.38635  1.0000
  C   C75       1.0  0.39304  0.21730  0.40019  1.0000
  H   H118      1.0  0.45445  0.24406  0.42014  1.0000
  S   S25       1.0  0.22646  0.48167  0.51910  1.0000
  H   H119      1.0  0.39300  0.18112  0.37718  1.0000
  H   H120      1.0  0.36924  0.22078  0.40146  1.0000
  H   H121      1.0  0.46896  0.14002  0.42878  1.0000
  H   H122      1.0  0.38194  0.32066  0.58539  1.0000
  C   C76       1.0  0.44913  0.18610  0.46596  1.0000
  H   H123      1.0  0.40608  0.18557  0.33495  1.0000
  H   H124      1.0  0.41384  0.31388  0.56749  1.0000
  C   C77       1.0  0.34003  0.37564  0.50435  1.0000
  C   C78       1.0  0.32929  0.36492  0.48443  1.0000
  C   C79       1.0  0.30345  0.37873  0.47479  1.0000
  C   C80       1.0  0.28836  0.40349  0.48484  1.0000
  C   C81       1.0  0.29923  0.41435  0.50466  1.0000
  C   C82       1.0  0.32488  0.40032  0.51445  1.0000
  H   H125      1.0  0.34077  0.34589  0.47656  1.0000
  H   H126      1.0  0.29511  0.37016  0.45950  1.0000
  H   H127      1.0  0.28772  0.43333  0.51257  1.0000
  H   H128      1.0  0.33305  0.40866  0.52990  1.0000
  C   C83       1.0  0.44351  0.13407  0.47915  1.0000
  C   C84       1.0  0.18906  0.41442  0.42547  1.0000
  S   S26       1.0  0.42185  0.19285  0.63394  1.0000
  H   H129      1.0  0.31252  0.27815  0.51446  1.0000
  H   H130      1.0  0.47183  0.37242  0.49592  1.0000
  H   H131      1.0  0.44205  0.25132  0.56465  1.0000
  H   H132      1.0  0.31569  0.25289  0.55178  1.0000
  H   H133      1.0  0.46693  0.15677  0.50513  1.0000
  H   H134      1.0  0.34978  0.24996  0.53611  1.0000
  H   H135      1.0  0.37449  0.23325  0.57074  1.0000
  H   H136      1.0  0.41982  0.17299  0.43105  1.0000
  H   H137      1.0  0.43201  0.14438  0.51512  1.0000
  H   H138      1.0  0.38691  0.15172  0.47962  1.0000
  H   H139      1.0  0.32325  0.03689  0.33547  1.0000
  H   H140      1.0  0.48329  0.18483  0.43875  1.0000
  H   H141      1.0  0.12466  0.45402  0.40304  1.0000
  H   H142      1.0  0.44923  0.19594  0.48304  1.0000
  C   C85       1.0  0.43412  0.22500  0.59513  1.0000
  H   H143      1.0  0.41481  0.15473  0.59596  1.0000
  C   C86       1.0  0.42081  0.17575  0.58920  1.0000
  C   C87       1.0  0.42214  0.18126  0.56549  1.0000
  C   C88       1.0  0.42927  0.20869  0.55651  1.0000
  H   H144      1.0  0.18630  0.44786  0.38877  1.0000
  C   C89       1.0  0.26064  0.42722  0.39116  1.0000
  H   H145      1.0  0.40552  0.28676  0.58846  1.0000
  H   H146      1.0  0.04412  0.43160  0.40865  1.0000
  H   H147      1.0  0.23746  0.45522  0.43367  1.0000
  C   C90       1.0  0.45184  0.98782  0.62300  1.0000
  S   S27       1.0  0.02867  0.47513  0.64737  1.0000
  S   S28       1.0  0.46382  0.04464  0.62881  1.0000
  H   H148      1.0  0.43942  0.20460  0.45502  1.0000
  C   C91       1.0  0.08956  0.40718  0.62702  1.0000
  S   S29       1.0  0.38981  0.11998  0.33967  1.0000
  C   C92       1.0  0.39513  0.20695  0.32851  1.0000
  N   N7        1.0  0.35005  0.27599  0.56628  1.0000
  H   H149      1.0  0.47816  0.20559  0.39495  1.0000
  H   H150      1.0  0.99506  0.48153  0.36657  1.0000
  H   H151      1.0  0.39339  0.21711  0.46679  1.0000
  C   C93       1.0  0.40106  0.17040  0.47782  1.0000
  H   H152      1.0  0.06469  0.48147  0.42825  1.0000
  H   H153      1.0  0.28235  0.01174  0.32693  1.0000
  S   S30       1.0  0.11075  0.46684  0.35620  1.0000
  C   C94       1.0  0.39537  0.30323  0.57611  1.0000
  H   H154      1.0  0.39300  0.27217  0.54932  1.0000
  H   H155      1.0  0.31021  0.07200  0.32298  1.0000
  H   H156      1.0  0.00800  0.46258  0.42596  1.0000
  H   H157      1.0  0.48304  0.42195  0.50774  1.0000
  C   C95       1.0  0.44676  0.13208  0.42937  1.0000
  H   H158      1.0  0.18636  0.39611  0.43806  1.0000
  C   C96       1.0  0.37774  0.28915  0.55788  1.0000
  H   H159      1.0  0.34602  0.21411  0.60330  1.0000
  H   H160      1.0  0.31959  0.24533  0.60249  1.0000
  H   H161      1.0  0.25944  0.40832  0.37973  1.0000
  C   C97       1.0  0.13220  0.47530  0.39853  1.0000
  H   H162      1.0  0.33842  0.29743  0.59801  1.0000
  N   N8        1.0  0.43012  0.16073  0.46605  1.0000
  H   H163      1.0  0.44434  0.02577  0.37512  1.0000
  H   H164      1.0  0.44724  0.26055  0.32627  1.0000
  H   H165      1.0  0.28187  0.39543  0.41610  1.0000
  C   C98       1.0  0.32986  0.29668  0.58042  1.0000
  H   H166      1.0  0.40444  0.17740  0.49544  1.0000
  C   C99       1.0  0.32443  0.32905  0.57156  1.0000
  H   H167      1.0  0.37688  0.19211  0.44853  1.0000
  H   H168      1.0  0.39563  0.22249  0.34268  1.0000
  C   C100      1.0  0.36227  0.20212  0.32563  1.0000
  S   S31       1.0  0.45375  0.08291  0.35175  1.0000
  H   H169      1.0  0.46334  0.11871  0.51120  1.0000
  C   C101      1.0  0.35988  0.24915  0.58085  1.0000
  H   H170      1.0  0.46389  0.12412  0.47070  1.0000
  H   H171      1.0  0.37317  0.25512  0.59533  1.0000
  H   H172      1.0  0.10826  0.39375  0.61893  1.0000
  H   H173      1.0  0.47589  0.23329  0.33465  1.0000
  H   H174      1.0  0.32368  0.21997  0.57900  1.0000
  C   C102      1.0  0.04531  0.47138  0.38629  1.0000
  H   H175      1.0  0.31549  0.03362  0.65390  1.0000
  C   C103      1.0  0.39152  0.99886  0.63287  1.0000
  C   C104      1.0  0.44017  0.01640  0.62793  1.0000
  H   H176      1.0  0.23528  0.40523  0.42954  1.0000
  H   H177      1.0  0.28468  0.43330  0.42294  1.0000
  C   C105      1.0  0.45183  0.23713  0.33167  1.0000
  C   C106      1.0  0.15434  0.48008  0.57364  1.0000
  H   H178      1.0  0.06633  0.42706  0.38324  1.0000
  C   C107      1.0  0.23045  0.46275  0.41629  1.0000
  H   H179      1.0  0.33547  0.33421  0.55516  1.0000
  C   C108      1.0  0.28457  0.41778  0.40878  1.0000
  H   H180      1.0  0.08818  0.42903  0.61798  1.0000
  H   H181      1.0  0.19753  0.47036  0.35217  1.0000
  H   H182      1.0  0.40265  0.14185  0.44166  1.0000
  C   C109      1.0  0.45173  0.13923  0.50398  1.0000
  H   H183      1.0  0.30166  0.30223  0.53699  1.0000
  H   H184      1.0  0.43875  0.24199  0.60663  1.0000
  C   C110      1.0  0.40995  0.02192  0.63283  1.0000
  C   C111      1.0  0.42637  0.19777  0.60412  1.0000
  H   H185      1.0  0.33692  0.30409  0.52213  1.0000
  C   C112      1.0  0.33445  0.26547  0.54612  1.0000
  H   H186      1.0  0.16752  0.47194  0.60850  1.0000
  C   C113      1.0  0.42356  0.15280  0.44201  1.0000
  C   C114      1.0  0.38242  0.19644  0.46631  1.0000
  H   H187      1.0  0.37338  0.30611  0.54433  1.0000
  C   C115      1.0  0.33544  0.23158  0.59179  1.0000
  H   H188      1.0  0.04249  0.47192  0.45169  1.0000
  H   H189      1.0  0.06664  0.47725  0.39251  1.0000
  H   H190      1.0  0.36122  0.20045  0.47600  1.0000
  H   H191      1.0  0.06851  0.39764  0.62402  1.0000
  H   H192      1.0  0.07153  0.35577  0.64850  1.0000
  H   H193      1.0  0.17620  0.47451  0.56646  1.0000
  H   H194      1.0  0.04665  0.47576  0.36752  1.0000
  H   H195      1.0  0.30668  0.41674  0.40022  1.0000
  H   H196      1.0  0.20772  0.47344  0.41864  1.0000
  H   H197      1.0  0.20847  0.42319  0.37134  1.0000
  C   C116      1.0  0.20907  0.44296  0.38195  1.0000
  S   S32       1.0  0.40032  0.10833  0.64008  1.0000
  C   C117      1.0  0.04528  0.43784  0.39027  1.0000
  C   C118      1.0  0.21415  0.46929  0.36579  1.0000
  H   H198      1.0  0.35316  0.19439  0.34228  1.0000
  S   S33       1.0  0.11591  0.48363  0.63695  1.0000
  H   H199      1.0  0.44070  0.23304  0.34830  1.0000
  N   N9        1.0  0.23046  0.43667  0.40106  1.0000
  Fe  Fe16      1.0  0.42306  0.14723  0.65091  1.0000
  Fe  Fe17      1.0  0.44265  0.08204  0.64920  1.0000
  H   H200      1.0  0.02732  0.42878  0.38108  1.0000
  H   H201      1.0  0.23614  0.46728  0.35719  1.0000
  H   H202      1.0  0.26932  0.44453  0.37996  1.0000
  H   H203      1.0  0.44776  0.10933  0.43674  1.0000
  C   C119      1.0  0.14934  0.47855  0.59743  1.0000
  C   C120      1.0  0.09441  0.41175  0.65257  1.0000
  C   C121      1.0  0.32632  0.05244  0.32089  1.0000
  H   H204      1.0  0.34864  0.06032  0.32161  1.0000
  C   C122      1.0  0.01608  0.48453  0.42196  1.0000
  H   H205      1.0  0.49168  0.15814  0.46161  1.0000
  C   C123      1.0  0.99207  0.48137  0.38550  1.0000
  H   H206      1.0  0.11479  0.42337  0.65322  1.0000
  S   S34       1.0  0.42947  0.07234  0.68554  1.0000
  Fe  Fe18      1.0  0.38886  0.10178  0.67733  1.0000
  S   S35       1.0  0.34525  0.08705  0.68996  1.0000
  H   H207      1.0  0.15708  0.33320  0.67507  1.0000
  C   C124      1.0  0.47701  0.09003  0.80495  1.0000
  H   H208      1.0  0.37117  0.00609  0.83883  1.0000
  Fe  Fe19      1.0  0.31591  0.02464  0.80969  1.0000
  C   C125      1.0  0.02294  0.42912  0.74050  1.0000
  S   S36       1.0  0.34461  0.05948  0.79629  1.0000
  C   C126      1.0  0.06918  0.36860  0.66439  1.0000
  C   C127      1.0  0.38044  0.99839  0.75146  1.0000
  C   C128      1.0  0.48283  0.99577  0.67939  1.0000
  H   H209      1.0  0.00963  0.07995  0.96248  1.0000
  S   S37       1.0  0.26958  0.01496  0.80257  1.0000
  S   S38       1.0  0.31133  0.01549  0.84737  1.0000
  H   H210      1.0  0.44822  0.02622  0.79740  1.0000
  H   H211      1.0  0.11403  0.02565  0.90429  1.0000
  H   H212      1.0  0.03671  0.44552  0.73357  1.0000
  H   H213      1.0  0.05125  0.35963  0.69893  1.0000
  H   H214      1.0  0.12240  0.41603  0.71648  1.0000
  H   H215      1.0  0.35657  0.00223  0.75593  1.0000
  H   H216      1.0  0.43917  0.13116  0.84574  1.0000
  H   H217      1.0  0.46548  0.07087  0.81128  1.0000
  H   H218      1.0  0.01016  0.19393  0.93237  1.0000
  H   H219      1.0  0.01292  0.46703  0.81464  1.0000
  H   H220      1.0  0.02285  0.12625  0.93887  1.0000
  H   H221      1.0  0.39118  0.00066  0.68981  1.0000
  C   C129      1.0  0.00076  0.40501  0.77351  1.0000
  H   H222      1.0  0.12239  0.31871  0.66999  1.0000
  H   H223      1.0  0.07602  0.13978  0.92836  1.0000
  N   N10       1.0  0.04301  0.17871  0.95705  1.0000
  C   C130      1.0  0.09717  0.39442  0.69211  1.0000
  H   H224      1.0  0.07657  0.15652  0.97855  1.0000
  H   H225      1.0  0.48953  0.04098  0.67299  1.0000
  H   H226      1.0  0.43689  0.01653  0.74705  1.0000
  C   C131      1.0  0.01654  0.08695  0.97878  1.0000
  H   H227      1.0  0.09602  0.37602  0.70474  1.0000
  C   C132      1.0  0.02070  0.18527  0.97617  1.0000
  S   S39       1.0  0.22605  0.01706  0.86104  1.0000
  C   C133      1.0  0.19100  0.00470  0.92458  1.0000
  H   H228      1.0  0.41114  0.03893  0.83863  1.0000
  H   H229      1.0  0.04955  0.13417  0.97126  1.0000
  C   C134      1.0  0.30367  0.02544  0.66931  1.0000
  C   C135      1.0  0.19844  0.01703  0.90315  1.0000
  Fe  Fe20      1.0  0.26669  0.00125  0.83990  1.0000
  S   S40       1.0  0.06843  0.05368  0.96965  1.0000
  S   S41       1.0  0.40754  0.14306  0.68758  1.0000
  H   H230      1.0  0.43237  0.12028  0.78529  1.0000
  H   H231      1.0  0.18749  0.03793  0.89757  1.0000
  H   H232      1.0  0.17446  0.01612  0.93544  1.0000
  H   H233      1.0  0.04130  0.33555  0.67780  1.0000
  C   C136      1.0  0.10481  0.01032  0.91706  1.0000
  C   C137      1.0  0.34421  0.06719  0.76678  1.0000
  C   C138      1.0  0.32044  0.06093  0.75370  1.0000
  C   C139      1.0  0.32048  0.06788  0.73020  1.0000
  C   C140      1.0  0.34472  0.08003  0.71959  1.0000
  C   C141      1.0  0.36861  0.08592  0.73265  1.0000
  C   C142      1.0  0.36817  0.07989  0.75623  1.0000
  H   H234      1.0  0.30175  0.05145  0.76180  1.0000
  H   H235      1.0  0.30164  0.06397  0.72026  1.0000
  H   H236      1.0  0.38727  0.09556  0.72465  1.0000
  H   H237      1.0  0.38659  0.08484  0.76621  1.0000
  H   H238      1.0  0.48667  0.14755  0.85329  1.0000
  H   H239      1.0  0.26309  0.00424  0.70252  1.0000
  H   H240      1.0  0.41666  0.07765  0.80982  1.0000
  H   H241      1.0  0.12605  0.43103  0.68837  1.0000
  C   C143      1.0  0.06268  0.15174  0.96405  1.0000
  H   H242      1.0  0.07771  0.20504  0.96697  1.0000
  Fe  Fe21      1.0  0.02704  0.46015  0.68426  1.0000
  S   S42       1.0  0.01267  0.41603  0.69604  1.0000
  H   H243      1.0  0.14342  0.37887  0.65927  1.0000
  H   H244      1.0  0.45888  0.00123  0.68281  1.0000
  H   H245      1.0  0.36110  0.01735  0.70615  1.0000
  H   H246      1.0  0.48509  0.98966  0.66132  1.0000
  H   H247      1.0  0.47443  0.05914  0.73833  1.0000
  H   H248      1.0  0.09024  0.18943  0.92518  1.0000
  H   H249      1.0  0.36110  0.01901  0.67533  1.0000
  C   C144      1.0  0.00901  0.41143  0.72589  1.0000
  H   H250      1.0  0.04782  0.47534  0.80267  1.0000
  C   C145      1.0  0.40899  0.10081  0.81312  1.0000
  H   H251      1.0  0.14518  0.39567  0.69615  1.0000
  H   H252      1.0  0.46500  0.16507  0.81331  1.0000
  H   H253      1.0  0.00741  0.16639  0.97985  1.0000
  H   H254      1.0  0.38804  0.02011  0.74655  1.0000
  H   H255      1.0  0.07716  0.40943  0.69611  1.0000
  C   C146      1.0  0.12401  0.36565  0.66098  1.0000
  H   H256      1.0  0.07605  0.42770  0.65847  1.0000
  H   H257      1.0  0.41351  0.03753  0.78371  1.0000
  C   C147      1.0  0.00837  0.14691  0.93640  1.0000
  H   H258      1.0  0.42083  0.14494  0.80734  1.0000
  H   H259      1.0  0.10596  0.14734  0.94634  1.0000
  H   H260      1.0  0.46818  0.00193  0.76230  1.0000
  C   C148      1.0  0.45821  0.11595  0.83981  1.0000
  H   H261      1.0  0.38790  0.10580  0.80410  1.0000
  H   H262      1.0  0.45287  0.09342  0.84543  1.0000
  C   C149      1.0  0.48308  0.14910  0.78115  1.0000
  C   C150      1.0  0.43128  0.12233  0.80418  1.0000
  H   H263      1.0  0.40354  0.10312  0.83154  1.0000
  Fe  Fe22      1.0  0.44936  0.11395  0.69298  1.0000
  H   H264      1.0  0.08802  0.11383  0.94956  1.0000
  C   C151      1.0  0.02592  0.17428  0.93593  1.0000
  C   C152      1.0  0.44357  0.00558  0.85134  1.0000
  C   C153      1.0  0.06055  0.20518  0.95378  1.0000
  C   C154      1.0  0.39254  0.99762  0.84472  1.0000
  S   S43       1.0  0.46655  0.12125  0.65721  1.0000
  H   H265      1.0  0.03123  0.43809  0.77549  1.0000
  H   H266      1.0  0.08591  0.02293  0.92572  1.0000
  C   C155      1.0  0.36678  0.00492  0.69052  1.0000
  C   C156      1.0  0.41537  0.01629  0.84444  1.0000
  N   N11       1.0  0.46175  0.11808  0.81412  1.0000
  H   H267      1.0  0.44664  0.05161  0.77375  1.0000
  C   C157      1.0  0.07638  0.20929  0.93048  1.0000
  H   H268      1.0  0.04032  0.17241  0.92045  1.0000
  S   S44       1.0  0.47554  0.12079  0.72426  1.0000
  C   C158      1.0  0.12443  0.41011  0.69823  1.0000
  C   C159      1.0  0.01952  0.42523  0.76425  1.0000
  C   C160      1.0  0.43742  0.03154  0.78090  1.0000
  C   C161      1.0  0.44380  0.00668  0.76379  1.0000
  H   H269      1.0  0.09116  0.22725  0.93158  1.0000
  S   S45       1.0  0.07141  0.47415  0.69174  1.0000
  H   H270      1.0  0.12523  0.98688  0.86731  1.0000
  H   H271      1.0  0.06032  0.21631  0.91701  1.0000
  H   H272      1.0  0.31565  0.01193  0.71524  1.0000
  S   S46       1.0  0.47229  0.02895  0.84996  1.0000
  H   H273      1.0  0.39082  0.99758  0.78716  1.0000
  C   C162      1.0  0.08434  0.13793  0.94589  1.0000
  C   C163      1.0  0.04419  0.07613  0.98703  1.0000
  H   H274      1.0  0.07962  0.99198  0.89127  1.0000
  H   H275      1.0  0.12139  0.00391  0.93020  1.0000
  C   C164      1.0  0.21968  0.00229  0.88875  1.0000
  H   H276      1.0  0.04957  0.38477  0.66188  1.0000
  H   H277      1.0  0.04598  0.22595  0.95613  1.0000
  H   H278      1.0  0.07763  0.33062  0.68872  1.0000
  C   C165      1.0  0.47755  0.14468  0.80702  1.0000
  H   H279      1.0  0.47543  0.08923  0.78609  1.0000
  S   S47       1.0  0.99492  0.40248  0.80330  1.0000
  H   H280      1.0  0.46235  0.15262  0.77156  1.0000
  C   C166      1.0  0.30851  0.98978  0.71321  1.0000
  H   H281      1.0  0.26902  0.00514  0.73249  1.0000
  H   H282      1.0  0.47984  0.11747  0.87224  1.0000
  H   H283      1.0  0.99766  0.14562  0.91972  1.0000
  C   C167      1.0  0.48434  0.12354  0.85407  1.0000
  H   H284      1.0  0.31247  0.03600  0.68396  1.0000
  H   H285      1.0  0.00450  0.20403  0.97123  1.0000
  C   C168      1.0  0.27473  0.99241  0.71688  1.0000
  H   H286      1.0  0.12748  0.34088  0.69435  1.0000
  C   C169      1.0  0.30667  0.99133  0.67022  1.0000
  C   C170      1.0  0.05983  0.34741  0.68370  1.0000
  C   C171      1.0  0.13273  0.33810  0.67602  1.0000
  H   H287      1.0  0.28016  0.03398  0.66779  1.0000
  H   H288      1.0  0.14846  0.99269  0.89022  1.0000
  N   N12       1.0  0.09644  0.38442  0.66786  1.0000
  C   C172      1.0  0.06214  0.51993  0.21028  1.0000
  Fe  Fe23      1.0  0.45513  0.86006  0.29498  1.0000
  H   H289      1.0  0.36806  0.97893  0.13905  1.0000
  S   S48       1.0  0.22540  0.97898  0.14181  1.0000
  H   H290      1.0  0.00506  0.71493  0.08679  1.0000
  C   C173      1.0  0.41706  0.87659  0.15651  1.0000
  S   S49       1.0  0.34935  0.90037  0.30316  1.0000
  H   H291      1.0  0.02827  0.49913  0.19178  1.0000
  S   S50       1.0  0.03096  0.52216  0.28081  1.0000
  H   H292      1.0  0.30375  0.94066  0.23274  1.0000
  C   C174      1.0  0.01542  0.88633  0.00792  1.0000
  H   H293      1.0  0.02029  0.50415  0.22118  1.0000
  H   H294      1.0  0.11990  0.84855  0.03187  1.0000
  C   C175      1.0  0.03236  0.90294  0.02146  1.0000
  H   H295      1.0  0.43062  0.87286  0.20608  1.0000
  H   H296      1.0  0.02542  0.90727  0.03890  1.0000
  C   C176      1.0  0.48680  0.90698  0.17990  1.0000
  S   S51       1.0  0.41422  0.83634  0.30066  1.0000
  S   S52       1.0  0.15796  0.96543  0.01753  1.0000
  H   H297      1.0  0.11694  0.85795  0.06100  1.0000
  Fe  Fe24      1.0  0.10880  0.96538  0.01436  1.0000
  H   H298      1.0  0.05412  0.76466  0.06957  1.0000
  H   H299      1.0  0.45866  0.95038  0.20925  1.0000
  H   H300      1.0  0.26212  0.94390  0.08211  1.0000
  C   C177      1.0  0.41418  0.96937  0.13191  1.0000
  S   S53       1.0  0.00192  0.54232  0.14926  1.0000
  C   C178      1.0  0.05840  0.91367  0.01264  1.0000
  C   C179      1.0  0.07724  0.82020  0.01108  1.0000
  H   H301      1.0  0.03876  0.56584  0.25001  1.0000
  H   H302      1.0  0.07089  0.84357  0.00601  1.0000
  N   N13       1.0  0.06786  0.81429  0.03557  1.0000
  H   H303      1.0  0.07268  0.77744  0.99518  1.0000
  H   H304      1.0  0.44559  0.82808  0.19214  1.0000
  C   C180      1.0  0.34819  0.92174  0.22660  1.0000
  C   C181      1.0  0.37301  0.90650  0.23639  1.0000
  C   C182      1.0  0.37340  0.89987  0.25985  1.0000
  C   C183      1.0  0.34858  0.90773  0.27361  1.0000
  C   C184      1.0  0.32330  0.92210  0.26375  1.0000
  C   C185      1.0  0.32324  0.92951  0.24029  1.0000
  H   H305      1.0  0.39202  0.89987  0.22584  1.0000
  H   H306      1.0  0.39283  0.88836  0.26722  1.0000
  H   H307      1.0  0.30386  0.92766  0.27427  1.0000
  H   H308      1.0  0.02455  0.83141  0.02406  1.0000
  C   C186      1.0  0.30526  0.96300  0.07931  1.0000
  S   S54       1.0  0.34904  0.93034  0.19720  1.0000
  H   H309      1.0  0.12192  0.55217  0.18799  1.0000
  C   C187      1.0  0.46471  0.84109  0.19446  1.0000
  S   S55       1.0  0.08098  0.93142  0.03086  1.0000
  H   H310      1.0  0.10165  0.81704  0.00885  1.0000
  C   C188      1.0  0.07584  0.77395  0.06757  1.0000
  Fe  Fe25      1.0  0.02145  0.51139  0.31733  1.0000
  C   C189      1.0  0.19998  0.97789  0.10006  1.0000
  C   C190      1.0  0.43906  0.93762  0.20973  1.0000
  H   H311      1.0  0.29113  0.98176  0.26662  1.0000
  S   S56       1.0  0.43371  0.90389  0.30508  1.0000
  H   H312      1.0  0.40045  0.89595  0.15547  1.0000
  C   C191      1.0  0.07845  0.83831  0.04956  1.0000
  H   H313      1.0  0.46621  0.87900  0.21531  1.0000
  Fe  Fe26      1.0  0.39395  0.87959  0.31342  1.0000
  H   H314      1.0  0.05057  0.57489  0.20600  1.0000
  C   C192      1.0  0.43503  0.92280  0.18686  1.0000
  C   C193      1.0  0.06007  0.56761  0.18935  1.0000
  H   H315      1.0  0.45889  0.96066  0.30145  1.0000
  H   H316      1.0  0.41193  0.91675  0.18747  1.0000
  C   C194      1.0  0.05637  0.60420  0.26241  1.0000
  H   H317      1.0  0.19882  0.95465  0.10377  1.0000
  H   H318      1.0  0.06946  0.64664  0.27083  1.0000
  C   C195      1.0  0.07919  0.52119  0.17072  1.0000
  Fe  Fe27      1.0  0.31899  0.96941  0.18531  1.0000
  C   C196      1.0  0.05459  0.63498  0.26113  1.0000
  H   H319      1.0  0.43607  0.94024  0.17325  1.0000
  H   H320      1.0  0.46398  0.86765  0.15248  1.0000
  C   C197      1.0  0.38520  0.97589  0.29889  1.0000
  S   S57       1.0  0.09995  0.49788  0.29077  1.0000
  H   H321      1.0  0.02697  0.79384  0.03212  1.0000
  C   C198      1.0  0.01912  0.82397  0.05972  1.0000
  H   H322      1.0  0.39016  0.97063  0.28078  1.0000
  H   H323      1.0  0.48007  0.83828  0.17968  1.0000
  H   H324      1.0  0.11594  0.54119  0.15233  1.0000
  H   H325      1.0  0.09345  0.75662  0.07246  1.0000
  H   H326      1.0  0.29063  0.92540  0.09881  1.0000
  H   H327      1.0  0.32306  0.96321  0.30373  1.0000
  H   H328      1.0  0.27316  0.95947  0.10817  1.0000
  C   C199      1.0  0.03330  0.65078  0.24756  1.0000
  H   H329      1.0  0.45110  0.90386  0.14512  1.0000
  H   H330      1.0  0.07901  0.55586  0.14391  1.0000
  H   H331      1.0  0.47733  0.91569  0.25451  1.0000
  C   C200      1.0  0.44857  0.88616  0.15835  1.0000
  H   H332      1.0  0.08150  0.60839  0.19346  1.0000
  H   H333      1.0  0.03181  0.67459  0.24686  1.0000
  H   H334      1.0  0.07725  0.79137  0.08003  1.0000
  H   H335      1.0  0.09147  0.49915  0.17344  1.0000
  H   H336      1.0  0.31245  0.94868  0.06476  1.0000
  C   C201      1.0  0.03711  0.58941  0.24969  1.0000
  H   H337      1.0  0.02055  0.84763  0.06301  1.0000
  H   H338      1.0  0.41096  0.86184  0.17087  1.0000
  H   H339      1.0  0.06147  0.53034  0.22713  1.0000
  N   N14       1.0  0.45636  0.89645  0.18143  1.0000
  H   H340      1.0  0.07268  0.76711  0.03226  1.0000
  H   H341      1.0  0.07461  0.49797  0.21288  1.0000
  H   H342      1.0  0.41427  0.94683  0.13803  1.0000
  H   H343      1.0  0.12037  0.51813  0.20249  1.0000
  N   N15       1.0  0.07755  0.53810  0.19246  1.0000
  H   H344      1.0  0.99935  0.61298  0.28403  1.0000
  H   H345      1.0  0.44008  0.92175  0.22440  1.0000
  C   C202      1.0  0.06480  0.80102  0.99304  1.0000
  C   C203      1.0  0.28114  0.94747  0.09278  1.0000
  C   C204      1.0  0.09304  0.53598  0.14965  1.0000
  H   H346      1.0  0.09591  0.57639  0.22472  1.0000
  H   H347      1.0  0.09701  0.58742  0.16961  1.0000
  C   C205      1.0  0.11052  0.55571  0.22357  1.0000
  H   H348      1.0  0.06175  0.60734  0.16807  1.0000
  C   C206      1.0  0.07666  0.59358  0.17962  1.0000
  C   C207      1.0  0.01614  0.60517  0.23587  1.0000
  C   C208      1.0  0.02982  0.51465  0.20571  1.0000
  S   S58       1.0  0.08280  0.58474  0.27985  1.0000
  Fe  Fe28      1.0  0.07115  0.54038  0.29322  1.0000
  C   C209      1.0  0.44043  0.98063  0.12449  1.0000
  C   C210      1.0  0.10839  0.54046  0.20059  1.0000
  H   H349      1.0  0.13768  0.97056  0.09857  1.0000
  H   H350      1.0  0.01318  0.67746  0.99184  1.0000
  H   H351      1.0  0.10551  0.54086  0.23823  1.0000
  S   S59       1.0  0.30884  0.97476  0.14818  1.0000
  H   H352      1.0  0.07187  0.83615  0.06779  1.0000
  C   C211      1.0  0.45402  0.87327  0.20016  1.0000
  H   H353      1.0  0.02912  0.69876  0.01231  1.0000
  H   H354      1.0  0.05687  0.51677  0.16536  1.0000
  H   H355      1.0  0.04084  0.56572  0.17840  1.0000
  H   H356      1.0  0.41558  0.86453  0.14049  1.0000
  H   H357      1.0  0.07287  0.95969  0.08956  1.0000
  H   H358      1.0  0.10555  0.78141  0.03884  1.0000
  H   H359      1.0  0.99586  0.71350  0.99967  1.0000
  C   C212      1.0  0.11200  0.84090  0.04890  1.0000
  H   H360      1.0  0.14302  0.97770  0.14388  1.0000
  H   H361      1.0  0.02764  0.81030  0.07436  1.0000
  H   H362      1.0  0.10531  0.93580  0.08421  1.0000
  H   H363      1.0  0.41955  0.95352  0.21296  1.0000
  H   H364      1.0  0.01576  0.53531  0.20214  1.0000
  H   H365      1.0  0.13348  0.56137  0.22572  1.0000
  H   H366      1.0  0.36060  0.98313  0.07277  1.0000
  S   S60       1.0  0.47362  0.95828  0.12679  1.0000
  H   H367      1.0  0.12469  0.82008  0.05426  1.0000
  H   H368      1.0  0.26800  0.97398  0.04827  1.0000
  H   H369      1.0  0.09395  0.52051  0.13534  1.0000
  H   H370      1.0  0.00150  0.59349  0.22612  1.0000
  C   C213      1.0  0.03454  0.81532  0.03683  1.0000
  C   C214      1.0  0.01414  0.63588  0.23478  1.0000
  H   H371      1.0  0.10007  0.96941  0.06822  1.0000
  C   C215      1.0  0.08140  0.78417  0.04269  1.0000
  H   H372      1.0  0.06774  0.86010  0.04385  1.0000
  H   H373      1.0  0.00562  0.65769  0.03032  1.0000
  H   H374      1.0  0.34425  0.97624  0.26818  1.0000
  H   H375      1.0  0.04040  0.80358  0.99280  1.0000
  H   H376      1.0  0.40664  0.97667  0.30726  1.0000
  H   H377      1.0  0.11176  0.96001  0.11965  1.0000
  H   H378      1.0  0.02268  0.60840  0.31818  1.0000
  C   C216      1.0  0.00776  0.69274  0.00597  1.0000
  H   H379      1.0  0.48783  0.92476  0.16659  1.0000
  C   C217      1.0  0.09677  0.95931  0.08542  1.0000
  H   H380      1.0  0.17823  0.97714  0.06775  1.0000
  H   H381      1.0  0.47650  0.83060  0.20939  1.0000
  C   C218      1.0  0.06701  0.90827  0.98998  1.0000
  S   S61       1.0  0.48415  0.85163  0.26358  1.0000
  H   H382      1.0  0.37424  0.95774  0.30751  1.0000
  H   H383      1.0  0.32446  0.96211  0.09076  1.0000
  C   C219      1.0  0.46718  0.98097  0.29402  1.0000
  H   H384      1.0  0.99543  0.87821  0.01490  1.0000
  C   C220      1.0  0.11397  0.97373  0.10379  1.0000
  H   H385      1.0  0.99528  0.82084  0.05885  1.0000
  C   C221      1.0  0.99841  0.60809  0.32071  1.0000
  H   H386      1.0  0.16040  0.55084  0.38228  1.0000
  C   C222      1.0  0.09759  0.49385  0.59253  1.0000
  H   H387      1.0  0.18226  0.54403  0.61354  1.0000
  H   H388      1.0  0.13296  0.52495  0.35417  1.0000
  S   S62       1.0  0.45365  0.80709  0.62453  1.0000
  H   H389      1.0  0.14610  0.61041  0.55695  1.0000
  C   C223      1.0  0.41436  0.95287  0.35811  1.0000
  Fe  Fe29      1.0  0.39138  0.71160  0.52998  1.0000
  S   S63       1.0  0.36851  0.72618  0.49757  1.0000
  S   S64       1.0  0.37689  0.73078  0.56415  1.0000
  Fe  Fe30      1.0  0.43095  0.66346  0.50612  1.0000
  S   S65       1.0  0.41205  0.67535  0.47161  1.0000
  S   S66       1.0  0.45660  0.62050  0.51671  1.0000
  Fe  Fe31      1.0  0.41410  0.72245  0.48158  1.0000
  S   S67       1.0  0.42548  0.76345  0.46140  1.0000
  Fe  Fe32      1.0  0.36810  0.67814  0.49029  1.0000
  S   S68       1.0  0.33065  0.65801  0.47338  1.0000
  S   S69       1.0  0.43704  0.71034  0.51471  1.0000
  S   S70       1.0  0.38667  0.66390  0.52402  1.0000
  H   H390      1.0  0.46477  0.87800  0.57583  1.0000
  Fe  Fe33      1.0  0.23607  0.52474  0.50159  1.0000
  S   S71       1.0  0.47214  0.84754  0.32981  1.0000
  S   S72       1.0  0.26512  0.55352  0.52045  1.0000
  Fe  Fe34      1.0  0.19693  0.51500  0.46112  1.0000
  S   S73       1.0  0.18026  0.53506  0.42735  1.0000
  S   S74       1.0  0.18858  0.53847  0.49413  1.0000
  H   H391      1.0  0.06244  0.52928  0.41019  1.0000
  H   H392      1.0  0.47692  0.97921  0.37624  1.0000
  S   S75       1.0  0.42882  0.78210  0.35370  1.0000
  H   H393      1.0  0.00667  0.53629  0.40159  1.0000
  H   H394      1.0  0.39945  0.59668  0.51503  1.0000
  H   H395      1.0  0.42347  0.63198  0.58296  1.0000
  H   H396      1.0  0.40594  0.93277  0.35301  1.0000
  H   H397      1.0  0.44036  0.86640  0.42242  1.0000
  H   H398      1.0  0.17226  0.59576  0.53620  1.0000
  H   H399      1.0  0.37122  0.89136  0.60351  1.0000
  H   H400      1.0  0.37485  0.55307  0.46651  1.0000
  C   C224      1.0  0.42286  0.85855  0.58391  1.0000
  C   C225      1.0  0.42526  0.76772  0.43141  1.0000
  C   C226      1.0  0.41738  0.79572  0.42164  1.0000
  C   C227      1.0  0.41732  0.80016  0.39783  1.0000
  C   C228      1.0  0.42596  0.77680  0.38358  1.0000
  C   C229      1.0  0.43358  0.74873  0.39332  1.0000
  C   C230      1.0  0.43322  0.74416  0.41717  1.0000
  H   H401      1.0  0.41102  0.81402  0.43256  1.0000
  H   H402      1.0  0.41071  0.82167  0.39046  1.0000
  H   H403      1.0  0.44031  0.73055  0.38238  1.0000
  H   H404      1.0  0.43954  0.72256  0.42453  1.0000
  C   C231      1.0  0.28289  0.58260  0.50700  1.0000
  C   C232      1.0  0.27978  0.58972  0.48379  1.0000
  C   C233      1.0  0.29439  0.61300  0.47374  1.0000
  C   C234      1.0  0.31242  0.62915  0.48673  1.0000
  C   C235      1.0  0.31560  0.62194  0.50991  1.0000
  C   C236      1.0  0.30084  0.59882  0.51999  1.0000
  H   H405      1.0  0.26599  0.57742  0.47361  1.0000
  H   H406      1.0  0.29173  0.61845  0.45580  1.0000
  H   H407      1.0  0.32912  0.63440  0.52016  1.0000
  H   H408      1.0  0.30327  0.59353  0.53797  1.0000
  S   S76       1.0  0.13608  0.49182  0.52927  1.0000
  H   H409      1.0  0.39267  0.51363  0.51990  1.0000
  C   C237      1.0  0.15235  0.52982  0.38695  1.0000
  H   H410      1.0  0.36744  0.93777  0.58163  1.0000
  C   C238      1.0  0.16106  0.55742  0.61140  1.0000
  H   H411      1.0  0.48639  0.67184  0.53310  1.0000
  C   C239      1.0  0.43167  0.78654  0.60775  1.0000
  C   C240      1.0  0.44340  0.77550  0.58698  1.0000
  C   C241      1.0  0.42663  0.75906  0.57311  1.0000
  C   C242      1.0  0.39814  0.75302  0.58015  1.0000
  C   C243      1.0  0.38637  0.76424  0.60082  1.0000
  C   C244      1.0  0.40298  0.78107  0.61451  1.0000
  H   H412      1.0  0.46556  0.77976  0.58159  1.0000
  H   H413      1.0  0.43585  0.75080  0.55715  1.0000
  H   H414      1.0  0.36437  0.75964  0.60640  1.0000
  H   H415      1.0  0.39377  0.78933  0.63051  1.0000
  H   H416      1.0  0.20609  0.62128  0.55062  1.0000
  H   H417      1.0  0.14275  0.55410  0.52950  1.0000
  S   S77       1.0  0.45157  0.88630  0.64303  1.0000
  H   H418      1.0  0.39876  0.66299  0.57530  1.0000
  S   S78       1.0  0.40537  0.86902  0.35001  1.0000
  H   H419      1.0  0.34164  0.50565  0.51922  1.0000
  C   C245      1.0  0.40353  0.97004  0.62922  1.0000
  H   H420      1.0  0.14357  0.54075  0.58107  1.0000
  H   H421      1.0  0.44729  0.85496  0.39389  1.0000
  H   H422      1.0  0.16225  0.57897  0.61946  1.0000
  C   C246      1.0  0.38815  0.93750  0.57122  1.0000
  H   H423      1.0  0.42526  0.86222  0.60242  1.0000
  H   H424      1.0  0.20487  0.55444  0.54328  1.0000
  H   H425      1.0  0.40972  0.59379  0.46280  1.0000
  C   C247      1.0  0.39554  0.97892  0.35862  1.0000
  C   C248      1.0  0.13674  0.51523  0.37101  1.0000
  H   H426      1.0  0.46328  0.70735  0.63023  1.0000
  C   C249      1.0  0.42471  0.55001  0.49262  1.0000
  H   H427      1.0  0.44486  0.66417  0.55309  1.0000
  C   C250      1.0  0.15711  0.58943  0.55035  1.0000
  H   H428      1.0  0.38518  0.61552  0.48188  1.0000
  H   H429      1.0  0.22633  0.51132  0.56337  1.0000
  C   C251      1.0  0.02234  0.52209  0.39090  1.0000
  H   H430      1.0  0.17735  0.53103  0.55135  1.0000
  C   C252      1.0  0.15827  0.51711  0.40864  1.0000
  H   H431      1.0  0.43809  0.50352  0.50168  1.0000
  H   H432      1.0  0.36564  0.58407  0.52291  1.0000
  C   C253      1.0  0.19313  0.59294  0.57988  1.0000
  C   C254      1.0  0.21632  0.60633  0.56400  1.0000
  C   C255      1.0  0.41998  0.65627  0.58374  1.0000
  N   N16       1.0  0.17390  0.57228  0.56904  1.0000
  H   H433      1.0  0.39826  0.95801  0.57509  1.0000
  H   H434      1.0  0.01607  0.52737  0.37289  1.0000
  S   S79       1.0  0.24557  0.50524  0.46723  1.0000
  C   C256      1.0  0.21371  0.52832  0.57373  1.0000
  H   H435      1.0  0.12173  0.58860  0.52620  1.0000
  C   C257      1.0  0.43369  0.96459  0.62416  1.0000
  H   H436      1.0  0.41515  0.88371  0.53872  1.0000
  H   H437      1.0  0.04289  0.51008  0.44326  1.0000
  C   C258      1.0  0.19189  0.54671  0.55827  1.0000
  H   H438      1.0  0.17916  0.61160  0.58757  1.0000
  H   H439      1.0  0.46616  0.88430  0.40472  1.0000
  H   H440      1.0  0.46800  0.83921  0.58019  1.0000
  C   C259      1.0  0.38682  0.59732  0.46973  1.0000
  Fe  Fe35      1.0  0.42923  0.82761  0.33671  1.0000
  H   H441      1.0  0.41625  0.83593  0.58328  1.0000
  C   C260      1.0  0.48575  0.63424  0.57817  1.0000
  H   H442      1.0  0.45338  0.85412  0.55399  1.0000
  C   C261      1.0  0.37548  0.56900  0.48048  1.0000
  H   H443      1.0  0.14404  0.54589  0.62119  1.0000
  H   H444      1.0  0.33258  0.53553  0.49987  1.0000
  H   H445      1.0  0.46259  0.65731  0.61599  1.0000
  Fe  Fe36      1.0  0.44706  0.88955  0.34045  1.0000
  C   C262      1.0  0.44471  0.67155  0.57095  1.0000
  H   H446      1.0  0.37598  0.83871  0.60837  1.0000
  H   H447      1.0  0.47265  0.81982  0.37674  1.0000
  H   H448      1.0  0.20558  0.58199  0.59426  1.0000
  H   H449      1.0  0.20215  0.51636  0.58740  1.0000
  S   S80       1.0  0.46777  0.92070  0.36261  1.0000
  H   H450      1.0  0.13149  0.57758  0.58721  1.0000
  H   H451      1.0  0.42645  0.54370  0.47439  1.0000
  H   H452      1.0  0.23023  0.54161  0.58090  1.0000
  H   H453      1.0  0.11593  0.56638  0.55117  1.0000
  H   H454      1.0  0.37261  0.60494  0.45522  1.0000
  N   N17       1.0  0.33148  0.72788  0.42170  1.0000
  C   C263      1.0  0.30683  0.72483  0.43916  1.0000
  C   C264      1.0  0.35408  0.74484  0.43254  1.0000
  C   C265      1.0  0.34514  0.69730  0.41671  1.0000
  C   C266      1.0  0.31877  0.74317  0.40048  1.0000
  C   C267      1.0  0.28289  0.70476  0.43290  1.0000
  C   C268      1.0  0.34246  0.77510  0.44179  1.0000
  C   C269      1.0  0.37165  0.69492  0.39986  1.0000
  C   C270      1.0  0.34010  0.75971  0.38475  1.0000
  H   H455      1.0  0.31584  0.71650  0.45586  1.0000
  H   H456      1.0  0.29481  0.74662  0.44267  1.0000
  H   H457      1.0  0.37251  0.74877  0.42063  1.0000
  H   H458      1.0  0.36466  0.73174  0.44693  1.0000
  H   H459      1.0  0.35250  0.68565  0.43281  1.0000
  H   H460      1.0  0.32879  0.68381  0.40938  1.0000
  H   H461      1.0  0.30846  0.72724  0.38988  1.0000
  H   H462      1.0  0.30067  0.76010  0.40530  1.0000
  H   H463      1.0  0.26416  0.70774  0.44540  1.0000
  H   H464      1.0  0.27408  0.71014  0.41571  1.0000
  H   H465      1.0  0.29116  0.68114  0.43425  1.0000
  H   H466      1.0  0.32958  0.77263  0.45796  1.0000
  H   H467      1.0  0.36146  0.78746  0.44591  1.0000
  H   H468      1.0  0.32899  0.78857  0.42922  1.0000
  H   H469      1.0  0.36501  0.70176  0.38231  1.0000
  H   H470      1.0  0.38049  0.67146  0.39910  1.0000
  H   H471      1.0  0.39001  0.70713  0.40531  1.0000
  H   H472      1.0  0.33294  0.75890  0.36684  1.0000
  H   H473      1.0  0.36348  0.75080  0.38473  1.0000
  H   H474      1.0  0.33852  0.78349  0.38861  1.0000
  N   N18       1.0  0.39976  0.88081  0.57413  1.0000
  C   C271      1.0  0.41023  0.91086  0.57733  1.0000
  C   C272      1.0  0.37086  0.87935  0.58727  1.0000
  C   C273      1.0  0.39577  0.87714  0.54899  1.0000
  H   H475      1.0  0.46753  0.52668  0.49935  1.0000
  C   C274      1.0  0.36186  0.84856  0.59451  1.0000
  C   C275      1.0  0.38866  0.84659  0.54123  1.0000
  H   H476      1.0  0.35226  0.89064  0.57750  1.0000
  H   H477      1.0  0.37736  0.89276  0.54275  1.0000
  C   C276      1.0  0.45383  0.85787  0.57253  1.0000
  H   H478      1.0  0.23941  0.50882  0.41338  1.0000
  Fe  Fe37      1.0  0.17944  0.49423  0.50933  1.0000
  H   H479      1.0  0.49058  0.56563  0.52404  1.0000
  H   H480      1.0  0.33892  0.85073  0.60160  1.0000
  H   H481      1.0  0.36245  0.83312  0.58035  1.0000
  H   H482      1.0  0.36451  0.84467  0.54191  1.0000
  H   H483      1.0  0.39999  0.82784  0.55081  1.0000
  C   C277      1.0  0.15160  0.56172  0.58634  1.0000
  H   H484      1.0  0.06900  0.52406  0.38005  1.0000
  C   C278      1.0  0.13311  0.57340  0.53895  1.0000
  C   C279      1.0  0.38915  0.57612  0.51969  1.0000
  H   H485      1.0  0.22987  0.61984  0.57424  1.0000
  H   H486      1.0  0.43585  0.57070  0.49338  1.0000
  H   H487      1.0  0.48402  0.62711  0.56032  1.0000
  Fe  Fe38      1.0  0.40520  0.90351  0.65144  1.0000
  H   H488      1.0  0.38289  0.51150  0.49126  1.0000
  H   H489      1.0  0.23179  0.58921  0.55606  1.0000
  S   S81       1.0  0.38098  0.94083  0.63188  1.0000
  H   H490      1.0  0.42619  0.57039  0.54307  1.0000
  C   C280      1.0  0.44381  0.95295  0.36430  1.0000
  H   H491      1.0  0.38311  0.93872  0.55284  1.0000
  C   C281      1.0  0.34752  0.52800  0.51391  1.0000
  H   H492      1.0  0.35208  0.57506  0.48559  1.0000
  H   H493      1.0  0.40081  0.54213  0.54684  1.0000
  C   C282      1.0  0.38032  0.52613  0.50619  1.0000
  H   H494      1.0  0.43050  0.91393  0.56685  1.0000
  H   H495      1.0  0.05116  0.55762  0.38997  1.0000
  H   H496      1.0  0.44314  0.94255  0.62098  1.0000
  H   H497      1.0  0.43851  0.70891  0.60717  1.0000
  H   H498      1.0  0.43738  0.69546  0.56985  1.0000
  C   C283      1.0  0.05307  0.53340  0.39313  1.0000
  S   S82       1.0  0.05954  0.53316  0.33019  1.0000
  N   N19       1.0  0.39269  0.55508  0.50030  1.0000
  H   H499      1.0  0.41651  0.91325  0.59535  1.0000
  H   H500      1.0  0.41688  0.66311  0.60165  1.0000
  H   H501      1.0  0.39672  0.84357  0.52334  1.0000
  C   C284      1.0  0.10260  0.49536  0.56875  1.0000
  H   H502      1.0  0.44399  0.52867  0.52405  1.0000
  N   N20       1.0  0.47514  0.66625  0.58066  1.0000
  H   H503      1.0  0.34287  0.54218  0.52881  1.0000
  H   H504      1.0  0.47110  0.62001  0.58803  1.0000
  H   H505      1.0  0.48100  0.79107  0.39721  1.0000
  H   H506      1.0  0.07567  0.49923  0.59966  1.0000
  H   H507      1.0  0.27819  0.97345  0.32495  1.0000
  H   H508      1.0  0.27123  0.48484  0.41876  1.0000
  C   C285      1.0  0.46208  0.70460  0.61154  1.0000
  Fe  Fe39      1.0  0.43589  0.84146  0.65005  1.0000
  C   C286      1.0  0.49106  0.80817  0.38637  1.0000
  C   C287      1.0  0.45435  0.97912  0.37105  1.0000
  H   H509      1.0  0.37271  0.97864  0.35413  1.0000
  H   H510      1.0  0.08439  0.50193  0.55769  1.0000
  C   C288      1.0  0.47485  0.67322  0.60560  1.0000
  C   C289      1.0  0.45789  0.86264  0.40903  1.0000
  H   H511      1.0  0.47497  0.72159  0.60321  1.0000
  H   H512      1.0  0.39036  0.57761  0.55659  1.0000
  H   H513      1.0  0.99421  0.58953  0.33268  1.0000
  C   C290      1.0  0.40271  0.56563  0.54262  1.0000
  C   C291      1.0  0.48274  0.84060  0.41839  1.0000
  H   H514      1.0  0.99827  0.50015  0.42911  1.0000
  H   H515      1.0  0.47239  0.82206  0.42731  1.0000
  C   C292      1.0  0.44426  0.52583  0.50544  1.0000
  H   H516      1.0  0.48400  0.70879  0.56579  1.0000
  C   C293      1.0  0.25066  0.48708  0.40886  1.0000
  C   C294      1.0  0.14745  0.49010  0.41456  1.0000
  H   H517      1.0  0.21026  0.49040  0.37476  1.0000
  H   H518      1.0  0.25616  0.48869  0.39049  1.0000
  N   N21       1.0  0.01954  0.48991  0.39658  1.0000
  C   C295      1.0  0.12720  0.48758  0.37657  1.0000
  H   H519      1.0  0.49151  0.97662  0.33322  1.0000
  Fe  Fe40      1.0  0.08448  0.48881  0.32693  1.0000
  C   C296      1.0  0.13098  0.48869  0.55921  1.0000
  H   H520      1.0  0.47515  0.98348  0.61905  1.0000
  H   H521      1.0  0.33042  0.98346  0.32773  1.0000
  C   C297      1.0  0.04316  0.48744  0.43676  1.0000
  C   C298      1.0  0.12098  0.48549  0.60697  1.0000
  C   C299      1.0  0.29671  0.89080  0.74754  1.0000
  Fe  Fe41      1.0  0.45861  0.88784  0.68062  1.0000
  S   S83       1.0  0.44726  0.84144  0.68729  1.0000
  H   H522      1.0  0.25025  0.96382  0.88518  1.0000
  Fe  Fe42      1.0  0.40105  0.86271  0.69244  1.0000
  S   S84       1.0  0.37186  0.84972  0.72189  1.0000
  S   S85       1.0  0.41327  0.90888  0.68845  1.0000
  S   S86       1.0  0.05812  0.53558  0.73482  1.0000
  C   C300      1.0  0.44180  0.96614  0.79158  1.0000
  H   H523      1.0  0.00333  0.56009  0.83418  1.0000
  H   H524      1.0  0.43703  0.98176  0.80560  1.0000
  H   H525      1.0  0.31963  0.98404  0.65470  1.0000
  H   H526      1.0  0.15659  0.93686  0.86187  1.0000
  H   H527      1.0  0.38863  0.81651  0.82740  1.0000
  Fe  Fe43      1.0  0.15772  0.98079  0.98063  1.0000
  C   C301      1.0  0.31733  0.87054  0.73711  1.0000
  C   C302      1.0  0.20455  0.97732  0.93166  1.0000
  S   S87       1.0  0.05122  0.53721  0.66618  1.0000
  H   H528      1.0  0.31050  0.84985  0.73156  1.0000
  C   C303      1.0  0.44412  0.96776  0.72677  1.0000
  H   H529      1.0  0.40723  0.94115  0.80717  1.0000
  C   C304      1.0  0.03575  0.56759  0.74165  1.0000
  C   C305      1.0  0.03662  0.57922  0.76345  1.0000
  C   C306      1.0  0.23388  0.97535  0.89614  1.0000
  C   C307      1.0  0.41813  0.85679  0.84987  1.0000
  S   S88       1.0  0.00644  0.85557  0.96912  1.0000
  H   H530      1.0  0.01914  0.55366  0.80691  1.0000
  H   H531      1.0  0.05229  0.56933  0.77558  1.0000
  Fe  Fe44      1.0  0.07171  0.49268  0.65574  1.0000
  H   H532      1.0  0.37624  0.90444  0.79827  1.0000
  H   H533      1.0  0.43141  0.92031  0.78705  1.0000
  H   H534      1.0  0.15069  0.96082  0.92288  1.0000
  H   H535      1.0  0.35466  0.83639  0.83253  1.0000
  H   H536      1.0  0.47028  0.96775  0.86438  1.0000
  C   C308      1.0  0.30533  0.91712  0.75560  1.0000
  Fe  Fe45      1.0  0.04719  0.51692  0.70134  1.0000
  H   H537      1.0  0.27399  0.88579  0.74970  1.0000
  C   C309      1.0  0.42561  0.95766  0.85964  1.0000
  H   H538      1.0  0.36094  0.87647  0.78395  1.0000
  H   H539      1.0  0.43970  0.85389  0.84059  1.0000
  C   C310      1.0  0.34655  0.87697  0.73358  1.0000
  C   C311      1.0  0.35532  0.90371  0.74109  1.0000
  C   C312      1.0  0.33483  0.92350  0.75262  1.0000
  H   H540      1.0  0.37796  0.90869  0.73854  1.0000
  H   H541      1.0  0.34155  0.94391  0.75866  1.0000
  C   C313      1.0  0.37247  0.83302  0.81922  1.0000
  H   H542      1.0  0.08223  0.91805  0.91588  1.0000
  H   H543      1.0  0.17494  0.96954  0.85771  1.0000
  S   S89       1.0  0.28306  0.95383  0.83437  1.0000
  H   H544      1.0  0.44387  0.92804  0.81467  1.0000
  H   H545      1.0  0.37777  0.80210  0.79106  1.0000
  C   C314      1.0  0.13329  0.94685  0.91819  1.0000
  H   H546      1.0  0.31848  0.93345  0.70845  1.0000
  H   H547      1.0  0.11835  0.94647  0.93350  1.0000
  H   H548      1.0  0.02558  0.51947  0.78197  1.0000
  Fe  Fe46      1.0  0.00805  0.51829  0.66043  1.0000
  H   H549      1.0  0.39638  0.83897  0.76828  1.0000
  C   C315      1.0  0.01624  0.58101  0.72573  1.0000
  C   C316      1.0  0.35313  0.97520  0.69018  1.0000
  H   H550      1.0  0.47783  0.87405  0.77183  1.0000
  H   H551      1.0  0.16253  0.91161  0.90130  1.0000
  H   H552      1.0  0.16173  0.90993  0.93160  1.0000
  C   C317      1.0  0.48955  0.88881  0.76093  1.0000
  H   H553      1.0  0.46618  0.96195  0.79017  1.0000
  C   C318      1.0  0.43777  0.95606  0.75115  1.0000
  C   C319      1.0  0.39412  0.87441  0.83565  1.0000
  C   C320      1.0  0.05023  0.89135  0.97652  1.0000
  H   H554      1.0  0.42681  0.83353  0.80562  1.0000
  H   H555      1.0  0.26623  0.97058  0.71999  1.0000
  H   H556      1.0  0.13122  0.89876  0.91671  1.0000
  H   H557      1.0  0.36209  0.96490  0.67428  1.0000
  S   S90       1.0  0.27801  0.94207  0.76777  1.0000
  C   C321      1.0  0.14786  0.91505  0.91643  1.0000
  H   H558      1.0  0.18050  0.94907  0.88351  1.0000
  H   H559      1.0  0.05752  0.88648  0.95924  1.0000
  H   H560      1.0  0.40180  0.89667  0.83237  1.0000
  H   H561      1.0  0.45826  0.94229  0.75559  1.0000
  N   N22       1.0  0.38655  0.86107  0.81353  1.0000
  C   C322      1.0  0.10224  0.93793  0.88482  1.0000
  H   H562      1.0  0.44688  0.94901  0.71506  1.0000
  H   H563      1.0  0.36272  0.96105  0.70443  1.0000
  C   C323      1.0  0.33550  0.89107  0.81303  1.0000
  H   H564      1.0  0.42177  0.86939  0.86530  1.0000
  H   H565      1.0  0.40749  0.87601  0.76606  1.0000
  H   H566      1.0  0.11813  0.91951  0.87925  1.0000
  H   H567      1.0  0.08717  0.91619  0.98308  1.0000
  H   H568      1.0  0.43053  0.87170  0.80268  1.0000
  C   C324      1.0  0.31167  0.94471  0.69215  1.0000
  C   C325      1.0  0.39737  0.96843  0.85277  1.0000
  N   N23       1.0  0.42968  0.97856  0.76926  1.0000
  H   H569      1.0  0.33730  0.90144  0.82969  1.0000
  C   C326      1.0  0.99776  0.55766  0.81606  1.0000
  H   H570      1.0  0.43438  0.84517  0.76623  1.0000
  S   S91       1.0  0.36839  0.94527  0.85401  1.0000
  H   H571      1.0  0.32265  0.87162  0.81504  1.0000
  C   C327      1.0  0.41270  0.85367  0.77369  1.0000
  H   H572      1.0  0.23674  0.94165  0.92281  1.0000
  C   C328      1.0  0.44872  0.97612  0.85871  1.0000
  C   C329      1.0  0.36581  0.88349  0.80121  1.0000
  C   C330      1.0  0.01665  0.60312  0.76976  1.0000
  C   C331      1.0  0.43012  0.93714  0.80029  1.0000
  H   H573      1.0  0.38687  0.96282  0.77547  1.0000
  H   H574      1.0  0.42064  0.94024  0.75010  1.0000
  H   H575      1.0  0.28733  0.94404  0.69178  1.0000
  H   H576      1.0  0.42962  0.93512  0.86580  1.0000
  H   H577      1.0  0.32235  0.90748  0.80223  1.0000
  H   H578      1.0  0.34968  0.83203  0.78603  1.0000
  H   H579      1.0  0.34233  0.80386  0.80573  1.0000
  H   H580      1.0  0.05635  0.93945  0.89785  1.0000
  C   C332      1.0  0.41496  0.85476  0.79982  1.0000
  H   H581      1.0  0.47148  0.87478  0.72978  1.0000
  H   H582      1.0  0.41129  0.83514  0.85593  1.0000
  S   S92       1.0  0.10923  0.97659  0.97699  1.0000
  C   C333      1.0  0.22618  0.96284  0.91746  1.0000
  H   H583      1.0  0.37442  0.87774  0.84721  1.0000
  Fe  Fe47      1.0  0.32804  0.96936  0.83882  1.0000
  S   S93       1.0  0.19322  0.95939  0.95715  1.0000
  C   C334      1.0  0.36024  0.81709  0.79920  1.0000
  H   H584      1.0  0.31415  0.90354  0.67423  1.0000
  H   H585      1.0  0.34854  0.91886  0.67489  1.0000
  C   C335      1.0  0.48597  0.88921  0.73718  1.0000
  Fe  Fe48      1.0  0.28904  0.96848  0.79771  1.0000
  H   H586      1.0  0.49007  0.97633  0.69025  1.0000
  H   H587      1.0  0.09300  0.94804  0.86871  1.0000
  N   N24       1.0  0.31992  0.97611  0.69123  1.0000
  C   C336      1.0  0.32454  0.92466  0.67296  1.0000
  C   C337      1.0  0.07676  0.92416  0.89795  1.0000
  H   H588      1.0  0.07252  0.80841  0.97586  1.0000
  H   H589      1.0  0.01594  0.57259  0.70871  1.0000
  N   N25       1.0  0.11722  0.96024  0.89767  1.0000
  H   H590      1.0  0.07165  0.90389  0.88941  1.0000
  S   S94       1.0  0.00255  0.50154  0.69641  1.0000
  H   H591      1.0  0.01700  0.61183  0.78667  1.0000
  H   H592      1.0  0.46525  0.97814  0.72610  1.0000
  H   H593      1.0  0.31814  0.97702  0.72812  1.0000
  C   C338      1.0  0.99656  0.61597  0.75397  1.0000
  C   C339      1.0  0.99733  0.60562  0.73176  1.0000
  C   C340      1.0  0.39676  0.98394  0.77204  1.0000
  C   C341      1.0  0.16361  0.95602  0.87072  1.0000
  S   S95       1.0  0.33499  0.97926  0.80187  1.0000
  C   C342      1.0  0.13780  0.97535  0.88151  1.0000
  H   H594      1.0  0.02948  0.49987  0.82259  1.0000
  C   C343      1.0  0.02474  0.87975  0.98560  1.0000
  H   H595      1.0  0.99516  0.51650  0.74420  1.0000
  H   H596      1.0  0.07852  0.97392  0.91856  1.0000
  H   H597      1.0  0.38246  0.98366  0.73683  1.0000
  S   S96       1.0  0.38855  0.85889  0.65583  1.0000
  H   H598      1.0  0.32015  0.93444  0.65574  1.0000
  C   C344      1.0  0.01094  0.50252  0.78812  1.0000
  H   H599      1.0  0.42634  0.98353  0.72011  1.0000
  H   H600      1.0  0.01160  0.48708  0.77381  1.0000
  C   C345      1.0  0.09369  0.98343  0.90570  1.0000
  C   C346      1.0  0.02578  0.48529  0.80837  1.0000
  H   H601      1.0  0.28415  0.98447  0.66764  1.0000
  H   H602      1.0  0.91487  0.36482  0.03951  1.0000
  C   C347      1.0  0.90610  0.36147  0.02238  1.0000
  S   S97       1.0  0.52236  0.02516  0.13648  1.0000
  H   H603      1.0  0.92398  0.28051  0.99575  1.0000
  Fe  Fe49      1.0  0.52334  0.02966  0.17440  1.0000
  H   H604      1.0  0.76824  0.03391  0.13714  1.0000
  C   C348      1.0  0.71060  0.04886  0.06660  1.0000
  H   H605      1.0  0.54055  0.02799  0.26413  1.0000
  H   H606      1.0  0.68381  0.99033  0.09272  1.0000
  Fe  Fe50      1.0  0.92023  0.34390  0.14955  1.0000
  S   S98       1.0  0.95348  0.37644  0.15527  1.0000
  S   S99       1.0  0.93319  0.29971  0.13357  1.0000
  Fe  Fe51      1.0  0.87051  0.38194  0.17404  1.0000
  S   S100      1.0  0.89931  0.41742  0.18121  1.0000
  S   S101      1.0  0.82169  0.38576  0.18181  1.0000
  Fe  Fe52      1.0  0.91668  0.41024  0.14551  1.0000
  S   S102      1.0  0.91845  0.44767  0.12025  1.0000
  Fe  Fe53      1.0  0.93303  0.38038  0.19048  1.0000
  S   S103      1.0  0.95466  0.37819  0.22465  1.0000
  S   S104      1.0  0.88500  0.37760  0.13735  1.0000
  S   S105      1.0  0.90273  0.34496  0.18575  1.0000
  H   H607      1.0  0.91537  0.05210  0.00222  1.0000
  Fe  Fe54      1.0  0.78298  0.47676  0.29306  1.0000
  H   H608      1.0  0.88034  0.02088  0.01735  1.0000
  Fe  Fe55      1.0  0.90381  0.22493  0.01750  1.0000
  S   S106      1.0  0.95117  0.21952  0.00582  1.0000
  S   S107      1.0  0.88661  0.26542  0.03745  1.0000
  S   S108      1.0  0.50500  0.07116  0.19136  1.0000
  Fe  Fe56      1.0  0.94758  0.17096  0.01073  1.0000
  H   H609      1.0  0.71085  0.00307  0.05973  1.0000
  S   S109      1.0  0.90109  0.17643  0.02536  1.0000
  C   C349      1.0  0.94213  0.47346  0.12831  1.0000
  H   H610      1.0  0.87463  0.31425  0.00350  1.0000
  H   H611      1.0  0.70949  0.05456  0.04809  1.0000
  C   C350      1.0  0.98143  0.30058  0.24642  1.0000
  C   C351      1.0  0.90728  0.45350  0.23593  1.0000
  H   H612      1.0  0.92363  0.44384  0.22320  1.0000
  C   C352      1.0  0.90484  0.03887  0.98967  1.0000
  H   H613      1.0  0.97964  0.39147  0.26679  1.0000
  C   C353      1.0  0.72456  0.01686  0.06963  1.0000
  H   H614      1.0  0.72411  0.06503  0.07402  1.0000
  H   H615      1.0  0.59274  0.04107  0.99865  1.0000
  C   C354      1.0  0.87534  0.02988  0.00001  1.0000
  H   H616      1.0  0.81416  0.09422  0.04007  1.0000
  C   C355      1.0  0.83057  0.99973  0.02441  1.0000
  C   C356      1.0  0.83268  0.11702  0.01106  1.0000
  Fe  Fe57      1.0  0.88796  0.17365  0.98877  1.0000
  C   C357      1.0  0.69469  0.98880  0.12815  1.0000
  C   C358      1.0  0.80647  0.40579  0.20531  1.0000
  C   C359      1.0  0.77576  0.41060  0.20715  1.0000
  C   C360      1.0  0.77919  0.43767  0.24190  1.0000
  C   C361      1.0  0.81011  0.43306  0.24019  1.0000
  C   C362      1.0  0.82378  0.41716  0.22182  1.0000
  H   H617      1.0  0.76223  0.40197  0.19452  1.0000
  H   H618      1.0  0.82336  0.44161  0.25302  1.0000
  H   H619      1.0  0.84753  0.41347  0.22056  1.0000
  C   C363      1.0  0.92249  0.29145  0.10583  1.0000
  C   C364      1.0  0.90532  0.31193  0.09245  1.0000
  C   C365      1.0  0.89469  0.30368  0.07147  1.0000
  C   C366      1.0  0.90180  0.27517  0.06335  1.0000
  C   C367      1.0  0.91981  0.25502  0.07635  1.0000
  C   C368      1.0  0.92990  0.26308  0.09758  1.0000
  H   H620      1.0  0.89977  0.33394  0.09847  1.0000
  H   H621      1.0  0.88077  0.31941  0.06153  1.0000
  H   H622      1.0  0.92542  0.23299  0.07031  1.0000
  H   H623      1.0  0.94321  0.24708  0.10777  1.0000
  C   C369      1.0  0.52505  0.04398  0.25590  1.0000
  C   C370      1.0  0.52507  0.04653  0.23201  1.0000
  N   N26       1.0  0.72772  0.00518  0.09392  1.0000
  C   C371      1.0  0.81394  0.09750  0.02175  1.0000
  C   C372      1.0  0.63195  0.01943  0.07400  1.0000
  S   S110      1.0  0.50296  0.05668  0.29881  1.0000
  H   H624      1.0  0.54020  0.03221  0.22196  1.0000
  H   H625      1.0  0.97271  0.30214  0.17604  1.0000
  C   C373      1.0  0.50478  0.06176  0.26901  1.0000
  H   H626      1.0  0.84717  0.12867  0.02112  1.0000
  C   C374      1.0  0.83064  0.00282  0.99813  1.0000
  H   H627      1.0  0.73844  0.42991  0.22636  1.0000
  H   H628      1.0  0.79874  0.46107  0.17073  1.0000
  C   C375      1.0  0.79472  0.08255  0.00888  1.0000
  H   H629      1.0  0.55569  0.98873  0.29556  1.0000
  H   H630      1.0  0.63906  0.99163  0.00197  1.0000
  H   H631      1.0  0.81307  0.02077  0.99425  1.0000
  H   H632      1.0  0.98110  0.27892  0.21419  1.0000
  C   C376      1.0  0.76225  0.42646  0.22522  1.0000
  H   H633      1.0  0.63032  0.04319  0.07467  1.0000
  N   N27       1.0  0.82840  0.29850  0.13035  1.0000
  C   C377      1.0  0.84301  0.27197  0.11830  1.0000
  C   C378      1.0  0.84942  0.30643  0.14814  1.0000
  C   C379      1.0  0.82426  0.32346  0.11293  1.0000
  C   C380      1.0  0.79909  0.29077  0.14041  1.0000
  C   C381      1.0  0.82773  0.26259  0.09687  1.0000
  C   C382      1.0  0.85889  0.28159  0.16556  1.0000
  C   C383      1.0  0.81033  0.35320  0.12153  1.0000
  C   C384      1.0  0.78637  0.30879  0.16096  1.0000
  H   H634      1.0  0.86607  0.27553  0.11304  1.0000
  H   H635      1.0  0.84488  0.25223  0.12998  1.0000
  H   H636      1.0  0.84062  0.32567  0.15805  1.0000
  H   H637      1.0  0.86996  0.31352  0.13979  1.0000
  H   H638      1.0  0.84579  0.32746  0.10452  1.0000
  H   H639      1.0  0.80970  0.31786  0.09910  1.0000
  H   H640      1.0  0.78206  0.29240  0.12704  1.0000
  H   H641      1.0  0.80088  0.26736  0.14661  1.0000
  H   H642      1.0  0.80382  0.26078  0.09989  1.0000
  H   H643      1.0  0.83137  0.27776  0.08210  1.0000
  H   H644      1.0  0.83792  0.24061  0.09181  1.0000
  H   H645      1.0  0.86953  0.29105  0.18011  1.0000
  H   H646      1.0  0.83998  0.27022  0.17252  1.0000
  H   H647      1.0  0.87563  0.26533  0.15788  1.0000
  H   H648      1.0  0.82255  0.36161  0.13560  1.0000
  H   H649      1.0  0.78679  0.35211  0.12652  1.0000
  H   H650      1.0  0.81087  0.36988  0.10736  1.0000
  H   H651      1.0  0.76191  0.31108  0.16022  1.0000
  H   H652      1.0  0.79317  0.33135  0.16181  1.0000
  H   H653      1.0  0.79150  0.29667  0.17728  1.0000
  H   H654      1.0  0.83553  0.45357  0.17969  1.0000
  H   H655      1.0  0.96805  0.31657  0.21380  1.0000
  H   H656      1.0  0.83222  0.02138  0.03221  1.0000
  C   C385      1.0  0.90039  0.42775  0.25236  1.0000
  S   S111      1.0  0.69551  0.02933  0.00295  1.0000
  S   S112      1.0  0.57046  0.01168  0.17732  1.0000
  C   C386      1.0  0.50598  0.06802  0.22122  1.0000
  H   H657      1.0  0.87487  0.48336  0.18720  1.0000
  C   C387      1.0  0.64816  0.48140  0.31078  1.0000
  C   C388      1.0  0.61586  0.03391  0.99409  1.0000
  H   H658      1.0  0.97936  0.32337  0.25280  1.0000
  H   H659      1.0  0.90874  0.38185  0.01207  1.0000
  H   H660      1.0  0.69763  0.46747  0.28147  1.0000
  H   H661      1.0  0.91931  0.42002  0.26314  1.0000
  H   H662      1.0  0.88671  0.45993  0.22641  1.0000
  C   C389      1.0  0.64825  0.00523  0.05620  1.0000
  H   H663      1.0  0.59206  0.01312  0.03245  1.0000
  H   H664      1.0  0.89553  0.40873  0.24216  1.0000
  C   C390      1.0  0.96305  0.46639  0.14510  1.0000
  H   H665      1.0  0.96023  0.29124  0.25083  1.0000
  C   C391      1.0  0.82592  0.44445  0.12776  1.0000
  C   C392      1.0  0.98218  0.40126  0.23064  1.0000
  H   H666      1.0  0.68770  0.05180  0.07355  1.0000
  H   H667      1.0  0.86315  0.45285  0.14670  1.0000
  N   N28       1.0  0.91840  0.47999  0.24665  1.0000
  H   H668      1.0  0.65898  0.01808  0.04327  1.0000
  H   H669      1.0  0.94574  0.45663  0.27217  1.0000
  H   H670      1.0  0.97381  0.29881  0.99980  1.0000
  H   H671      1.0  0.74649  0.01586  0.06059  1.0000
  H   H672      1.0  0.76077  0.03642  0.09560  1.0000
  H   H673      1.0  0.94712  0.33801  0.01288  1.0000
  C   C393      1.0  0.84521  0.46662  0.13800  1.0000
  Fe  Fe58      1.0  0.74503  0.02901  0.00233  1.0000
  H   H674      1.0  0.81038  0.45519  0.11518  1.0000
  S   S113      1.0  0.77115  0.05853  0.02286  1.0000
  H   H675      1.0  0.81388  0.43219  0.14107  1.0000
  C   C394      1.0  0.81884  0.47191  0.17480  1.0000
  S   S114      1.0  0.60268  0.02175  0.11520  1.0000
  H   H676      1.0  0.55494  0.01006  0.02237  1.0000
  C   C395      1.0  0.92339  0.33419  0.01198  1.0000
  H   H677      1.0  0.92027  0.31526  0.02399  1.0000
  H   H678      1.0  0.56929  0.98779  0.04556  1.0000
  H   H679      1.0  0.88046  0.43336  0.26322  1.0000
  H   H680      1.0  0.72813  0.04582  0.11212  1.0000
  C   C396      1.0  0.74369  0.02683  0.10683  1.0000
  H   H681      1.0  0.89565  0.47304  0.27905  1.0000
  H   H682      1.0  0.93597  0.47817  0.19804  1.0000
  H   H683      1.0  0.96145  0.45651  0.24441  1.0000
  S   S115      1.0  0.76012  0.45743  0.26408  1.0000
  H   H684      1.0  0.62923  0.03989  0.00850  1.0000
  H   H685      1.0  0.96496  0.44467  0.15311  1.0000
  H   H686      1.0  0.68460  0.02455  0.10486  1.0000
  H   H687      1.0  0.84053  0.42794  0.11828  1.0000
  C   C397      1.0  0.94811  0.47072  0.25652  1.0000
  H   H688      1.0  0.88235  0.35837  0.02503  1.0000
  H   H689      1.0  0.62764  0.44108  0.30474  1.0000
  C   C398      1.0  0.98626  0.30073  0.22024  1.0000
  H   H690      1.0  0.63252  0.46280  0.27965  1.0000
  H   H691      1.0  0.86081  0.05055  0.00285  1.0000
  H   H692      1.0  0.69534  0.00575  0.14127  1.0000
  H   H693      1.0  0.78019  0.00030  0.12367  1.0000
  H   H694      1.0  0.80923  0.99213  0.03057  1.0000
  H   H695      1.0  0.74636  0.00360  0.14068  1.0000
  H   H696      1.0  0.71610  0.43592  0.30693  1.0000
  C   C399      1.0  0.61857  0.00308  0.09140  1.0000
  C   C400      1.0  0.57532  0.99788  0.02879  1.0000
  C   C401      1.0  0.99070  0.40327  0.25330  1.0000
  Fe  Fe59      1.0  0.56864  0.00379  0.13968  1.0000
  C   C402      1.0  0.64334  0.45501  0.29574  1.0000
  C   C403      1.0  0.69720  0.00256  0.10397  1.0000
  S   S116      1.0  0.98520  0.14358  0.02782  1.0000
  C   C404      1.0  0.76031  0.01506  0.12828  1.0000
  H   H697      1.0  0.85614  0.47811  0.12347  1.0000
  H   H698      1.0  0.66325  0.44032  0.29163  1.0000
  H   H699      1.0  0.50706  0.99873  0.28270  1.0000
  S   S117      1.0  0.50445  0.98669  0.18231  1.0000
  C   C405      1.0  0.62272  0.00074  0.98926  1.0000
  H   H700      1.0  0.99038  0.41474  0.19572  1.0000
  H   H701      1.0  0.82886  0.48374  0.20959  1.0000
  H   H702      1.0  0.79080  0.48281  0.20464  1.0000
  H   H703      1.0  0.89428  0.48209  0.15981  1.0000
  H   H704      1.0  0.87086  0.34826  0.98768  1.0000
  C   C406      1.0  0.88245  0.32570  0.98770  1.0000
  N   N29       1.0  0.91548  0.32704  0.98803  1.0000
  H   H705      1.0  0.57767  0.34534  0.44460  1.0000
  H   H706      1.0  0.63351  0.41825  0.55790  1.0000
  H   H707      1.0  0.72891  0.45493  0.37632  1.0000
  S   S118      1.0  0.65530  0.45270  0.43915  1.0000
  S   S119      1.0  0.53720  0.44900  0.51099  1.0000
  H   H708      1.0  0.68729  0.47394  0.34534  1.0000
  H   H709      1.0  0.56879  0.42209  0.61163  1.0000
  H   H710      1.0  0.54406  0.39253  0.44868  1.0000
  S   S120      1.0  0.85856  0.47473  0.63260  1.0000
  C   C407      1.0  0.53018  0.41303  0.50375  1.0000
  C   C408      1.0  0.55310  0.39179  0.49822  1.0000
  C   C409      1.0  0.54673  0.36367  0.49167  1.0000
  C   C410      1.0  0.51740  0.35664  0.49051  1.0000
  H   H711      1.0  0.58239  0.98925  0.65045  1.0000
  C   C411      1.0  0.57065  0.43482  0.56321  1.0000
  H   H712      1.0  0.57567  0.39716  0.49880  1.0000
  H   H713      1.0  0.56452  0.34732  0.48732  1.0000
  H   H714      1.0  0.57362  0.41985  0.37960  1.0000
  H   H715      1.0  0.64046  0.47595  0.32847  1.0000
  H   H716      1.0  0.52631  0.03025  0.64475  1.0000
  H   H717      1.0  0.71191  0.44555  0.58596  1.0000
  C   C412      1.0  0.59331  0.42618  0.41291  1.0000
  H   H718      1.0  0.62912  0.43129  0.61984  1.0000
  C   C413      1.0  0.69770  0.47307  0.32803  1.0000
  H   H719      1.0  0.52361  0.44180  0.45615  1.0000
  H   H720      1.0  0.59625  0.44575  0.42324  1.0000
  H   H721      1.0  0.69651  0.43043  0.40444  1.0000
  S   S121      1.0  0.78493  0.45539  0.32812  1.0000
  C   C414      1.0  0.71526  0.46790  0.38833  1.0000
  H   H722      1.0  0.55135  0.44502  0.39784  1.0000
  S   S122      1.0  0.87428  0.44307  0.33417  1.0000
  H   H723      1.0  0.56144  0.43946  0.46357  1.0000
  H   H724      1.0  0.81364  0.45304  0.59743  1.0000
  C   C415      1.0  0.67917  0.47070  0.42012  1.0000
  N   N30       1.0  0.58217  0.40167  0.42765  1.0000
  C   C416      1.0  0.54653  0.43914  0.44903  1.0000
  C   C417      1.0  0.60245  0.39622  0.44756  1.0000
  C   C418      1.0  0.50091  0.40570  0.50331  1.0000
  C   C419      1.0  0.58183  0.37459  0.41367  1.0000
  C   C420      1.0  0.63301  0.38006  0.44224  1.0000
  H   H725      1.0  0.54725  0.34655  0.42575  1.0000
  H   H726      1.0  0.64295  0.46407  0.60849  1.0000
  C   C421      1.0  0.54501  0.45523  0.57329  1.0000
  H   H727      1.0  0.61570  0.41955  0.40574  1.0000
  H   H728      1.0  0.59222  0.38347  0.46151  1.0000
  H   H729      1.0  0.60656  0.41733  0.45540  1.0000
  H   H730      1.0  0.56646  0.37883  0.39931  1.0000
  H   H731      1.0  0.60355  0.36877  0.40501  1.0000
  H   H732      1.0  0.64493  0.39087  0.42809  1.0000
  H   H733      1.0  0.64685  0.38041  0.45753  1.0000
  H   H734      1.0  0.63134  0.35664  0.43841  1.0000
  H   H735      1.0  0.60023  0.39589  0.53411  1.0000
  H   H736      1.0  0.98758  0.45847  0.39052  1.0000
  H   H737      1.0  0.56041  0.41692  0.55492  1.0000
  H   H738      1.0  0.58074  0.44700  0.54874  1.0000
  H   H739      1.0  0.54934  0.45842  0.43749  1.0000
  S   S123      1.0  0.67298  0.46261  0.54944  1.0000
  C   C422      1.0  0.93235  0.45466  0.32750  1.0000
  H   H740      1.0  0.53404  0.44486  0.58814  1.0000
  C   C423      1.0  0.60786  0.44969  0.58832  1.0000
  Fe  Fe60      1.0  0.83106  0.46999  0.32788  1.0000
  H   H741      1.0  0.59160  0.46384  0.59852  1.0000
  C   C424      1.0  0.57159  0.34700  0.42647  1.0000
  H   H742      1.0  0.58247  0.32685  0.41864  1.0000
  H   H743      1.0  0.63204  0.39068  0.57977  1.0000
  C   C425      1.0  0.69687  0.45409  0.40427  1.0000
  C   C426      1.0  0.56329  0.38124  0.59507  1.0000
  N   N31       1.0  0.59417  0.42333  0.57965  1.0000
  C   C427      1.0  0.70446  0.46854  0.58794  1.0000
  H   H744      1.0  0.58404  0.45592  0.38396  1.0000
  C   C428      1.0  0.58187  0.40691  0.59990  1.0000
  H   H745      1.0  0.52800  0.45995  0.56013  1.0000
  H   H746      1.0  0.54737  0.37857  0.60951  1.0000
  H   H747      1.0  0.62786  0.36866  0.54382  1.0000
  C   C429      1.0  0.63480  0.44291  0.60370  1.0000
  C   C430      1.0  0.95538  0.47333  0.32660  1.0000
  H   H748      1.0  0.53505  0.41066  0.42260  1.0000
  H   H749      1.0  0.57755  0.36029  0.59344  1.0000
  Fe  Fe61      1.0  0.58088  0.46820  0.50337  1.0000
  S   S124      1.0  0.51023  0.32204  0.48027  1.0000
  C   C431      1.0  0.91744  0.48308  0.62876  1.0000
  H   H750      1.0  0.60008  0.39706  0.61074  1.0000
  C   C432      1.0  0.55123  0.40984  0.43652  1.0000
  H   H751      1.0  0.54937  0.38490  0.57996  1.0000
  H   H752      1.0  0.72949  0.47260  0.61836  1.0000
  S   S125      1.0  0.62596  0.44445  0.50060  1.0000
  C   C433      1.0  0.57172  0.01192  0.64781  1.0000
  H   H753      1.0  0.59149  0.36915  0.55601  1.0000
  C   C434      1.0  0.90342  0.46595  0.33303  1.0000
  Fe  Fe62      1.0  0.63384  0.47485  0.47051  1.0000
  H   H754      1.0  0.65343  0.43035  0.59477  1.0000
  C   C435      1.0  0.60840  0.38334  0.54949  1.0000
  H   H755      1.0  0.61497  0.46397  0.57380  1.0000
  C   C436      1.0  0.61815  0.40430  0.56739  1.0000
  H   H756      1.0  0.68432  0.42818  0.32522  1.0000
  C   C437      1.0  0.57412  0.43698  0.39252  1.0000
  H   H757      1.0  0.92030  0.46153  0.62144  1.0000
  H   H758      1.0  0.57272  0.01777  0.62930  1.0000
  H   H759      1.0  0.55224  0.47682  0.57780  1.0000
  H   H760      1.0  0.77844  0.46054  0.58477  1.0000
  H   H761      1.0  0.53119  0.99261  0.65098  1.0000
  H   H762      1.0  0.71963  0.43033  0.33678  1.0000
  C   C438      1.0  0.70445  0.44009  0.32350  1.0000
  C   C439      1.0  0.68493  0.48284  0.57213  1.0000
  C   C440      1.0  0.79647  0.47096  0.59281  1.0000
  C   C441      1.0  0.49451  0.37765  0.49664  1.0000
  H   H763      1.0  0.95210  0.42321  0.64442  1.0000
  H   H764      1.0  0.51717  0.00191  0.32408  1.0000
  H   H765      1.0  0.49505  0.19551  0.46607  1.0000
  H   H766      1.0  0.77200  0.48396  0.54934  1.0000
  Fe  Fe63      1.0  0.64100  0.48020  0.52198  1.0000
  H   H767      1.0  0.82201  0.48125  0.56262  1.0000
  H   H768      1.0  0.93686  0.43157  0.32388  1.0000
  H   H769      1.0  0.78829  0.48080  0.60903  1.0000
  C   C442      1.0  0.71449  0.48381  0.60630  1.0000
  H   H770      1.0  0.97764  0.46459  0.32236  1.0000
  H   H771      1.0  0.71939  0.48230  0.32948  1.0000
  S   S126      1.0  0.88672  0.22268  0.98189  1.0000
  H   H772      1.0  0.54566  0.09365  0.68209  1.0000
  H   H773      1.0  0.91294  0.39581  0.66437  1.0000
  S   S127      1.0  0.57375  0.03151  0.76838  1.0000
  H   H774      1.0  0.53638  0.12455  0.73218  1.0000
  Fe  Fe64      1.0  0.94900  0.39290  0.81487  1.0000
  S   S128      1.0  0.92873  0.34971  0.81381  1.0000
  H   H775      1.0  0.68011  0.99069  0.84357  1.0000
  Fe  Fe65      1.0  0.89284  0.42624  0.83156  1.0000
  S   S129      1.0  0.86771  0.38658  0.83137  1.0000
  Fe  Fe66      1.0  0.90739  0.36239  0.84766  1.0000
  S   S130      1.0  0.89159  0.33282  0.87659  1.0000
  Fe  Fe67      1.0  0.89068  0.37718  0.79802  1.0000
  S   S131      1.0  0.86593  0.36072  0.76907  1.0000
  S   S132      1.0  0.93101  0.40341  0.85025  1.0000
  S   S133      1.0  0.91244  0.41906  0.79655  1.0000
  H   H776      1.0  0.79082  0.45910  0.83363  1.0000
  H   H777      1.0  0.59538  0.02139  0.95044  1.0000
  Fe  Fe68      1.0  0.70060  0.01607  0.96634  1.0000
  H   H778      1.0  0.52025  0.06747  0.79812  1.0000
  S   S134      1.0  0.74942  0.02071  0.96487  1.0000
  H   H779      1.0  0.87662  0.31842  0.95092  1.0000
  C   C443      1.0  0.84246  0.41695  0.75657  1.0000
  H   H780      1.0  0.96231  0.40580  0.67096  1.0000
  S   S135      1.0  0.95848  0.23572  0.94123  1.0000
  C   C444      1.0  0.65024  0.01430  0.92181  1.0000
  H   H781      1.0  0.60805  0.02129  0.87422  1.0000
  H   H782      1.0  0.77934  0.45831  0.80484  1.0000
  H   H783      1.0  0.49500  0.16907  0.77802  1.0000
  C   C445      1.0  0.62015  0.01074  0.88830  1.0000
  C   C446      1.0  0.79865  0.42632  0.73360  1.0000
  H   H784      1.0  0.82431  0.46011  0.74474  1.0000
  H   H785      1.0  0.86002  0.42515  0.76586  1.0000
  C   C447      1.0  0.84019  0.38653  0.75583  1.0000
  C   C448      1.0  0.81737  0.37619  0.74373  1.0000
  C   C449      1.0  0.79627  0.39601  0.73317  1.0000
  H   H786      1.0  0.81546  0.35278  0.74305  1.0000
  H   H787      1.0  0.77792  0.38784  0.72475  1.0000
  C   C450      1.0  0.91098  0.30521  0.89351  1.0000
  C   C451      1.0  0.89472  0.28835  0.90883  1.0000
  C   C452      1.0  0.90900  0.26669  0.92325  1.0000
  C   C453      1.0  0.93974  0.26176  0.92253  1.0000
  C   C454      1.0  0.95603  0.27827  0.90693  1.0000
  C   C455      1.0  0.94171  0.29994  0.89243  1.0000
  H   H788      1.0  0.87092  0.29221  0.90970  1.0000
  H   H789      1.0  0.89620  0.25388  0.93496  1.0000
  C   C456      1.0  0.79462  0.08698  0.98522  1.0000
  H   H790      1.0  0.95444  0.31282  0.88070  1.0000
  C   C457      1.0  0.82224  0.43675  0.74478  1.0000
  H   H791      1.0  0.93172  0.39060  0.70741  1.0000
  H   H792      1.0  0.84260  0.43876  0.67858  1.0000
  H   H793      1.0  0.90503  0.44140  0.73765  1.0000
  H   H794      1.0  0.94265  0.35699  0.93743  1.0000
  C   C458      1.0  0.91514  0.41925  0.66831  1.0000
  C   C459      1.0  0.85157  0.41540  0.67893  1.0000
  H   H795      1.0  0.86613  0.41422  0.71319  1.0000
  C   C460      1.0  0.93105  0.29726  0.98304  1.0000
  H   H796      1.0  0.63172  0.05153  0.90180  1.0000
  H   H797      1.0  0.84096  0.04678  0.96640  1.0000
  H   H798      1.0  0.53450  0.07473  0.65794  1.0000
  H   H799      1.0  0.81165  0.00431  0.95566  1.0000
  C   C461      1.0  0.54611  0.05498  0.75504  1.0000
  C   C462      1.0  0.55284  0.08295  0.74739  1.0000
  C   C463      1.0  0.53125  0.10254  0.73722  1.0000
  S   S136      1.0  0.76984  0.45066  0.72284  1.0000
  C   C464      1.0  0.50954  0.08242  0.81104  1.0000
  C   C465      1.0  0.53270  0.07563  0.67678  1.0000
  H   H800      1.0  0.87291  0.02809  0.95364  1.0000
  C   C466      1.0  0.94776  0.42394  0.66312  1.0000
  C   C467      1.0  0.57637  0.99177  0.70296  1.0000
  H   H801      1.0  0.93537  0.41636  0.74555  1.0000
  H   H802      1.0  0.77979  0.07582  0.97514  1.0000
  H   H803      1.0  0.90155  0.05327  0.97420  1.0000
  C   C468      1.0  0.92433  0.34625  0.94620  1.0000
  H   H804      1.0  0.56898  0.04552  0.68717  1.0000
  H   H805      1.0  0.53089  0.99183  0.71171  1.0000
  H   H806      1.0  0.57905  0.00861  0.71586  1.0000
  C   C469      1.0  0.51785  0.04621  0.75157  1.0000
  H   H807      1.0  0.53995  0.04905  0.70722  1.0000
  C   C470      1.0  0.49944  0.02289  0.68422  1.0000
  H   H808      1.0  0.70052  0.03255  0.89258  1.0000
  H   H809      1.0  0.68682  0.98959  0.88489  1.0000
  H   H810      1.0  0.99038  0.14813  0.94947  1.0000
  C   C471      1.0  0.89408  0.45834  0.69420  1.0000
  H   H811      1.0  0.82839  0.02278  0.93229  1.0000
  H   H812      1.0  0.59217  0.99435  0.68859  1.0000
  H   H813      1.0  0.55700  0.02045  0.94541  1.0000
  H   H814      1.0  0.90330  0.35619  0.93895  1.0000
  H   H815      1.0  0.83393  0.47640  0.77999  1.0000
  H   H816      1.0  0.51135  0.07089  0.82792  1.0000
  S   S137      1.0  0.77791  0.47251  0.65818  1.0000
  C   C472      1.0  0.72419  0.03512  0.89468  1.0000
  C   C473      1.0  0.54407  0.99285  0.69543  1.0000
  H   H817      1.0  0.83297  0.40230  0.68415  1.0000
  C   C474      1.0  0.92515  0.35113  0.97209  1.0000
  N   N32       1.0  0.86226  0.27720  0.82937  1.0000
  C   C475      1.0  0.84608  0.27618  0.85220  1.0000
  C   C476      1.0  0.85755  0.30844  0.82014  1.0000
  C   C477      1.0  0.89470  0.26973  0.83351  1.0000
  C   C478      1.0  0.85045  0.25518  0.81410  1.0000
  C   C479      1.0  0.85119  0.24732  0.86654  1.0000
  C   C480      1.0  0.82511  0.32057  0.81704  1.0000
  C   C481      1.0  0.91559  0.26927  0.81244  1.0000
  C   C482      1.0  0.85429  0.26050  0.78801  1.0000
  H   H818      1.0  0.85180  0.29427  0.86309  1.0000
  H   H819      1.0  0.82181  0.27995  0.85005  1.0000
  H   H820      1.0  0.86911  0.31167  0.80358  1.0000
  H   H821      1.0  0.86751  0.32352  0.83164  1.0000
  H   H822      1.0  0.90272  0.28532  0.84567  1.0000
  H   H823      1.0  0.89883  0.24747  0.84162  1.0000
  H   H824      1.0  0.86049  0.23256  0.81834  1.0000
  H   H825      1.0  0.82627  0.25454  0.81729  1.0000
  H   H826      1.0  0.84845  0.22758  0.85655  1.0000
  H   H827      1.0  0.87321  0.24537  0.87443  1.0000
  H   H828      1.0  0.83475  0.24768  0.88090  1.0000
  H   H829      1.0  0.81408  0.32588  0.83369  1.0000
  H   H830      1.0  0.82448  0.34156  0.80685  1.0000
  H   H831      1.0  0.81234  0.30535  0.80784  1.0000
  H   H832      1.0  0.93872  0.26602  0.81827  1.0000
  H   H833      1.0  0.91376  0.29017  0.80231  1.0000
  H   H834      1.0  0.91236  0.25048  0.80152  1.0000
  H   H835      1.0  0.85869  0.23890  0.77976  1.0000
  H   H836      1.0  0.87252  0.27367  0.78252  1.0000
  H   H837      1.0  0.83342  0.27067  0.78065  1.0000
  C   C483      1.0  0.57688  0.00720  0.95189  1.0000
  C   C484      1.0  0.63365  0.02780  0.90392  1.0000
  Fe  Fe69      1.0  0.93410  0.21436  0.97078  1.0000
  H   H838      1.0  0.90184  0.43238  0.65534  1.0000
  H   H839      1.0  0.63505  0.99959  0.97262  1.0000
  C   C485      1.0  0.50298  0.09402  0.73385  1.0000
  C   C486      1.0  0.70218  0.99411  0.85019  1.0000
  C   C487      1.0  0.74493  0.01042  0.88381  1.0000
  H   H840      1.0  0.49341  0.02943  0.70199  1.0000
  H   H841      1.0  0.92787  0.32305  0.94136  1.0000
  H   H842      1.0  0.88115  0.46663  0.67919  1.0000
  N   N33       1.0  0.90339  0.42592  0.69208  1.0000
  H   H843      1.0  0.88265  0.38502  0.69673  1.0000
  C   C488      1.0  0.99183  0.38979  0.73516  1.0000
  H   H844      1.0  0.97983  0.27455  0.90623  1.0000
  C   C489      1.0  0.91588  0.41914  0.73457  1.0000
  H   H845      1.0  0.72829  0.03651  0.91318  1.0000
  C   C490      1.0  0.85241  0.02447  0.96367  1.0000
  H   H846      1.0  0.90117  0.40221  0.74040  1.0000
  H   H847      1.0  0.97379  0.31114  0.96998  1.0000
  C   C491      1.0  0.81320  0.10657  0.97457  1.0000
  C   C492      1.0  0.91846  0.47950  0.69609  1.0000
  H   H848      1.0  0.51287  0.02435  0.75692  1.0000
  H   H849      1.0  0.98156  0.37556  0.72399  1.0000
  C   C493      1.0  0.87646  0.40924  0.69626  1.0000
  H   H850      1.0  0.58484  0.02784  0.65576  1.0000
  C   C494      1.0  0.54463  0.04661  0.68870  1.0000
  Fe  Fe70      1.0  0.51400  0.00388  0.83750  1.0000
  H   H851      1.0  0.57463  0.08982  0.74991  1.0000
  S   S138      1.0  0.93441  0.16530  0.97480  1.0000
  H   H852      1.0  0.94690  0.42455  0.70692  1.0000
  H   H853      1.0  0.85872  0.40885  0.66146  1.0000
  S   S139      1.0  0.66900  0.03628  0.93985  1.0000
  H   H854      1.0  0.81815  0.45435  0.81163  1.0000
  C   C495      1.0  0.98708  0.38708  0.75890  1.0000
  H   H855      1.0  0.81259  0.11027  0.95628  1.0000
  N   N34       1.0  0.53255  0.01904  0.68082  1.0000
  S   S140      1.0  0.55911  0.02025  0.83479  1.0000
  H   H856      1.0  0.84551  0.31273  0.96891  1.0000
  H   H857      1.0  0.87604  0.28568  0.96909  1.0000
  H   H858      1.0  0.92518  0.46746  0.85905  1.0000
  H   H859      1.0  0.97305  0.37097  0.76593  1.0000
  H   H860      1.0  0.75057  0.01730  0.86598  1.0000
  C   C496      1.0  0.86999  0.30973  0.96784  1.0000
  H   H861      1.0  0.84454  0.98755  0.94164  1.0000
  C   C497      1.0  0.53914  0.01382  0.65588  1.0000
  H   H862      1.0  0.76611  0.01068  0.89277  1.0000
  C   C498      1.0  0.92571  0.41461  0.70948  1.0000
  S   S141      1.0  0.86712  0.46902  0.83963  1.0000
  H   H863      1.0  0.95409  0.44528  0.66882  1.0000
  H   H864      1.0  0.91129  0.37209  0.97501  1.0000
  S   S142      1.0  0.51296  0.99252  0.80089  1.0000
  H   H865      1.0  0.72786  0.05655  0.88610  1.0000
  S   S143      1.0  0.85439  0.14676  0.97301  1.0000
  H   H866      1.0  0.92485  0.28897  0.96650  1.0000
  Fe  Fe71      1.0  0.55922  0.00449  0.79878  1.0000
  H   H867      1.0  0.97666  0.11518  0.98493  1.0000
  H   H868      1.0  0.56032  0.01626  0.98566  1.0000
  C   C499      1.0  0.83317  0.00851  0.94766  1.0000
  H   H869      1.0  0.49729  0.13043  0.77402  1.0000
  H   H870      1.0  0.70333  0.01825  0.85073  1.0000
  C   C500      1.0  0.79635  0.46600  0.81583  1.0000
  H   H871      1.0  0.50551  0.11143  0.84913  1.0000
  H   H872      1.0  0.87814  0.46255  0.70871  1.0000
  H   H873      1.0  0.71405  0.98572  0.91866  1.0000
  H   H874      1.0  0.52277  0.10155  0.81045  1.0000
  H   H875      1.0  0.62255  0.04748  0.97911  1.0000
  N   N35       1.0  0.85945  0.00904  0.98627  1.0000
  H   H876      1.0  0.96505  0.47437  0.78165  1.0000
  H   H877      1.0  0.50955  0.08194  0.68224  1.0000
  H   H878      1.0  0.93723  0.47091  0.70661  1.0000
  H   H879      1.0  0.96355  0.47852  0.81144  1.0000
  H   H880      1.0  0.49946  0.14430  0.81484  1.0000
  C   C501      1.0  0.49632  0.06567  0.74080  1.0000
  H   H881      1.0  0.97393  0.27310  0.97773  1.0000
  H   H882      1.0  0.94780  0.35668  0.97593  1.0000
  C   C502      1.0  0.96506  0.29551  0.98272  1.0000
  C   C503      1.0  0.57072  0.99687  0.97674  1.0000
  H   H883      1.0  0.78402  0.48247  0.77117  1.0000
  H   H884      1.0  0.91391  0.48162  0.79957  1.0000
  H   H885      1.0  0.58125  0.98844  0.94032  1.0000
  H   H886      1.0  0.92061  0.01956  0.98595  1.0000
  Fe  Fe72      1.0  0.78096  0.48324  0.69512  1.0000
  C   C504      1.0  0.83216  0.12184  0.98741  1.0000
  H   H887      1.0  0.80057  0.54752  0.15924  1.0000
  S   S144      1.0  0.56793  0.93523  0.21005  1.0000
  H   H888      1.0  0.54770  0.89317  0.30529  1.0000
  S   S145      1.0  0.98438  0.75739  0.05238  1.0000
  H   H889      1.0  0.97955  0.63105  0.00489  1.0000
  S   S146      1.0  0.83351  0.57201  0.29673  1.0000
  H   H890      1.0  0.89909  0.53781  0.26503  1.0000
  C   C505      1.0  0.96768  0.49513  0.26266  1.0000
  C   C506      1.0  0.94200  0.49655  0.20837  1.0000
  Fe  Fe73      1.0  0.97277  0.58287  0.15813  1.0000
  C   C507      1.0  0.84820  0.87844  0.00006  1.0000
  H   H891      1.0  0.92343  0.50713  0.10510  1.0000
  Fe  Fe74      1.0  0.91337  0.59707  0.18157  1.0000
  S   S147      1.0  0.91837  0.64555  0.18140  1.0000
  S   S148      1.0  0.87573  0.57107  0.19334  1.0000
  Fe  Fe75      1.0  0.93627  0.64003  0.14543  1.0000
  S   S149      1.0  0.91695  0.66999  0.11687  1.0000
  Fe  Fe76      1.0  0.96511  0.63198  0.19154  1.0000
  S   S150      1.0  0.92726  0.59241  0.14490  1.0000
  S   S151      1.0  0.95833  0.58404  0.19479  1.0000
  S   S152      1.0  0.95369  0.83294  0.02064  1.0000
  Fe  Fe77      1.0  0.96033  0.78353  0.02385  1.0000
  H   H892      1.0  0.71135  0.97022  0.13166  1.0000
  H   H893      1.0  0.89741  0.71508  0.00459  1.0000
  H   H894      1.0  0.58453  0.95160  0.27070  1.0000
  C   C508      1.0  0.95799  0.52274  0.12455  1.0000
  C   C509      1.0  0.81660  0.80511  0.99159  1.0000
  H   H895      1.0  0.89722  0.97550  0.01609  1.0000
  C   C510      1.0  0.93604  0.69603  0.10092  1.0000
  C   C511      1.0  0.91997  0.71619  0.08636  1.0000
  C   C512      1.0  0.93444  0.73573  0.07192  1.0000
  C   C513      1.0  0.96519  0.73515  0.07181  1.0000
  H   H896      1.0  0.55500  0.92834  0.27293  1.0000
  C   C514      1.0  0.96676  0.69591  0.10121  1.0000
  H   H897      1.0  0.89619  0.71643  0.08609  1.0000
  H   H898      1.0  0.92179  0.75101  0.06072  1.0000
  H   H899      1.0  0.92544  0.65084  0.04087  1.0000
  H   H900      1.0  0.50867  0.92115  0.29132  1.0000
  C   C515      1.0  0.84444  0.57287  0.26783  1.0000
  C   C516      1.0  0.83529  0.55214  0.25316  1.0000
  C   C517      1.0  0.84519  0.55195  0.23039  1.0000
  C   C518      1.0  0.86424  0.57239  0.22208  1.0000
  C   C519      1.0  0.87347  0.59323  0.23667  1.0000
  C   C520      1.0  0.86337  0.59358  0.25954  1.0000
  H   H901      1.0  0.82030  0.53647  0.25931  1.0000
  H   H902      1.0  0.83805  0.53593  0.21916  1.0000
  H   H903      1.0  0.88790  0.60932  0.23022  1.0000
  H   H904      1.0  0.87013  0.60986  0.27082  1.0000
  S   S153      1.0  0.75227  0.98130  0.01308  1.0000
  C   C521      1.0  0.51348  0.93008  0.30809  1.0000
  H   H905      1.0  0.97184  0.61357  0.04197  1.0000
  H   H906      1.0  0.60693  0.96200  0.02228  1.0000
  H   H907      1.0  0.94503  0.67516  0.05634  1.0000
  Fe  Fe78      1.0  0.81325  0.53018  0.30735  1.0000
  H   H908      1.0  0.57359  0.87445  0.22220  1.0000
  H   H909      1.0  0.81617  0.88819  0.02707  1.0000
  C   C522      1.0  0.50728  0.87672  0.25070  1.0000
  Fe  Fe79      1.0  0.70314  0.98097  0.01075  1.0000
  C   C523      1.0  0.93225  0.59868  0.30864  1.0000
  C   C524      1.0  0.55258  0.88360  0.22912  1.0000
  C   C525      1.0  0.54357  0.91338  0.22527  1.0000
  H   H910      1.0  0.92194  0.51707  0.28623  1.0000
  H   H911      1.0  0.57104  0.95687  0.01260  1.0000
  H   H912      1.0  0.96328  0.67099  0.26799  1.0000
  H   H913      1.0  0.63253  0.49995  0.30455  1.0000
  H   H914      1.0  0.77068  0.54136  0.14179  1.0000
  C   C526      1.0  0.67921  0.50940  0.26882  1.0000
  N   N36       1.0  0.67893  0.49119  0.31103  1.0000
  C   C527      1.0  0.81170  0.48949  0.19670  1.0000
  H   H915      1.0  0.77362  0.52197  0.16839  1.0000
  H   H916      1.0  0.89736  0.50849  0.22052  1.0000
  H   H917      1.0  0.92463  0.65683  0.29617  1.0000
  H   H918      1.0  0.63954  0.93436  0.07244  1.0000
  H   H919      1.0  0.92436  0.52503  0.23461  1.0000
  H   H920      1.0  0.54116  0.84207  0.24340  1.0000
  H   H921      1.0  0.78497  0.92440  0.00401  1.0000
  H   H922      1.0  0.97932  0.68044  0.11234  1.0000
  H   H923      1.0  0.84247  0.52743  0.17101  1.0000
  C   C528      1.0  0.94131  0.69838  0.01543  1.0000
  C   C529      1.0  0.98127  0.71544  0.08670  1.0000
  H   H924      1.0  0.95605  0.54443  0.11650  1.0000
  H   H925      1.0  0.89345  0.51393  0.17618  1.0000
  H   H926      1.0  0.82465  0.78821  0.00451  1.0000
  C   C530      1.0  0.97925  0.51563  0.14104  1.0000
  H   H927      1.0  0.54979  0.96476  0.25948  1.0000
  H   H928      1.0  0.94876  0.70917  0.99950  1.0000
  C   C531      1.0  0.49839  0.90681  0.24754  1.0000
  H   H929      1.0  0.95261  0.62195  0.06834  1.0000
  C   C532      1.0  0.80465  0.50490  0.14149  1.0000
  C   C533      1.0  0.51643  0.92510  0.23459  1.0000
  N   N37       1.0  0.82983  0.48858  0.15413  1.0000
  H   H930      1.0  0.95070  0.65259  0.31790  1.0000
  H   H931      1.0  0.89712  0.69289  0.03013  1.0000
  C   C534      1.0  0.78683  0.53027  0.15383  1.0000
  C   C535      1.0  0.73232  0.95172  0.07985  1.0000
  S   S154      1.0  0.67511  0.95588  0.03556  1.0000
  H   H932      1.0  0.51066  0.87263  0.15882  1.0000
  C   C536      1.0  0.85197  0.50981  0.15979  1.0000
  C   C537      1.0  0.90811  0.69499  0.01311  1.0000
  H   H933      1.0  0.62304  0.92204  0.00314  1.0000
  H   H934      1.0  0.71702  0.49676  0.28913  1.0000
  C   C538      1.0  0.96023  0.64768  0.00308  1.0000
  N   N38       1.0  0.96025  0.67046  0.02123  1.0000
  H   H935      1.0  0.80876  0.51359  0.19426  1.0000
  S   S155      1.0  0.98358  0.62997  0.15559  1.0000
  H   H936      1.0  0.53334  0.89520  0.17350  1.0000
  C   C539      1.0  0.94568  0.61342  0.26965  1.0000
  H   H937      1.0  0.88333  0.52270  0.29010  1.0000
  S   S156      1.0  0.82971  0.48742  0.29192  1.0000
  C   C540      1.0  0.91952  0.50357  0.22809  1.0000
  H   H938      1.0  0.91018  0.94839  0.99683  1.0000
  H   H939      1.0  0.99181  0.66229  0.28877  1.0000
  H   H940      1.0  0.95911  0.51773  0.25790  1.0000
  S   S157      1.0  0.76585  0.52146  0.30539  1.0000
  Fe  Fe80      1.0  0.55154  0.96805  0.18261  1.0000
  H   H941      1.0  0.97140  0.57237  0.25955  1.0000
  H   H942      1.0  0.61044  0.95962  0.10377  1.0000
  H   H943      1.0  0.74663  0.93078  0.08171  1.0000
  C   C541      1.0  0.94786  0.65799  0.04325  1.0000
  H   H944      1.0  0.94035  0.63522  0.00543  1.0000
  C   C542      1.0  0.62060  0.97240  0.09039  1.0000
  H   H945      1.0  0.56820  0.95530  0.30912  1.0000
  C   C543      1.0  0.53429  0.86530  0.24129  1.0000
  C   C544      1.0  0.56034  0.95148  0.27370  1.0000
  C   C545      1.0  0.94812  0.58181  0.26085  1.0000
  C   C546      1.0  0.63715  0.95816  0.07266  1.0000
  H   H946      1.0  0.71010  0.94730  0.08656  1.0000
  C   C547      1.0  0.82260  0.89312  0.00958  1.0000
  S   S158      1.0  0.86849  0.85155  0.01693  1.0000
  H   H947      1.0  0.68335  0.53284  0.27040  1.0000
  C   C548      1.0  0.93965  0.50159  0.11803  1.0000
  H   H948      1.0  0.65519  0.50742  0.26829  1.0000
  H   H949      1.0  0.50187  0.96426  0.27141  1.0000
  S   S159      1.0  0.55464  0.95802  0.14521  1.0000
  H   H950      1.0  0.94341  0.71508  0.02855  1.0000
  C   C549      1.0  0.65161  0.97450  0.05585  1.0000
  H   H951      1.0  0.96038  0.62561  0.25821  1.0000
  C   C550      1.0  0.94795  0.64857  0.29961  1.0000
  H   H952      1.0  0.94021  0.57488  0.30909  1.0000
  C   C551      1.0  0.69429  0.49006  0.28793  1.0000
  C   C552      1.0  0.80494  0.91375  0.99655  1.0000
  H   H953      1.0  0.82241  0.98243  0.99166  1.0000
  Fe  Fe81      1.0  0.91056  0.82613  0.00467  1.0000
  H   H954      1.0  0.93908  0.58222  0.24347  1.0000
  H   H955      1.0  0.93527  0.56717  0.27161  1.0000
  H   H956      1.0  0.51595  0.86775  0.18954  1.0000
  Fe  Fe82      1.0  0.50855  0.98012  0.14457  1.0000
  C   C553      1.0  0.55169  0.96496  0.29695  1.0000
  H   H957      1.0  0.90403  0.67605  0.00267  1.0000
  N   N39       1.0  0.52044  0.96173  0.30521  1.0000
  H   H958      1.0  0.81294  0.51425  0.12500  1.0000
  H   H959      1.0  0.92289  0.62342  0.26629  1.0000
  S   S160      1.0  0.91560  0.77715  0.01106  1.0000
  C   C554      1.0  0.88003  0.49604  0.17146  1.0000
  C   C555      1.0  0.89633  0.48997  0.26501  1.0000
  N   N40       1.0  0.95301  0.61630  0.29439  1.0000
  C   C556      1.0  0.90108  0.51858  0.27693  1.0000
  H   H960      1.0  0.87385  0.49308  0.25776  1.0000
  H   H961      1.0  0.85924  0.52173  0.14404  1.0000
  C   C557      1.0  0.99119  0.67783  0.02569  1.0000
  H   H962      1.0  0.91001  0.59991  0.30092  1.0000
  H   H963      1.0  0.94220  0.51612  0.19662  1.0000
  C   C558      1.0  0.96600  0.63129  0.05423  1.0000
  H   H964      1.0  0.50947  0.94818  0.23178  1.0000
  C   C559      1.0  0.58784  0.97316  0.01302  1.0000
  H   H965      1.0  0.78804  0.48970  0.13712  1.0000
  H   H966      1.0  0.97138  0.49439  0.28129  1.0000
  H   H967      1.0  0.87349  0.94741  0.00895  1.0000
  S   S161      1.0  0.98238  0.77873  0.98937  1.0000
  C   C560      1.0  0.50028  0.97663  0.28746  1.0000
  C   C561      1.0  0.51274  0.88384  0.17508  1.0000
  H   H968      1.0  0.98713  0.58002  0.29475  1.0000
  H   H969      1.0  0.68913  0.50241  0.25211  1.0000
  H   H970      1.0  0.73141  0.95702  0.06132  1.0000
  H   H971      1.0  0.66527  0.53782  0.30590  1.0000
  C   C562      1.0  0.88998  0.96223  0.00222  1.0000
  H   H972      1.0  0.49284  0.92869  0.31844  1.0000
  C   C563      1.0  0.98462  0.60416  0.29744  1.0000
  H   H973      1.0  0.49220  0.91700  0.19594  1.0000
  H   H974      1.0  0.98615  0.63794  0.06216  1.0000
  H   H975      1.0  0.96383  0.69166  0.29308  1.0000
  C   C564      1.0  0.96806  0.66910  0.28644  1.0000
  H   H976      1.0  0.98966  0.49110  0.25411  1.0000
  C   C565      1.0  0.53740  0.90784  0.31863  1.0000
  H   H977      1.0  0.75035  0.96622  0.11028  1.0000
  S   S162      1.0  0.98704  0.65610  0.21850  1.0000
  H   H978      1.0  0.99109  0.69243  0.04057  1.0000
  C   C566      1.0  0.67716  0.52276  0.31848  1.0000
  H   H979      1.0  0.81390  0.82635  0.00050  1.0000
  H   H980      1.0  0.65065  0.94470  0.99122  1.0000
  H   H981      1.0  0.96479  0.49163  0.21446  1.0000
  H   H982      1.0  0.76795  0.97864  0.08516  1.0000
  C   C567      1.0  0.74578  0.97581  0.09303  1.0000
  C   C568      1.0  0.98193  0.48735  0.15122  1.0000
  H   H983      1.0  0.84810  0.98355  0.03087  1.0000
  H   H984      1.0  0.67315  0.97911  0.13005  1.0000
  N   N41       1.0  0.59699  0.98209  0.98907  1.0000
  H   H985      1.0  0.69969  0.53041  0.31945  1.0000
  H   H986      1.0  0.52834  0.94552  0.35400  1.0000
  C   C569      1.0  0.75837  0.56495  0.58206  1.0000
  H   H987      1.0  0.66635  0.51430  0.43187  1.0000
  C   C570      1.0  0.67992  0.50124  0.41984  1.0000
  S   S163      1.0  0.71749  0.53392  0.63141  1.0000
  H   H988      1.0  0.49900  0.86268  0.37429  1.0000
  H   H989      1.0  0.74700  0.50179  0.56916  1.0000
  H   H990      1.0  0.87590  0.50464  0.34226  1.0000
  C   C571      1.0  0.51155  0.62734  0.49667  1.0000
  Fe  Fe83      1.0  0.60409  0.52786  0.49520  1.0000
  C   C572      1.0  0.77897  0.53724  0.58760  1.0000
  S   S164      1.0  0.58937  0.57644  0.49070  1.0000
  H   H991      1.0  0.75286  0.57673  0.59814  1.0000
  H   H992      1.0  0.91293  0.62891  0.33468  1.0000
  H   H993      1.0  0.56277  0.80958  0.43980  1.0000
  H   H994      1.0  0.79310  0.55481  0.54287  1.0000
  S   S165      1.0  0.65173  0.50911  0.49165  1.0000
  H   H995      1.0  0.82902  0.56471  0.57332  1.0000
  Fe  Fe84      1.0  0.77067  0.50088  0.34063  1.0000
  C   C573      1.0  0.69780  0.51507  0.40362  1.0000
  S   S166      1.0  0.81693  0.51350  0.34351  1.0000
  C   C574      1.0  0.89779  0.49577  0.33766  1.0000
  C   C575      1.0  0.49506  0.68608  0.56777  1.0000
  C   C576      1.0  0.50450  0.58005  0.51472  1.0000
  H   H996      1.0  0.55054  0.80820  0.40080  1.0000
  H   H997      1.0  0.53205  0.64283  0.58542  1.0000
  S   S167      1.0  0.96904  0.54635  0.64637  1.0000
  H   H998      1.0  0.55489  0.91747  0.32775  1.0000
  H   H999      1.0  0.79777  0.54423  0.59715  1.0000
  H   H1000     1.0  0.50314  0.64951  0.49182  1.0000
  H   H1001     1.0  0.66118  0.55320  0.34475  1.0000
  H   H1002     1.0  0.95748  0.50084  0.40930  1.0000
  C   C577      1.0  0.66101  0.52935  0.34152  1.0000
  S   S168      1.0  0.73546  0.51762  0.36659  1.0000
  H   H1003     1.0  0.91329  0.59091  0.34240  1.0000
  S   S169      1.0  0.97722  0.52723  0.33189  1.0000
  H   H1004     1.0  0.53423  0.84400  0.37389  1.0000
  C   C578      1.0  0.81065  0.49366  0.57690  1.0000
  H   H1005     1.0  0.52923  0.77711  0.37631  1.0000
  H   H1006     1.0  0.69780  0.53880  0.40328  1.0000
  C   C579      1.0  0.92642  0.60746  0.33363  1.0000
  H   H1007     1.0  0.51526  0.68899  0.57741  1.0000
  C   C580      1.0  0.54101  0.61723  0.49129  1.0000
  C   C581      1.0  0.55219  0.58839  0.49736  1.0000
  C   C582      1.0  0.53372  0.56978  0.50897  1.0000
  H   H1008     1.0  0.55521  0.63171  0.48229  1.0000
  H   H1009     1.0  0.54208  0.54757  0.51373  1.0000
  C   C583      1.0  0.70498  0.51353  0.60901  1.0000
  N   N42       1.0  0.78998  0.51880  0.56773  1.0000
  C   C584      1.0  0.94941  0.50314  0.33155  1.0000
  H   H1010     1.0  0.51881  0.88407  0.41421  1.0000
  C   C585      1.0  0.67532  0.51249  0.57491  1.0000
  C   C586      1.0  0.68525  0.52771  0.59332  1.0000
  C   C587      1.0  0.96321  0.50069  0.39085  1.0000
  C   C588      1.0  0.51658  0.85305  0.38584  1.0000
  H   H1011     1.0  0.66024  0.52372  0.56289  1.0000
  H   H1012     1.0  0.67774  0.55069  0.59535  1.0000
  H   H1013     1.0  0.73714  0.55921  0.57546  1.0000
  H   H1014     1.0  0.52596  0.81997  0.44930  1.0000
  C   C589      1.0  0.71554  0.49855  0.38779  1.0000
  H   H1015     1.0  0.52119  0.65652  0.54420  1.0000
  H   H1016     1.0  0.63760  0.52450  0.34147  1.0000
  H   H1017     1.0  0.72949  0.51336  0.53202  1.0000
  C   C590      1.0  0.74990  0.52352  0.53627  1.0000
  Fe  Fe85      1.0  0.75608  0.51843  0.65397  1.0000
  C   C591      1.0  0.53105  0.81118  0.41267  1.0000
  H   H1018     1.0  0.76876  0.58052  0.57021  1.0000
  C   C592      1.0  0.80713  0.53608  0.55048  1.0000
  H   H1019     1.0  0.91587  0.53715  0.34108  1.0000
  H   H1020     1.0  0.52568  0.89895  0.38686  1.0000
  C   C593      1.0  0.92064  0.51422  0.33709  1.0000
  H   H1021     1.0  0.55370  0.87376  0.39980  1.0000
  H   H1022     1.0  0.54711  0.84603  0.43355  1.0000
  H   H1023     1.0  0.94690  0.60801  0.34321  1.0000
  H   H1024     1.0  0.51647  0.69418  0.53480  1.0000
  H   H1025     1.0  0.76652  0.52414  0.60010  1.0000
  H   H1026     1.0  0.84437  0.56232  0.54515  1.0000
  H   H1027     1.0  0.67212  0.51769  0.35613  1.0000
  C   C594      1.0  0.51728  0.62487  0.58643  1.0000
  C   C595      1.0  0.51107  0.79145  0.36847  1.0000
  H   H1028     1.0  0.52001  0.80645  0.35536  1.0000
  C   C596      1.0  0.88550  0.52342  0.64401  1.0000
  H   H1029     1.0  0.76448  0.52244  0.52079  1.0000
  C   C597      1.0  0.94221  0.49846  0.63246  1.0000
  H   H1030     1.0  0.82840  0.50188  0.58702  1.0000
  S   S170      1.0  0.59497  0.50172  0.52725  1.0000
  H   H1031     1.0  0.52663  0.89321  0.33115  1.0000
  H   H1032     1.0  0.85205  0.53215  0.56460  1.0000
  H   H1033     1.0  0.96392  0.52355  0.38399  1.0000
  H   H1034     1.0  0.52508  0.78849  0.41723  1.0000
  C   C598      1.0  0.52957  0.87854  0.39760  1.0000
  N   N43       1.0  0.50570  0.82893  0.40109  1.0000
  C   C599      1.0  0.93851  0.52667  0.64140  1.0000
  H   H1035     1.0  0.52783  0.60737  0.57534  1.0000
  H   H1036     1.0  0.49764  0.67052  0.61226  1.0000
  H   H1037     1.0  0.51666  0.61625  0.60433  1.0000
  S   S171      1.0  0.58717  0.49583  0.47159  1.0000
  C   C600      1.0  0.83458  0.54933  0.55928  1.0000
  C   C601      1.0  0.88913  0.49528  0.63503  1.0000
  H   H1038     1.0  0.94476  0.49144  0.38229  1.0000
  S   S172      1.0  0.79867  0.53882  0.64725  1.0000
  C   C602      1.0  0.54206  0.82284  0.43501  1.0000
  C   C603      1.0  0.51462  0.97803  0.32707  1.0000
  H   H1039     1.0  0.52816  0.98284  0.36170  1.0000
  C   C604      1.0  0.53366  0.96755  0.34753  1.0000
  C   C605      1.0  0.76472  0.50590  0.55644  1.0000
  C   C606      1.0  0.91004  0.53936  0.64660  1.0000
  H   H1040     1.0  0.81466  0.52189  0.53594  1.0000
  H   H1041     1.0  0.74333  0.54681  0.53996  1.0000
  C   C607      1.0  0.50515  0.67633  0.54364  1.0000
  C   C608      1.0  0.49329  0.60877  0.50853  1.0000
  H   H1042     1.0  0.49751  0.77677  0.35926  1.0000
  H   H1043     1.0  0.55759  0.96802  0.34394  1.0000
  H   H1044     1.0  0.96409  0.48874  0.62807  1.0000
  H   H1045     1.0  0.86377  0.53309  0.64882  1.0000
  H   H1046     1.0  0.99115  0.62919  0.32869  1.0000
  H   H1047     1.0  0.90693  0.56135  0.65302  1.0000
  H   H1048     1.0  0.49243  0.85231  0.43220  1.0000
  Fe  Fe86      1.0  0.53214  0.94791  0.81239  1.0000
  H   H1049     1.0  0.79003  0.76137  0.91675  1.0000
  S   S173      1.0  0.51038  0.90878  0.80041  1.0000
  C   C609      1.0  0.92643  0.50046  0.79414  1.0000
  C   C610      1.0  0.85617  0.65054  0.69120  1.0000
  H   H1050     1.0  0.97227  0.64243  0.96711  1.0000
  H   H1051     1.0  0.94821  0.54762  0.77633  1.0000
  C   C611      1.0  0.97203  0.52306  0.74954  1.0000
  S   S174      1.0  0.52995  0.95838  0.84947  1.0000
  C   C612      1.0  0.50791  0.90788  0.77064  1.0000
  H   H1052     1.0  0.91941  0.51850  0.80579  1.0000
  H   H1053     1.0  0.86992  0.83592  0.93686  1.0000
  S   S175      1.0  0.90411  0.67311  0.79830  1.0000
  Fe  Fe87      1.0  0.93130  0.60911  0.83849  1.0000
  S   S176      1.0  0.89013  0.63820  0.84631  1.0000
  S   S177      1.0  0.94639  0.57042  0.86117  1.0000
  Fe  Fe88      1.0  0.88095  0.63346  0.80913  1.0000
  S   S178      1.0  0.83524  0.62588  0.79755  1.0000
  Fe  Fe89      1.0  0.91725  0.67501  0.83496  1.0000
  S   S179      1.0  0.91659  0.71978  0.85113  1.0000
  S   S180      1.0  0.92011  0.60146  0.80223  1.0000
  C   C613      1.0  0.63907  0.96660  0.90881  1.0000
  S   S181      1.0  0.75553  0.52772  0.69154  1.0000
  H   H1054     1.0  0.77965  0.58690  0.80163  1.0000
  Fe  Fe90      1.0  0.80017  0.54393  0.68511  1.0000
  S   S182      1.0  0.81811  0.58493  0.69732  1.0000
  H   H1055     1.0  0.53285  0.94062  0.72200  1.0000
  C   C614      1.0  0.95979  0.65908  0.97793  1.0000
  S   S183      1.0  0.79023  0.94501  0.95700  1.0000
  C   C615      1.0  0.93386  0.51287  0.86172  1.0000
  H   H1056     1.0  0.82200  0.54979  0.80785  1.0000
  H   H1057     1.0  0.83353  0.82940  0.96332  1.0000
  H   H1058     1.0  0.86897  0.77123  0.92501  1.0000
  H   H1059     1.0  0.85671  0.70725  0.96431  1.0000
  S   S184      1.0  0.92744  0.73403  0.95788  1.0000
  H   H1060     1.0  0.90904  0.49958  0.70485  1.0000
  H   H1061     1.0  0.87072  0.50011  0.75962  1.0000
  S   S185      1.0  0.92837  0.82372  0.96865  1.0000
  H   H1062     1.0  0.95776  0.68736  0.68218  1.0000
  C   C616      1.0  0.52036  0.92655  0.73283  1.0000
  N   N44       1.0  0.97983  0.51567  0.79264  1.0000
  C   C617      1.0  0.95365  0.66536  0.68957  1.0000
  C   C618      1.0  0.78068  0.52281  0.75166  1.0000
  C   C619      1.0  0.72313  0.93915  0.91457  1.0000
  C   C620      1.0  0.83071  0.61250  0.77014  1.0000
  C   C621      1.0  0.80287  0.61681  0.76031  1.0000
  C   C622      1.0  0.79838  0.60644  0.73852  1.0000
  C   C623      1.0  0.82151  0.59099  0.72658  1.0000
  C   C624      1.0  0.84909  0.58565  0.73674  1.0000
  C   C625      1.0  0.85379  0.59662  0.75839  1.0000
  H   H1063     1.0  0.78491  0.62903  0.76932  1.0000
  H   H1064     1.0  0.77726  0.61137  0.73059  1.0000
  H   H1065     1.0  0.86708  0.57386  0.72755  1.0000
  H   H1066     1.0  0.87522  0.59286  0.76598  1.0000
  C   C626      1.0  0.92150  0.72305  0.88070  1.0000
  C   C627      1.0  0.92920  0.75420  0.91283  1.0000
  C   C628      1.0  0.92696  0.73024  0.92800  1.0000
  C   C629      1.0  0.92247  0.70264  0.91943  1.0000
  C   C630      1.0  0.91994  0.69899  0.89587  1.0000
  H   H1067     1.0  0.92065  0.68399  0.93103  1.0000
  H   H1068     1.0  0.91634  0.67766  0.88943  1.0000
  Fe  Fe91      1.0  0.94433  0.64128  0.79404  1.0000
  H   H1069     1.0  0.75739  0.52700  0.74637  1.0000
  H   H1070     1.0  0.76846  0.55702  0.81879  1.0000
  H   H1071     1.0  0.97179  0.64974  0.68304  1.0000
  C   C631      1.0  0.78155  0.50630  0.77504  1.0000
  H   H1072     1.0  0.76088  0.96784  0.85513  1.0000
  C   C632      1.0  0.73131  0.97092  0.90995  1.0000
  C   C633      1.0  0.86444  0.81834  0.92546  1.0000
  C   C634      1.0  0.92336  0.54228  0.85747  1.0000
  C   C635      1.0  0.89530  0.54895  0.84856  1.0000
  C   C636      1.0  0.87775  0.52628  0.84396  1.0000
  H   H1073     1.0  0.53757  0.94145  0.76393  1.0000
  H   H1074     1.0  0.88710  0.78573  0.94743  1.0000
  H   H1075     1.0  0.88707  0.57161  0.84526  1.0000
  H   H1076     1.0  0.85602  0.53164  0.83726  1.0000
  H   H1077     1.0  0.75884  0.56067  0.78888  1.0000
  H   H1078     1.0  0.81397  0.55685  0.77915  1.0000
  H   H1079     1.0  0.78918  0.54468  0.75140  1.0000
  H   H1080     1.0  0.93285  0.77552  0.91920  1.0000
  C   C637      1.0  0.92615  0.75065  0.88928  1.0000
  H   H1081     1.0  0.86503  0.96559  0.97220  1.0000
  C   C638      1.0  0.70500  0.97931  0.87409  1.0000
  H   H1082     1.0  0.92749  0.76931  0.87760  1.0000
  H   H1083     1.0  0.82886  0.75351  0.91532  1.0000
  H   H1084     1.0  0.64145  0.94284  0.91062  1.0000
  S   S186      1.0  0.95947  0.64605  0.82972  1.0000
  C   C639      1.0  0.84920  0.72639  0.95311  1.0000
  H   H1085     1.0  0.81174  0.78862  0.90520  1.0000
  H   H1086     1.0  0.93696  0.66108  0.97147  1.0000
  H   H1087     1.0  0.90408  0.56707  0.69471  1.0000
  N   N45       1.0  0.91146  0.63110  0.69419  1.0000
  C   C640      1.0  0.93155  0.60433  0.68747  1.0000
  C   C641      1.0  0.92314  0.65743  0.68206  1.0000
  C   C642      1.0  0.88137  0.62694  0.68536  1.0000
  C   C643      1.0  0.91071  0.63328  0.71980  1.0000
  C   C644      1.0  0.92544  0.57473  0.69942  1.0000
  H   H1088     1.0  0.55278  0.98180  0.97640  1.0000
  C   C645      1.0  0.78718  0.95338  0.88377  1.0000
  C   C646      1.0  0.89949  0.66332  0.72999  1.0000
  C   C647      1.0  0.81266  0.91978  0.97381  1.0000
  H   H1089     1.0  0.95485  0.60709  0.69096  1.0000
  Fe  Fe92      1.0  0.93719  0.77502  0.97619  1.0000
  H   H1090     1.0  0.86786  0.75445  0.97669  1.0000
  S   S187      1.0  0.49720  0.90975  0.69337  1.0000
  C   C648      1.0  0.97072  0.53662  0.77328  1.0000
  H   H1091     1.0  0.89702  0.61663  0.72765  1.0000
  H   H1092     1.0  0.93309  0.62741  0.72656  1.0000
  C   C649      1.0  0.86598  0.78816  0.93816  1.0000
  H   H1093     1.0  0.95558  0.50768  0.86860  1.0000
  H   H1094     1.0  0.98322  0.61666  0.71925  1.0000
  S   S188      1.0  0.82542  0.50031  0.69157  1.0000
  S   S189      1.0  0.97071  0.64541  0.76110  1.0000
  C   C650      1.0  0.52320  0.92685  0.75655  1.0000
  H   H1095     1.0  0.78585  0.94277  0.90099  1.0000
  H   H1096     1.0  0.63833  0.91574  0.97529  1.0000
  H   H1097     1.0  0.75895  0.50954  0.78287  1.0000
  H   H1098     1.0  0.88244  0.65985  0.74350  1.0000
  H   H1099     1.0  0.88963  0.68006  0.71786  1.0000
  H   H1100     1.0  0.91762  0.67288  0.73869  1.0000
  N   N46       1.0  0.84052  0.78334  0.95443  1.0000
  C   C651      1.0  0.83918  0.80744  0.97164  1.0000
  H   H1101     1.0  0.83601  0.64533  0.68243  1.0000
  H   H1102     1.0  0.93124  0.60125  0.66870  1.0000
  C   C652      1.0  0.81126  0.78465  0.94272  1.0000
  H   H1103     1.0  0.95884  0.50390  0.74874  1.0000
  H   H1104     1.0  0.87362  0.60600  0.69206  1.0000
  H   H1105     1.0  0.96329  0.53995  0.73687  1.0000
  C   C653      1.0  0.81124  0.77118  0.91879  1.0000
  H   H1106     1.0  0.80215  0.80802  0.94035  1.0000
  Fe  Fe93      1.0  0.57538  0.97342  0.84399  1.0000
  H   H1107     1.0  0.70095  0.93599  0.90823  1.0000
  H   H1108     1.0  0.58736  0.94103  0.97422  1.0000
  H   H1109     1.0  0.90786  0.67753  0.68375  1.0000
  H   H1110     1.0  0.88124  0.81746  0.91133  1.0000
  H   H1111     1.0  0.79480  0.77384  0.95368  1.0000
  C   C654      1.0  0.85129  0.51495  0.76507  1.0000
  C   C655      1.0  0.77621  0.56310  0.80138  1.0000
  C   C656      1.0  0.80570  0.54580  0.79471  1.0000
  H   H1112     1.0  0.92674  0.57550  0.71821  1.0000
  H   H1113     1.0  0.80130  0.93786  0.87305  1.0000
  H   H1114     1.0  0.85043  0.64996  0.70970  1.0000
  H   H1115     1.0  0.84263  0.82446  0.91792  1.0000
  H   H1116     1.0  0.61482  0.95945  0.95900  1.0000
  H   H1117     1.0  0.82739  0.72199  0.94667  1.0000
  H   H1118     1.0  0.98646  0.57880  0.80971  1.0000
  H   H1119     1.0  0.81218  0.50579  0.82781  1.0000
  C   C657      1.0  0.83483  0.49963  0.78469  1.0000
  C   C658      1.0  0.50151  0.90807  0.72309  1.0000
  H   H1120     1.0  0.96973  0.67999  0.97443  1.0000
  H   H1121     1.0  0.94275  0.55752  0.69381  1.0000
  H   H1122     1.0  0.89679  0.98425  0.96950  1.0000
  H   H1123     1.0  0.86065  0.67297  0.68526  1.0000
  H   H1124     1.0  0.86562  0.72685  0.93891  1.0000
  H   H1125     1.0  0.72249  0.93459  0.93324  1.0000
  S   S190      1.0  0.61005  0.95745  0.86989  1.0000
  H   H1126     1.0  0.87606  0.87365  0.96995  1.0000
  H   H1127     1.0  0.84457  0.90993  0.94667  1.0000
  H   H1128     1.0  0.88235  0.62505  0.66645  1.0000
  H   H1129     1.0  0.74793  0.93759  0.87052  1.0000
  C   C659      1.0  0.88864  0.49686  0.84738  1.0000
  H   H1130     1.0  0.91967  0.50715  0.77662  1.0000
  H   H1131     1.0  0.95479  0.54304  0.81685  1.0000
  S   S191      1.0  0.70573  0.96766  0.97416  1.0000
  H   H1132     1.0  0.92480  0.65398  0.66332  1.0000
  N   N47       1.0  0.73445  0.98002  0.88517  1.0000
  C   C660      1.0  0.83843  0.90532  0.96426  1.0000
  H   H1133     1.0  0.79878  0.97361  0.88466  1.0000
  N   N48       1.0  0.80458  0.51325  0.79162  1.0000
  H   H1134     1.0  0.79268  0.50924  0.73842  1.0000
  C   C661      1.0  0.85628  0.88477  0.97739  1.0000
  H   H1135     1.0  0.83790  0.51998  0.74984  1.0000
  H   H1136     1.0  0.98067  0.51766  0.82969  1.0000
  H   H1137     1.0  0.84986  0.49889  0.79937  1.0000
  H   H1138     1.0  0.75181  0.97372  0.91927  1.0000
  H   H1139     1.0  0.85992  0.53533  0.77094  1.0000
  H   H1140     1.0  0.66477  0.97292  0.93823  1.0000
  Fe  Fe94      1.0  0.97213  0.82768  0.98506  1.0000
  H   H1141     1.0  0.92671  0.48639  0.67902  1.0000
  C   C662      1.0  0.62327  0.98002  0.89049  1.0000
  C   C663      1.0  0.79673  0.49987  0.81462  1.0000
  H   H1142     1.0  0.82944  0.75090  0.98036  1.0000
  H   H1143     1.0  0.73964  0.92247  0.90729  1.0000
  C   C664      1.0  0.60648  0.95423  0.97650  1.0000
  H   H1144     1.0  0.58251  0.97003  0.71143  1.0000
  Fe  Fe95      1.0  0.75418  0.97291  0.97565  1.0000
  C   C665      1.0  0.95985  0.49103  0.79500  1.0000
  C   C666      1.0  0.84693  0.75440  0.96724  1.0000
  S   S192      1.0  0.57912  0.95870  0.80751  1.0000
  H   H1145     1.0  0.77441  0.50870  0.82062  1.0000
  H   H1146     1.0  0.95516  0.66670  0.70832  1.0000
  C   C667      1.0  0.75667  0.95932  0.87277  1.0000
  C   C668      1.0  0.87801  0.98071  0.98152  1.0000
  H   H1147     1.0  0.69936  0.95624  0.87236  1.0000
  H   H1148     1.0  0.86119  0.80867  0.97929  1.0000
  C   C669      1.0  0.97750  0.53248  0.81438  1.0000
  C   C670      1.0  0.91674  0.49012  0.85623  1.0000
  H   H1149     1.0  0.54149  0.97186  0.68677  1.0000
  C   C671      1.0  0.63102  0.93329  0.98744  1.0000
  H   H1150     1.0  0.98504  0.55499  0.77215  1.0000
  C   C672      1.0  0.65237  0.98364  0.92447  1.0000
  H   H1151     1.0  0.79448  0.80073  0.98585  1.0000
  Fe  Fe96      1.0  0.82042  0.49373  0.65424  1.0000
  H   H1152     1.0  0.71888  0.98438  0.83788  1.0000
