data_image0
_chemical_formula_structural       NCNSCSCH3SC3SHSHCHCFeSCH2CHC2HCHCH2C6H4FeH4C2HCHCH2CHC2H4CH6CH4NH3CH2CHS2CH3CH13CH6CHCHCFeNH4C3H2CHNCHCHC2HFeH3CHCHNCH2CHSHCHCH3S2C2H3FeH7CHCH2CH2CFeSNCSFeNHCSCHC2HCHS2HFeH2S2CSC6H5FeH7C8HCH3CHCSHCHCH6SCH2CHCHFeH4C2SHC2H4CFeSH2CH2CH2FeCSH5C4SNC2HCH3CHC2H4CH7CHC3H5FeHS2HCHFeHCHCSH3CSHCHCH10SC4H4FeHC3H7SCS2FeS2CH2FeSH2FeSH2FeSFeS2H2CSHFeCH4CH2CHC6H4FeCHC2SC6H4CHCHFeH4CH3C2H4FeSCSHC2H2CSCH3SH3NCHCSH2SC2H2C2H3CHCNHFeCH2C2H3CH3CHCHCHCSFeC2HC2NC6H5FeH3CH6NC3SHCH7SC2H2CHCH3CHCHCH3CHSCH5CSHSH3FeS2H2FeSHSHCFeS2FeSCHSHC3FeSHSHC3HCFeH2SC2H2C4FeH4CHCH7C7H5C2H3CNHCHCH3CNH2SC3H4C2HCFeH2CHSH2CHCH2C2H3CH2CHCSNH2C2HSH3CH2C2HNCHCHCH7SH3FeCH3CH2CH2CHCHCH3CHCHFeC2HSC2NHSCHFeH3C2H7CH2SH3CFeH4S2NHC2SFeS2FeSHFeSFeS3CH2C6H2C6H3CHFeS2CH2CNH3C6H7CHNC5H2CH12CH3CHCHNC8H20C2HCHSCH2CSCH3NH2CHSH4FeH2CHFeHCHSCH4SHSCH3CHCH10SC2H3C2H3FeC4H7CHCHSHSH3FeHCHFeSHSFeSFeS2CHCH2SHFeSFeCHFeHSFeS2FeSH2S2FeS2FeS2FeSFeS4H4CH2SC2H6CHC6H6C3HC2SH3C6H5CH2C2HCH2C7H4C2H4C4H3CHCHC2FeCH4CNH3SH5CNC4HCH2FeH7CH4SHCHCHC2H2CH15NCH5CH3NC8H8CH4NCHCHCHCHCHC3SH3SHC3H4CHS2H7CNCH2C2HCHC2FeCHCH2FeH3CHCHFeCH4FeCH2CH6NHFeHFeSFeHS2CS2C2H2CS2CFe2SCHC4SFeS2FeS2FeSFeS3HCHC4FeCH4C6H4CH2CHCH4C6H4FeC6H5CSCH3CFeSCSHC2NC4SC3H8SH13FeH4NH5C2HCNH2CH7CH2CSH2NC8H21C2HSH2CHCH5FeC2HSH6SHCNCH2C2H4C2HC2HC2H2SHC4H2SHCHSCFeSHFeS2FeSFeS5H2C3H3C4H3C6H4C2H2SH3C6H4NH2CH3CH2CHC2HCFeCHSH3C4H4NH2CHNHCHCH2CH4CHCHCH2SHCH2CH2CH2C2H7CH6CHCH4CH2CHNC3H3CH5CH3SH6C2HCH2SH2CFeH3C3SHSCH2CHFeSFeS3HFeHSCHSFeCSC2H4SHC3NHFeHCHCH2SHC6H5C3HC2H3C2SH13CFeH3C2H2NH7FeHCH2CH3C2H2C3HC2H5FeCSC2H3SH12CHCSHCNHCHCH8C2HSC3SCHCH2FeCSH4CH3CSNH2C3H2SCHCHFeCHC2NC2HSCHSHC3H10FeH4CSCFeH2C2HFeCHCHSH2SH3CSHCS2HSCHSFeHSHSH2S2C6H4C2H2CH2C3H4C2FeCHSH2C4H3C2HCSC7H4NCH2CHSH2C2HFeH2C2H7C3HCH3SH2C2H2NHNCH3SC4H2FeC2FeH2CH4CH2C2HNH2NHSHCHCH7C2HFeH2NHC2H2CH2NC2HCHCH4SH6FeCHC2H2CHC2HCH14C2H3CHCH2CHNSHCFeHFeSHCHSCH2SCHSH3CFeSCHCSHCH4SC7H4C6H10SCH2CFeHSH2C4NCHSHCHCHC3FeH2CHCNC8H21CSH3SC2H2CHCH6NHC2HCHFeSCH2CH2CH3SH4CHCH3FeCHC2FeCH2CH6CH2CNHSC3H3CHSCH4CSH2CH6C2HSCNCHCHCH2CHSHC6H3SC6H4SHCH9C2HCH2CH2CNH2SH5CH4C2FeHSHCSH3FeH2CHSHSH2C2HFeH8CH2CSHCSH3CH3FeCH2CFeSHCH2CHCHNCHSNHSHCHFeCHC2H
_chemical_formula_sum              "N60 C840 S240 H1440 Fe120"
_cell_length_a       57.5717
_cell_length_b       57.999
_cell_length_c       54.8813
_cell_angle_alpha    78.7463
_cell_angle_beta     82.5005
_cell_angle_gamma    81.0679

_space_group_name_H-M_alt    "P 1"
_space_group_IT_number       1

loop_
  _space_group_symop_operation_xyz
  'x, y, z'

loop_
  _atom_site_type_symbol
  _atom_site_label
  _atom_site_symmetry_multiplicity
  _atom_site_fract_x
  _atom_site_fract_y
  _atom_site_fract_z
  _atom_site_occupancy
  N   N1        1.0  0.28359  0.02749  0.39866  1.0000
  C   C1        1.0  0.09747  0.27060  0.43079  1.0000
  N   N2        1.0  0.08325  0.25957  0.41600  1.0000
  S   S1        1.0  0.03664  0.33060  0.39844  1.0000
  C   C2        1.0  0.27180  0.04860  0.38196  1.0000
  S   S2        1.0  0.26228  0.38196  0.01470  1.0000
  C   C3        1.0  0.17599  0.00356  0.42729  1.0000
  H   H1        1.0  0.06909  0.37662  0.32869  1.0000
  H   H2        1.0  0.22673  0.36443  0.98737  1.0000
  H   H3        1.0  0.27758  0.04348  0.43180  1.0000
  S   S3        1.0  0.13317  0.47252  0.07618  1.0000
  C   C4        1.0  0.25779  0.47114  0.07289  1.0000
  C   C5        1.0  0.06864  0.41455  0.32247  1.0000
  C   C6        1.0  0.06908  0.26653  0.37191  1.0000
  S   S4        1.0  0.20031  0.44952  0.08331  1.0000
  H   H4        1.0  0.13274  0.27687  0.43533  1.0000
  S   S5        1.0  0.01691  0.30337  0.34753  1.0000
  H   H5        1.0  0.18182  0.07545  0.44379  1.0000
  C   C7        1.0  0.03010  0.39247  0.35679  1.0000
  H   H6        1.0  0.27070  0.41979  0.07160  1.0000
  C   C8        1.0  0.30809  0.01720  0.43645  1.0000
  Fe  Fe1       1.0  0.07993  0.14681  0.45850  1.0000
  S   S6        1.0  0.08063  0.15144  0.41681  1.0000
  C   C9        1.0  0.03653  0.21290  0.39774  1.0000
  H   H7        1.0  0.27254  0.44778  0.03481  1.0000
  H   H8        1.0  0.12734  0.28138  0.40344  1.0000
  C   C10       1.0  0.02476  0.36871  0.32620  1.0000
  H   H9        1.0  0.04838  0.24858  0.42065  1.0000
  C   C11       1.0  0.06413  0.17630  0.40020  1.0000
  C   C12       1.0  0.04970  0.19361  0.41198  1.0000
  H   H10       1.0  0.26099  0.48051  0.00931  1.0000
  C   C13       1.0  0.06536  0.17845  0.37428  1.0000
  H   H11       1.0  0.04847  0.19203  0.43197  1.0000
  C   C14       1.0  0.25031  0.06311  0.39448  1.0000
  H   H12       1.0  0.07639  0.16515  0.36505  1.0000
  H   H13       1.0  0.08664  0.41418  0.31225  1.0000
  C   C15       1.0  0.24531  0.40148  0.03308  1.0000
  C   C16       1.0  0.23648  0.39226  0.05740  1.0000
  C   C17       1.0  0.22247  0.40713  0.07244  1.0000
  C   C18       1.0  0.21614  0.43116  0.06294  1.0000
  C   C19       1.0  0.22418  0.44032  0.03819  1.0000
  C   C20       1.0  0.23919  0.42557  0.02345  1.0000
  H   H14       1.0  0.24093  0.37361  0.06486  1.0000
  H   H15       1.0  0.21643  0.39994  0.09153  1.0000
  H   H16       1.0  0.21951  0.45891  0.03074  1.0000
  H   H17       1.0  0.24574  0.43272  0.00454  1.0000
  Fe  Fe2       1.0  0.29373  0.39452  0.98945  1.0000
  H   H18       1.0  0.05821  0.43141  0.31449  1.0000
  H   H19       1.0  0.03703  0.42238  0.28020  1.0000
  H   H20       1.0  0.05484  0.34997  0.30556  1.0000
  H   H21       1.0  0.29682  0.42652  0.08212  1.0000
  C   C21       1.0  0.05204  0.19741  0.36019  1.0000
  C   C22       1.0  0.03451  0.35668  0.43496  1.0000
  H   H22       1.0  0.06992  0.27923  0.35394  1.0000
  C   C23       1.0  0.01912  0.41836  0.28817  1.0000
  H   H23       1.0  0.09642  0.26210  0.45079  1.0000
  C   C24       1.0  0.06937  0.47530  0.15563  1.0000
  H   H24       1.0  0.05270  0.19850  0.34020  1.0000
  H   H25       1.0  0.07839  0.29303  0.39022  1.0000
  C   C25       1.0  0.01865  0.31940  0.44786  1.0000
  H   H26       1.0  0.07079  0.41442  0.34230  1.0000
  C   C26       1.0  0.99644  0.16434  0.37785  1.0000
  C   C27       1.0  0.03754  0.21462  0.37182  1.0000
  H   H27       1.0  0.20654  0.39430  0.01110  1.0000
  H   H28       1.0  0.08008  0.20979  0.44727  1.0000
  H   H29       1.0  0.01472  0.30312  0.44353  1.0000
  H   H30       1.0  0.24392  0.46813  0.06210  1.0000
  C   C28       1.0  0.05765  0.26142  0.42693  1.0000
  H   H31       1.0  0.11011  0.23306  0.40186  1.0000
  H   H32       1.0  0.10248  0.27257  0.38039  1.0000
  H   H33       1.0  0.04286  0.37819  0.36641  1.0000
  H   H34       1.0  0.14662  0.43039  0.99775  1.0000
  H   H35       1.0  0.23796  0.01931  0.38523  1.0000
  H   H36       1.0  0.10415  0.22435  0.45263  1.0000
  C   C29       1.0  0.08414  0.27381  0.38979  1.0000
  H   H37       1.0  0.00664  0.43446  0.28191  1.0000
  H   H38       1.0  0.02662  0.34283  0.30187  1.0000
  H   H39       1.0  0.29809  0.46144  0.09152  1.0000
  H   H40       1.0  0.08141  0.22629  0.40464  1.0000
  N   N3        1.0  0.14084  0.00005  0.46199  1.0000
  H   H41       1.0  0.00528  0.37051  0.32605  1.0000
  H   H42       1.0  0.01420  0.40398  0.28015  1.0000
  H   H43       1.0  0.23993  0.05227  0.40957  1.0000
  C   C30       1.0  0.01644  0.41290  0.31690  1.0000
  H   H44       1.0  0.02480  0.22576  0.40688  1.0000
  H   H45       1.0  0.01894  0.42933  0.32330  1.0000
  C   C31       1.0  0.09674  0.21680  0.43885  1.0000
  H   H46       1.0  0.30292  0.05114  0.41185  1.0000
  S   S7        1.0  0.99787  0.27855  0.40427  1.0000
  S   S8        1.0  0.01903  0.23617  0.35349  1.0000
  C   C32       1.0  0.16032  0.41621  0.00550  1.0000
  H   H47       1.0  0.31146  0.99839  0.39465  1.0000
  H   H48       1.0  0.13288  0.25154  0.42138  1.0000
  H   H49       1.0  0.03541  0.37015  0.28540  1.0000
  C   C33       1.0  0.16674  0.42237  0.02969  1.0000
  H   H50       1.0  0.29681  0.00926  0.36761  1.0000
  H   H51       1.0  0.28449  0.06148  0.37420  1.0000
  H   H52       1.0  0.99746  0.19634  0.39082  1.0000
  H   H53       1.0  0.18703  0.37571  0.00616  1.0000
  H   H54       1.0  0.06193  0.24107  0.46506  1.0000
  H   H55       1.0  0.24071  0.98962  0.40200  1.0000
  H   H56       1.0  0.23779  0.07128  0.38045  1.0000
  H   H57       1.0  0.18849  0.99412  0.44078  1.0000
  H   H58       1.0  0.14957  0.09836  0.46764  1.0000
  H   H59       1.0  0.25857  0.45595  0.08882  1.0000
  H   H60       1.0  0.26667  0.04362  0.36498  1.0000
  H   H61       1.0  0.07435  0.45674  0.16306  1.0000
  H   H62       1.0  0.08993  0.28952  0.43088  1.0000
  C   C34       1.0  0.05799  0.39259  0.31936  1.0000
  H   H63       1.0  0.04293  0.36928  0.42068  1.0000
  H   H64       1.0  0.17869  0.40785  0.03983  1.0000
  H   H65       1.0  0.15030  0.42523  0.04242  1.0000
  H   H66       1.0  0.17466  0.43904  0.02614  1.0000
  H   H67       1.0  0.02877  0.35449  0.34255  1.0000
  H   H68       1.0  0.03334  0.25725  0.46080  1.0000
  C   C35       1.0  0.30347  0.01499  0.38330  1.0000
  H   H69       1.0  0.26164  0.99723  0.37585  1.0000
  C   C36       1.0  0.28650  0.44896  0.04640  1.0000
  H   H70       1.0  0.15104  0.40024  0.01135  1.0000
  C   C37       1.0  0.19699  0.39039  0.99634  1.0000
  Fe  Fe3       1.0  0.00963  0.31320  0.38541  1.0000
  N   N4        1.0  0.18066  0.41203  0.98594  1.0000
  H   H71       1.0  0.06100  0.39177  0.29912  1.0000
  H   H72       1.0  0.05017  0.26705  0.37920  1.0000
  H   H73       1.0  0.25599  0.07732  0.40238  1.0000
  H   H74       1.0  0.10656  0.01938  0.45405  1.0000
  C   C38       1.0  0.19460  0.43275  0.97911  1.0000
  C   C39       1.0  0.05255  0.25782  0.45560  1.0000
  C   C40       1.0  0.12407  0.26988  0.42186  1.0000
  H   H75       1.0  0.14111  0.02322  0.42567  1.0000
  H   H76       1.0  0.27609  0.99303  0.41899  1.0000
  C   C41       1.0  0.26651  0.01007  0.41008  1.0000
  H   H77       1.0  0.18520  0.01742  0.41450  1.0000
  N   N5        1.0  0.28119  0.47148  0.05706  1.0000
  C   C42       1.0  0.11788  0.01450  0.46977  1.0000
  H   H78       1.0  0.29984  0.41148  0.05662  1.0000
  C   C43       1.0  0.02823  0.36176  0.45903  1.0000
  H   H79       1.0  0.04809  0.27928  0.42008  1.0000
  C   C44       1.0  0.28839  0.42551  0.06546  1.0000
  C   C45       1.0  0.02935  0.33576  0.42917  1.0000
  H   H80       1.0  0.07591  0.24871  0.36743  1.0000
  Fe  Fe4       1.0  0.00192  0.27013  0.36571  1.0000
  H   H81       1.0  0.25450  0.01621  0.42578  1.0000
  H   H82       1.0  0.10185  0.47838  0.13119  1.0000
  H   H83       1.0  0.16378  0.37191  0.97919  1.0000
  C   C46       1.0  0.01332  0.32403  0.47238  1.0000
  H   H84       1.0  0.31225  0.02515  0.45194  1.0000
  C   C47       1.0  0.03618  0.35767  0.30331  1.0000
  H   H85       1.0  0.11012  0.20158  0.43504  1.0000
  N   N6        1.0  0.03235  0.39181  0.32918  1.0000
  C   C48       1.0  0.09317  0.23423  0.41422  1.0000
  H   H86       1.0  0.03454  0.40947  0.36021  1.0000
  H   H87       1.0  0.30254  0.44880  0.03286  1.0000
  C   C49       1.0  0.15322  0.01555  0.44035  1.0000
  H   H88       1.0  0.99709  0.19251  0.43093  1.0000
  S   S9        1.0  0.11542  0.46836  0.01127  1.0000
  H   H89       1.0  0.20366  0.43457  0.99508  1.0000
  C   C50       1.0  0.17766  0.06938  0.46359  1.0000
  H   H90       1.0  0.29891  0.00171  0.44504  1.0000
  C   C51       1.0  0.29993  0.47342  0.07309  1.0000
  H   H91       1.0  0.12561  0.05153  0.46253  1.0000
  H   H92       1.0  0.31814  0.04433  0.35678  1.0000
  H   H93       1.0  0.15852  0.03099  0.44653  1.0000
  S   S10       1.0  0.02912  0.47134  0.18817  1.0000
  S   S11       1.0  0.21273  0.03211  0.45834  1.0000
  C   C52       1.0  0.25099  0.00394  0.39196  1.0000
  C   C53       1.0  0.29263  0.03609  0.41938  1.0000
  H   H94       1.0  0.16589  0.46221  0.98392  1.0000
  H   H95       1.0  0.00411  0.16072  0.43447  1.0000
  H   H96       1.0  0.99755  0.41076  0.32263  1.0000
  Fe  Fe5       1.0  0.17154  0.47773  0.06841  1.0000
  H   H97       1.0  0.01412  0.16682  0.36767  1.0000
  H   H98       1.0  0.99925  0.15076  0.39483  1.0000
  H   H99       1.0  0.05692  0.27299  0.46296  1.0000
  H   H100      1.0  0.12572  0.98464  0.43580  1.0000
  H   H101      1.0  0.17208  0.99126  0.41568  1.0000
  H   H102      1.0  0.03166  0.37835  0.46316  1.0000
  H   H103      1.0  0.00630  0.38929  0.39113  1.0000
  C   C54       1.0  0.00535  0.38987  0.37092  1.0000
  H   H104      1.0  0.99913  0.37316  0.36934  1.0000
  C   C55       1.0  0.32388  0.02926  0.37148  1.0000
  H   H105      1.0  0.01549  0.21681  0.47245  1.0000
  H   H106      1.0  0.32520  0.01099  0.42638  1.0000
  C   C56       1.0  0.21619  0.38035  0.97741  1.0000
  H   H107      1.0  0.00553  0.31121  0.48689  1.0000
  H   H108      1.0  0.04426  0.27180  0.67628  1.0000
  C   C57       1.0  0.17369  0.38498  0.82648  1.0000
  Fe  Fe6       1.0  0.05148  0.13442  0.50837  1.0000
  S   S12       1.0  0.30190  0.42790  0.89795  1.0000
  N   N7        1.0  0.01343  0.29421  0.66244  1.0000
  C   C58       1.0  0.02245  0.31500  0.64470  1.0000
  S   S13       1.0  0.00832  0.35404  0.50698  1.0000
  Fe  Fe7       1.0  0.02232  0.46039  0.74377  1.0000
  N   N8        1.0  0.22763  0.03543  0.57990  1.0000
  H   H109      1.0  0.05848  0.30283  0.68648  1.0000
  C   C59       1.0  0.23779  0.05144  0.53299  1.0000
  S   S14       1.0  0.02144  0.41526  0.67097  1.0000
  C   C60       1.0  0.29103  0.99305  0.55329  1.0000
  H   H110      1.0  0.20384  0.05378  0.60616  1.0000
  C   C61       1.0  0.00038  0.21989  0.48678  1.0000
  C   C62       1.0  0.99627  0.47452  0.59421  1.0000
  H   H111      1.0  0.04617  0.29950  0.61542  1.0000
  C   C63       1.0  0.14544  0.98498  0.50946  1.0000
  H   H112      1.0  0.18431  0.01348  0.60177  1.0000
  S   S15       1.0  0.08649  0.20977  0.50415  1.0000
  S   S16       1.0  0.08006  0.14003  0.52986  1.0000
  H   H113      1.0  0.06034  0.30001  0.64287  1.0000
  Fe  Fe8       1.0  0.99342  0.32910  0.53991  1.0000
  H   H114      1.0  0.16444  0.38789  0.84477  1.0000
  H   H115      1.0  0.17751  0.41850  0.85214  1.0000
  S   S17       1.0  0.02394  0.25168  0.59305  1.0000
  S   S18       1.0  0.19092  0.44385  0.89339  1.0000
  C   C64       1.0  0.01179  0.17331  0.56199  1.0000
  S   S19       1.0  0.04349  0.46127  0.77627  1.0000
  C   C65       1.0  0.06887  0.22093  0.52900  1.0000
  C   C66       1.0  0.06367  0.20618  0.55185  1.0000
  C   C67       1.0  0.05058  0.21588  0.57181  1.0000
  C   C68       1.0  0.04181  0.24010  0.56861  1.0000
  C   C69       1.0  0.04670  0.25473  0.54563  1.0000
  C   C70       1.0  0.06054  0.24523  0.52602  1.0000
  H   H116      1.0  0.07030  0.18746  0.55435  1.0000
  H   H117      1.0  0.04691  0.20452  0.58960  1.0000
  H   H118      1.0  0.04028  0.27349  0.54312  1.0000
  H   H119      1.0  0.17768  0.04558  0.57412  1.0000
  H   H120      1.0  0.02634  0.17009  0.54719  1.0000
  Fe  Fe9       1.0  0.00870  0.43830  0.70092  1.0000
  H   H121      1.0  0.27278  0.45676  0.86171  1.0000
  H   H122      1.0  0.06393  0.46534  0.81985  1.0000
  H   H123      1.0  0.20902  0.42979  0.96407  1.0000
  H   H124      1.0  0.02219  0.47264  0.83833  1.0000
  H   H125      1.0  0.03272  0.38965  0.63011  1.0000
  H   H126      1.0  0.03007  0.31996  0.69276  1.0000
  H   H127      1.0  0.22075  0.41276  0.92721  1.0000
  C   C71       1.0  0.00693  0.47937  0.63579  1.0000
  C   C72       1.0  0.00124  0.25331  0.66072  1.0000
  C   C73       1.0  0.22184  0.43970  0.89425  1.0000
  C   C74       1.0  0.23663  0.45214  0.87574  1.0000
  C   C75       1.0  0.26129  0.44777  0.87648  1.0000
  C   C76       1.0  0.27115  0.43192  0.89637  1.0000
  C   C77       1.0  0.25634  0.41969  0.91497  1.0000
  C   C78       1.0  0.23186  0.42309  0.91347  1.0000
  H   H128      1.0  0.99797  0.43823  0.58807  1.0000
  C   C79       1.0  0.15701  0.99244  0.48251  1.0000
  H   H129      1.0  0.26384  0.40714  0.93018  1.0000
  H   H130      1.0  0.19225  0.37690  0.82881  1.0000
  H   H131      1.0  0.13900  0.42403  0.85951  1.0000
  C   C80       1.0  0.06880  0.47417  0.77966  1.0000
  H   H132      1.0  0.00009  0.23799  0.49068  1.0000
  C   C81       1.0  0.00182  0.37408  0.62663  1.0000
  S   S20       1.0  0.01642  0.12670  0.52893  1.0000
  H   H133      1.0  0.21095  0.02939  0.54871  1.0000
  C   C82       1.0  0.00375  0.20079  0.51036  1.0000
  H   H134      1.0  0.19907  0.44335  0.78665  1.0000
  C   C83       1.0  0.99476  0.12530  0.50980  1.0000
  H   H135      1.0  0.17851  0.46645  0.79711  1.0000
  H   H136      1.0  0.15848  0.40640  0.79399  1.0000
  H   H137      1.0  0.25593  0.05755  0.57220  1.0000
  H   H138      1.0  0.16522  0.37120  0.82074  1.0000
  H   H139      1.0  0.12996  0.45928  0.96180  1.0000
  H   H140      1.0  0.19265  0.47091  0.96720  1.0000
  S   S21       1.0  0.07541  0.11200  0.48399  1.0000
  C   C84       1.0  0.21070  0.42435  0.83099  1.0000
  H   H141      1.0  0.10701  0.00435  0.48498  1.0000
  H   H142      1.0  0.18448  0.40809  0.94680  1.0000
  C   C85       1.0  0.16665  0.05380  0.51458  1.0000
  H   H143      1.0  0.21745  0.07298  0.58129  1.0000
  C   C86       1.0  0.04702  0.30968  0.63038  1.0000
  H   H144      1.0  0.13425  0.44114  0.80340  1.0000
  Fe  Fe10      1.0  0.10461  0.11986  0.50334  1.0000
  H   H145      1.0  0.13782  0.39277  0.97239  1.0000
  H   H146      1.0  0.04002  0.46821  0.61301  1.0000
  H   H147      1.0  0.18972  0.40450  0.79306  1.0000
  H   H148      1.0  0.14285  0.45858  0.82308  1.0000
  C   C87       1.0  0.17074  0.40882  0.96292  1.0000
  C   C88       1.0  0.20043  0.00247  0.59498  1.0000
  S   S22       1.0  0.13148  0.09021  0.52059  1.0000
  H   H149      1.0  0.01220  0.47736  0.58066  1.0000
  C   C89       1.0  0.15389  0.07460  0.50262  1.0000
  C   C90       1.0  0.00422  0.39882  0.65761  1.0000
  H   H150      1.0  0.12866  0.40828  0.83803  1.0000
  H   H151      1.0  0.17437  0.07499  0.58026  1.0000
  H   H152      1.0  0.15795  0.38163  0.94780  1.0000
  H   H153      1.0  0.23311  0.04951  0.51453  1.0000
  C   C91       1.0  0.18361  0.43075  0.83525  1.0000
  Fe  Fe11      1.0  0.08408  0.17223  0.50040  1.0000
  S   S23       1.0  0.00645  0.42727  0.74288  1.0000
  H   H154      1.0  0.19449  0.02492  0.51065  1.0000
  H   H155      1.0  0.00348  0.28284  0.63031  1.0000
  C   C92       1.0  0.22854  0.03164  0.55333  1.0000
  H   H156      1.0  0.06483  0.25677  0.50854  1.0000
  H   H157      1.0  0.00985  0.32239  0.63048  1.0000
  C   C93       1.0  0.01752  0.34558  0.47779  1.0000
  H   H158      1.0  0.18011  0.44839  0.84107  1.0000
  H   H159      1.0  0.27277  0.04836  0.61047  1.0000
  Fe  Fe12      1.0  0.31254  0.41346  0.93676  1.0000
  C   C94       1.0  0.16839  0.45215  0.76715  1.0000
  S   S24       1.0  0.00950  0.32165  0.57632  1.0000
  H   H160      1.0  0.11289  0.43550  0.84481  1.0000
  H   H161      1.0  0.03102  0.26824  0.64003  1.0000
  H   H162      1.0  0.16921  0.43531  0.76019  1.0000
  H   H163      1.0  0.21604  0.40924  0.82096  1.0000
  H   H164      1.0  0.00130  0.46205  0.64493  1.0000
  C   C95       1.0  0.18488  0.04090  0.50121  1.0000
  C   C96       1.0  0.30833  0.00436  0.56049  1.0000
  C   C97       1.0  0.13097  0.42581  0.84184  1.0000
  C   C98       1.0  0.22295  0.01273  0.59745  1.0000
  S   S25       1.0  0.11130  0.15286  0.47564  1.0000
  N   N9        1.0  0.17024  0.43100  0.81329  1.0000
  C   C99       1.0  0.17291  0.40710  0.80543  1.0000
  C   C100      1.0  0.14456  0.44014  0.81943  1.0000
  H   H165      1.0  0.16210  0.04747  0.53422  1.0000
  C   C101      1.0  0.17991  0.44864  0.79175  1.0000
  H   H166      1.0  0.00435  0.18312  0.50505  1.0000
  H   H167      1.0  0.01934  0.11787  0.47830  1.0000
  H   H168      1.0  0.02199  0.20091  0.51508  1.0000
  C   C102      1.0  0.25179  0.04035  0.58372  1.0000
  H   H169      1.0  0.23807  0.99850  0.59520  1.0000
  C   C103      1.0  0.12031  0.03770  0.47844  1.0000
  C   C104      1.0  0.00091  0.12083  0.48548  1.0000
  H   H170      1.0  0.21800  0.41927  0.84935  1.0000
  H   H171      1.0  0.24158  0.05344  0.61946  1.0000
  H   H172      1.0  0.04059  0.29514  0.71478  1.0000
  H   H173      1.0  0.20865  0.37456  0.96239  1.0000
  C   C105      1.0  0.31528  0.99832  0.58482  1.0000
  H   H174      1.0  0.21910  0.43993  0.82072  1.0000
  H   H175      1.0  0.02100  0.44379  0.83075  1.0000
  H   H176      1.0  0.01110  0.15623  0.57522  1.0000
  H   H177      1.0  0.26571  0.02665  0.57743  1.0000
  H   H178      1.0  0.23999  0.01476  0.55071  1.0000
  H   H179      1.0  0.19070  0.06857  0.55207  1.0000
  H   H180      1.0  0.23006  0.06940  0.53640  1.0000
  C   C106      1.0  0.01283  0.27527  0.64721  1.0000
  H   H181      1.0  0.14549  0.99900  0.52066  1.0000
  C   C107      1.0  0.20959  0.05606  0.58575  1.0000
  C   C108      1.0  0.18697  0.06121  0.57219  1.0000
  C   C109      1.0  0.25574  0.04146  0.61073  1.0000
  H   H182      1.0  0.25737  0.04989  0.53163  1.0000
  H   H183      1.0  0.22159  0.01498  0.61728  1.0000
  H   H184      1.0  0.31631  0.01802  0.54719  1.0000
  H   H185      1.0  0.99523  0.45685  0.80083  1.0000
  H   H186      1.0  0.25751  0.02351  0.62250  1.0000
  Fe  Fe13      1.0  0.17532  0.47930  0.87264  1.0000
  H   H187      1.0  0.27807  0.46912  0.92100  1.0000
  S   S26       1.0  0.02796  0.46948  0.70160  1.0000
  S   S27       1.0  0.31120  0.37618  0.95790  1.0000
  H   H188      1.0  0.10291  0.04506  0.48714  1.0000
  C   C110      1.0  0.12094  0.47715  0.96039  1.0000
  H   H189      1.0  0.01571  0.44048  0.61148  1.0000
  Fe  Fe14      1.0  0.00033  0.28498  0.57885  1.0000
  H   H190      1.0  0.01012  0.36572  0.61113  1.0000
  C   C111      1.0  0.01461  0.38772  0.63743  1.0000
  H   H191      1.0  0.05328  0.32671  0.62096  1.0000
  C   C112      1.0  0.03983  0.30186  0.69446  1.0000
  S   S28       1.0  0.26404  0.98753  0.49003  1.0000
  H   H192      1.0  0.01613  0.18627  0.57245  1.0000
  H   H193      1.0  0.19937  0.99940  0.57588  1.0000
  H   H194      1.0  0.14989  0.46093  0.76880  1.0000
  C   C113      1.0  0.02896  0.28401  0.68316  1.0000
  S   S29       1.0  0.29274  0.43130  0.96752  1.0000
  H   H195      1.0  0.15824  0.42470  0.95609  1.0000
  C   C114      1.0  0.18062  0.45717  0.97003  1.0000
  H   H196      1.0  0.01911  0.27293  0.69876  1.0000
  C   C115      1.0  0.15671  0.38761  0.96603  1.0000
  H   H197      1.0  0.28579  0.99802  0.53456  1.0000
  H   H198      1.0  0.17403  0.45807  0.95171  1.0000
  H   H199      1.0  0.20071  0.98477  0.60726  1.0000
  H   H200      1.0  0.16714  0.00704  0.48328  1.0000
  H   H201      1.0  0.02332  0.33002  0.65408  1.0000
  H   H202      1.0  0.02578  0.44654  0.86149  1.0000
  H   H203      1.0  0.00521  0.23942  0.64883  1.0000
  H   H204      1.0  0.00815  0.24555  0.67888  1.0000
  H   H205      1.0  0.01018  0.22290  0.54520  1.0000
  H   H206      1.0  0.32092  0.46724  0.92378  1.0000
  S   S30       1.0  0.05333  0.16835  0.48118  1.0000
  C   C116      1.0  0.07476  0.47350  0.80390  1.0000
  C   C117      1.0  0.03412  0.47533  0.63044  1.0000
  C   C118      1.0  0.01599  0.45514  0.84522  1.0000
  C   C119      1.0  0.99855  0.44743  0.60390  1.0000
  H   H207      1.0  0.22916  0.46467  0.86054  1.0000
  H   H208      1.0  0.04168  0.46236  0.64606  1.0000
  H   H209      1.0  0.13298  0.03484  0.49259  1.0000
  H   H210      1.0  0.22882  0.39312  0.96933  1.0000
  Fe  Fe15      1.0  0.22773  0.99558  0.47729  1.0000
  H   H211      1.0  0.17818  0.46422  0.75255  1.0000
  C   C120      1.0  0.15935  0.08234  0.47701  1.0000
  C   C121      1.0  0.30467  0.98087  0.60198  1.0000
  C   C122      1.0  0.19044  0.04860  0.47566  1.0000
  H   H212      1.0  0.04109  0.57304  0.16459  1.0000
  H   H213      1.0  0.24544  0.50936  0.06960  1.0000
  H   H214      1.0  0.04748  0.48932  0.22979  1.0000
  H   H215      1.0  0.07069  0.58941  0.18700  1.0000
  H   H216      1.0  0.01752  0.55528  0.17676  1.0000
  H   H217      1.0  0.02401  0.51977  0.16012  1.0000
  H   H218      1.0  0.27076  0.62303  0.03951  1.0000
  S   S31       1.0  0.28288  0.57051  0.01708  1.0000
  C   C123      1.0  0.04116  0.51090  0.15432  1.0000
  S   S32       1.0  0.17781  0.55552  0.01010  1.0000
  S   S33       1.0  0.12261  0.52481  0.03994  1.0000
  Fe  Fe16      1.0  0.02225  0.64801  0.37064  1.0000
  S   S34       1.0  0.04058  0.66036  0.33271  1.0000
  S   S35       1.0  0.03913  0.61771  0.39716  1.0000
  C   C124      1.0  0.07257  0.54999  0.19692  1.0000
  H   H219      1.0  0.01202  0.58661  0.17347  1.0000
  H   H220      1.0  0.07007  0.54328  0.17984  1.0000
  Fe  Fe17      1.0  0.02727  0.69676  0.34157  1.0000
  S   S36       1.0  0.04908  0.72716  0.33146  1.0000
  H   H221      1.0  0.06244  0.70467  0.44169  1.0000
  H   H222      1.0  0.03591  0.84111  0.34538  1.0000
  Fe  Fe18      1.0  0.06997  0.83871  0.43479  1.0000
  S   S37       1.0  0.10377  0.83239  0.41011  1.0000
  H   H223      1.0  0.18239  0.62569  0.06110  1.0000
  H   H224      1.0  0.15240  0.96801  0.44641  1.0000
  Fe  Fe19      1.0  0.12150  0.83154  0.44469  1.0000
  S   S38       1.0  0.15645  0.84653  0.44270  1.0000
  Fe  Fe20      1.0  0.10037  0.79382  0.42412  1.0000
  S   S39       1.0  0.10925  0.76479  0.40085  1.0000
  S   S40       1.0  0.06534  0.80030  0.44619  1.0000
  H   H225      1.0  0.11903  0.94674  0.46144  1.0000
  H   H226      1.0  0.07401  0.65278  0.45392  1.0000
  C   C125      1.0  0.24206  0.63009  0.01591  1.0000
  S   S41       1.0  0.01160  0.68417  0.38050  1.0000
  H   H227      1.0  0.07327  0.50163  0.21535  1.0000
  Fe  Fe21      1.0  0.26790  0.95550  0.47173  1.0000
  C   C126      1.0  0.02387  0.61555  0.42711  1.0000
  H   H228      1.0  0.10326  0.56321  0.98272  1.0000
  H   H229      1.0  0.00655  0.58630  0.42331  1.0000
  H   H230      1.0  0.25315  0.64343  0.00494  1.0000
  H   H231      1.0  0.01447  0.56864  0.21798  1.0000
  C   C127      1.0  0.02723  0.63061  0.44304  1.0000
  H   H232      1.0  0.29718  0.49101  0.02291  1.0000
  H   H233      1.0  0.05219  0.54193  0.12954  1.0000
  C   C128      1.0  0.05703  0.52331  0.13681  1.0000
  H   H234      1.0  0.03832  0.64435  0.43648  1.0000
  C   C129      1.0  0.06459  0.73741  0.35211  1.0000
  C   C130      1.0  0.08383  0.74942  0.34172  1.0000
  C   C131      1.0  0.09661  0.75859  0.35680  1.0000
  C   C132      1.0  0.08988  0.75672  0.38243  1.0000
  C   C133      1.0  0.07025  0.74511  0.39303  1.0000
  C   C134      1.0  0.05767  0.73530  0.37789  1.0000
  H   H235      1.0  0.08921  0.75127  0.32186  1.0000
  H   H236      1.0  0.11203  0.76695  0.34854  1.0000
  H   H237      1.0  0.06523  0.74320  0.41294  1.0000
  H   H238      1.0  0.04250  0.72651  0.38597  1.0000
  Fe  Fe22      1.0  0.16173  0.52578  0.03610  1.0000
  C   C135      1.0  0.05697  0.50494  0.22806  1.0000
  H   H239      1.0  0.99616  0.68748  0.46810  1.0000
  C   C136      1.0  0.00907  0.59805  0.43555  1.0000
  C   C137      1.0  0.05624  0.57821  0.24531  1.0000
  S   S42       1.0  0.09910  0.52825  0.10766  1.0000
  C   C138      1.0  0.25434  0.56431  0.01482  1.0000
  C   C139      1.0  0.24094  0.55377  0.03607  1.0000
  C   C140      1.0  0.21775  0.54967  0.03458  1.0000
  C   C141      1.0  0.20777  0.55670  0.01191  1.0000
  C   C142      1.0  0.22120  0.56719  0.99071  1.0000
  C   C143      1.0  0.24438  0.57091  0.99216  1.0000
  H   H240      1.0  0.24835  0.54935  0.05377  1.0000
  H   H241      1.0  0.20729  0.54199  0.05115  1.0000
  H   H242      1.0  0.07254  0.54230  0.24524  1.0000
  H   H243      1.0  0.07127  0.81134  0.38126  1.0000
  C   C144      1.0  0.29705  0.95181  0.40511  1.0000
  H   H244      1.0  0.13294  0.64364  0.41391  1.0000
  C   C145      1.0  0.08368  0.57318  0.18863  1.0000
  H   H245      1.0  0.24257  0.49876  0.02969  1.0000
  Fe  Fe23      1.0  0.29923  0.58769  0.97971  1.0000
  H   H246      1.0  0.18709  0.59538  0.05743  1.0000
  H   H247      1.0  0.10145  0.62180  0.46042  1.0000
  H   H248      1.0  0.03543  0.58802  0.20576  1.0000
  H   H249      1.0  0.24121  0.67521  0.02471  1.0000
  C   C146      1.0  0.05543  0.55302  0.24048  1.0000
  H   H250      1.0  0.07167  0.81018  0.34847  1.0000
  H   H251      1.0  0.03829  0.58850  0.24635  1.0000
  H   H252      1.0  0.10946  0.60994  0.43179  1.0000
  C   C147      1.0  0.16328  0.86992  0.45612  1.0000
  C   C148      1.0  0.01401  0.85990  0.44174  1.0000
  H   H253      1.0  0.07610  0.83665  0.35807  1.0000
  H   H254      1.0  0.21140  0.89645  0.46094  1.0000
  H   H255      1.0  0.12691  0.65425  0.44244  1.0000
  H   H256      1.0  0.14234  0.58549  0.98328  1.0000
  Fe  Fe24      1.0  0.12645  0.51078  0.08070  1.0000
  S   S43       1.0  0.23287  0.96561  0.45573  1.0000
  C   C149      1.0  0.02478  0.80207  0.39970  1.0000
  S   S44       1.0  0.03898  0.86359  0.42011  1.0000
  H   H257      1.0  0.19318  0.65886  0.98812  1.0000
  C   C150      1.0  0.07900  0.51168  0.12835  1.0000
  C   C151      1.0  0.06596  0.82129  0.36303  1.0000
  H   H258      1.0  0.02363  0.52762  0.22931  1.0000
  H   H259      1.0  0.06826  0.58824  0.23133  1.0000
  C   C152      1.0  0.18668  0.87519  0.45251  1.0000
  S   S45       1.0  0.16524  0.51475  0.07704  1.0000
  C   C153      1.0  0.99508  0.62200  0.27854  1.0000
  H   H260      1.0  0.29777  0.49155  0.07771  1.0000
  H   H261      1.0  0.09113  0.51556  0.99682  1.0000
  H   H262      1.0  0.19675  0.78724  0.47139  1.0000
  S   S46       1.0  0.99481  0.48862  0.24831  1.0000
  H   H263      1.0  0.12315  0.71423  0.40050  1.0000
  H   H264      1.0  0.21542  0.69296  0.03595  1.0000
  H   H265      1.0  0.03616  0.84387  0.37675  1.0000
  N   N10       1.0  0.05031  0.55071  0.21477  1.0000
  C   C154      1.0  0.99960  0.57919  0.29209  1.0000
  H   H266      1.0  0.26041  0.49661  0.09722  1.0000
  C   C155      1.0  0.03928  0.83062  0.36413  1.0000
  S   S47       1.0  0.12135  0.79203  0.45635  1.0000
  H   H267      1.0  0.21118  0.60823  0.06398  1.0000
  H   H268      1.0  0.06139  0.50536  0.24701  1.0000
  S   S48       1.0  0.08764  0.84062  0.46846  1.0000
  C   C156      1.0  0.11884  0.64599  0.42950  1.0000
  C   C157      1.0  0.09894  0.50888  0.98011  1.0000
  H   H269      1.0  0.00849  0.60405  0.31302  1.0000
  H   H270      1.0  0.24684  0.61494  0.00582  1.0000
  C   C158      1.0  0.02543  0.57098  0.17851  1.0000
  C   C159      1.0  0.03120  0.57012  0.20537  1.0000
  H   H271      1.0  0.22361  0.66221  0.98021  1.0000
  H   H272      1.0  0.29107  0.95777  0.36622  1.0000
  H   H273      1.0  0.04177  0.54568  0.25506  1.0000
  C   C160      1.0  0.01638  0.62769  0.46764  1.0000
  H   H274      1.0  0.24976  0.60220  0.04828  1.0000
  C   C161      1.0  0.22201  0.68024  0.02307  1.0000
  N   N11       1.0  0.02263  0.81222  0.37251  1.0000
  H   H275      1.0  0.09673  0.57436  0.20142  1.0000
  Fe  Fe25      1.0  0.00515  0.66108  0.31908  1.0000
  C   C162      1.0  0.02879  0.79230  0.35793  1.0000
  H   H276      1.0  0.20972  0.65234  0.05085  1.0000
  H   H277      1.0  0.18920  0.66522  0.02934  1.0000
  C   C163      1.0  0.26020  0.49563  0.01914  1.0000
  C   C164      1.0  0.02840  0.79943  0.32941  1.0000
  H   H278      1.0  0.21915  0.68995  0.00396  1.0000
  H   H279      1.0  0.03685  0.52446  0.19905  1.0000
  H   H280      1.0  0.08675  0.53666  0.20526  1.0000
  C   C165      1.0  0.25162  0.62123  0.04152  1.0000
  H   H281      1.0  0.02297  0.81624  0.41120  1.0000
  H   H282      1.0  0.04655  0.78278  0.36146  1.0000
  H   H283      1.0  0.00497  0.56382  0.30582  1.0000
  C   C166      1.0  0.30406  0.95607  0.37927  1.0000
  H   H284      1.0  0.04289  0.79268  0.40224  1.0000
  C   C167      1.0  0.14646  0.88254  0.47111  1.0000
  H   H285      1.0  0.06265  0.57682  0.26385  1.0000
  C   C168      1.0  0.13570  0.97881  0.45253  1.0000
  H   H286      1.0  0.18390  0.62315  0.01738  1.0000
  C   C169      1.0  0.04754  0.48700  0.16432  1.0000
  S   S49       1.0  0.30541  0.94630  0.45457  1.0000
  Fe  Fe26      1.0  0.99550  0.48859  0.20741  1.0000
  C   C170      1.0  0.24850  0.49351  0.08422  1.0000
  C   C171      1.0  0.28060  0.49236  0.03574  1.0000
  H   H287      1.0  0.10285  0.70967  0.42783  1.0000
  C   C172      1.0  0.20136  0.61895  0.02510  1.0000
  C   C173      1.0  0.08497  0.48752  0.13754  1.0000
  N   N12       1.0  0.09729  0.66188  0.42013  1.0000
  C   C174      1.0  0.10522  0.68350  0.40295  1.0000
  C   C175      1.0  0.08408  0.64926  0.40591  1.0000
  C   C176      1.0  0.08122  0.66859  0.44235  1.0000
  C   C177      1.0  0.11615  0.70035  0.41535  1.0000
  C   C178      1.0  0.09826  0.64042  0.38287  1.0000
  C   C179      1.0  0.05982  0.68778  0.43649  1.0000
  H   H288      1.0  0.12840  0.87868  0.47411  1.0000
  H   H289      1.0  0.09047  0.69413  0.39283  1.0000
  H   H290      1.0  0.11886  0.67825  0.38799  1.0000
  H   H291      1.0  0.07700  0.63383  0.41834  1.0000
  H   H292      1.0  0.06820  0.66085  0.39893  1.0000
  Fe  Fe27      1.0  0.13213  0.48693  0.03531  1.0000
  H   H293      1.0  0.16635  0.79820  0.47043  1.0000
  H   H294      1.0  0.04076  0.81237  0.32102  1.0000
  H   H295      1.0  0.09300  0.57340  0.16953  1.0000
  C   C180      1.0  0.19546  0.61195  0.05358  1.0000
  H   H296      1.0  0.11457  0.62837  0.38752  1.0000
  H   H297      1.0  0.10252  0.65540  0.36782  1.0000
  H   H298      1.0  0.08715  0.63019  0.37504  1.0000
  H   H299      1.0  0.24357  0.63170  0.05598  1.0000
  H   H300      1.0  0.05560  0.69124  0.41695  1.0000
  H   H301      1.0  0.27997  0.50933  0.04260  1.0000
  N   N13       1.0  0.21603  0.63898  0.01573  1.0000
  C   C181      1.0  0.21141  0.64907  0.98896  1.0000
  C   C182      1.0  0.20834  0.65863  0.03063  1.0000
  C   C183      1.0  0.31367  0.94999  0.42205  1.0000
  S   S50       1.0  0.99723  0.65111  0.28296  1.0000
  H   H302      1.0  0.03420  0.78333  0.32086  1.0000
  C   C184      1.0  0.04077  0.52744  0.21731  1.0000
  H   H303      1.0  0.13125  0.69131  0.42570  1.0000
  H   H304      1.0  0.27879  0.95006  0.41189  1.0000
  H   H305      1.0  0.19984  0.86558  0.44091  1.0000
  H   H306      1.0  0.21014  0.60262  0.01835  1.0000
  H   H307      1.0  0.09145  0.67503  0.45495  1.0000
  H   H308      1.0  0.13152  0.61174  0.45101  1.0000
  H   H309      1.0  0.01637  0.76544  0.41009  1.0000
  S   S51       1.0  0.17092  0.48926  0.02723  1.0000
  C   C185      1.0  0.00165  0.60199  0.29623  1.0000
  C   C186      1.0  0.19331  0.89270  0.46386  1.0000
  H   H310      1.0  0.04386  0.68227  0.44853  1.0000
  H   H311      1.0  0.26190  0.51165  0.00449  1.0000
  C   C187      1.0  0.11470  0.62105  0.44391  1.0000
  H   H312      1.0  0.01656  0.77870  0.36431  1.0000
  C   C188      1.0  0.99755  0.59566  0.45987  1.0000
  H   H313      1.0  0.23110  0.49107  0.09514  1.0000
  H   H314      1.0  0.08622  0.71365  0.47125  1.0000
  H   H315      1.0  0.10195  0.59438  0.98378  1.0000
  C   C189      1.0  0.00808  0.78367  0.41214  1.0000
  H   H316      1.0  0.25408  0.57985  0.97587  1.0000
  C   C190      1.0  0.01666  0.84775  0.46603  1.0000
  H   H317      1.0  0.03411  0.84140  0.47181  1.0000
  C   C191      1.0  0.11141  0.48601  0.98203  1.0000
  H   H318      1.0  0.01031  0.80646  0.32428  1.0000
  H   H319      1.0  0.99978  0.68758  0.43480  1.0000
  H   H320      1.0  0.00414  0.78457  0.43232  1.0000
  C   C192      1.0  0.12194  0.96102  0.47116  1.0000
  H   H321      1.0  0.99780  0.71457  0.44623  1.0000
  S   S52       1.0  0.99359  0.69901  0.32406  1.0000
  C   C193      1.0  0.99788  0.82399  0.36825  1.0000
  H   H322      1.0  0.99753  0.85543  0.38513  1.0000
  H   H323      1.0  0.99741  0.83450  0.34901  1.0000
  H   H324      1.0  0.08906  0.75482  0.47470  1.0000
  H   H325      1.0  0.20099  0.61824  0.97653  1.0000
  H   H326      1.0  0.14819  0.62649  0.97493  1.0000
  C   C194      1.0  0.05101  0.53764  0.71322  1.0000
  S   S53       1.0  0.17390  0.51136  0.89012  1.0000
  H   H327      1.0  0.00303  0.52471  0.61576  1.0000
  S   S54       1.0  0.24694  0.61189  0.91461  1.0000
  H   H328      1.0  0.13237  0.95211  0.48678  1.0000
  H   H329      1.0  0.02240  0.50959  0.59432  1.0000
  H   H330      1.0  0.05795  0.55575  0.77483  1.0000
  Fe  Fe28      1.0  0.13675  0.51978  0.87948  1.0000
  S   S55       1.0  0.14648  0.54124  0.84185  1.0000
  S   S56       1.0  0.10708  0.53357  0.90592  1.0000
  H   H331      1.0  0.23212  0.62121  0.96953  1.0000
  H   H332      1.0  0.24596  0.54365  0.94178  1.0000
  Fe  Fe29      1.0  0.18399  0.53003  0.85132  1.0000
  S   S57       1.0  0.21377  0.55299  0.84217  1.0000
  H   H333      1.0  0.14521  0.60790  0.91375  1.0000
  S   S58       1.0  0.28475  0.62428  0.96193  1.0000
  H   H334      1.0  0.21353  0.57305  0.97321  1.0000
  C   C195      1.0  0.28685  0.48518  0.91311  1.0000
  Fe  Fe30      1.0  0.04097  0.65654  0.53208  1.0000
  S   S59       1.0  0.03157  0.65703  0.57302  1.0000
  S   S60       1.0  0.06847  0.67504  0.50564  1.0000
  Fe  Fe31      1.0  0.02841  0.61816  0.57663  1.0000
  S   S61       1.0  0.04499  0.58857  0.60536  1.0000
  C   C196      1.0  0.29911  0.53214  0.88366  1.0000
  H   H335      1.0  0.20021  0.80304  0.50734  1.0000
  S   S62       1.0  0.04114  0.61724  0.53626  1.0000
  H   H336      1.0  0.10653  0.57402  0.93520  1.0000
  C   C197      1.0  0.09611  0.52286  0.95648  1.0000
  C   C198      1.0  0.00133  0.61036  0.47598  1.0000
  C   C199      1.0  0.02608  0.57497  0.69985  1.0000
  Fe  Fe32      1.0  0.14907  0.50659  0.82820  1.0000
  S   S63       1.0  0.18411  0.92640  0.49512  1.0000
  H   H337      1.0  0.06917  0.59282  0.69984  1.0000
  S   S64       1.0  0.00372  0.66549  0.52215  1.0000
  H   H338      1.0  0.04344  0.58934  0.73757  1.0000
  C   C200      1.0  0.02622  0.57052  0.62583  1.0000
  C   C201      1.0  0.03571  0.54820  0.63831  1.0000
  C   C202      1.0  0.02132  0.53413  0.65594  1.0000
  H   H339      1.0  0.03694  0.50488  0.72992  1.0000
  C   C203      1.0  0.16603  0.79503  0.54302  1.0000
  Fe  Fe33      1.0  0.21759  0.94432  0.49146  1.0000
  H   H340      1.0  0.05427  0.54189  0.63439  1.0000
  H   H341      1.0  0.02876  0.51705  0.66557  1.0000
  S   S65       1.0  0.25323  0.93171  0.50601  1.0000
  C   C204      1.0  0.19020  0.84071  0.53241  1.0000
  C   C205      1.0  0.07092  0.70407  0.50917  1.0000
  H   H342      1.0  0.29307  0.54758  0.86942  1.0000
  H   H343      1.0  0.00517  0.60780  0.68461  1.0000
  C   C206      1.0  0.07501  0.75087  0.51342  1.0000
  C   C207      1.0  0.06641  0.73511  0.53418  1.0000
  C   C208      1.0  0.06392  0.71186  0.53194  1.0000
  C   C209      1.0  0.18297  0.80900  0.49945  1.0000
  Fe  Fe34      1.0  0.28304  0.60756  0.92860  1.0000
  H   H344      1.0  0.06127  0.74100  0.55186  1.0000
  H   H345      1.0  0.05703  0.69984  0.54791  1.0000
  H   H346      1.0  0.16825  0.58922  0.96267  1.0000
  H   H347      1.0  0.27863  0.95666  0.60847  1.0000
  C   C210      1.0  0.00349  0.51321  0.60165  1.0000
  H   H348      1.0  0.01474  0.53011  0.72770  1.0000
  C   C211      1.0  0.09471  0.48317  0.80777  1.0000
  H   H349      1.0  0.15428  0.58376  0.88101  1.0000
  H   H350      1.0  0.00098  0.82384  0.55254  1.0000
  H   H351      1.0  0.21090  0.64068  0.95203  1.0000
  H   H352      1.0  0.11680  0.83804  0.53510  1.0000
  H   H353      1.0  0.30428  0.48155  0.94759  1.0000
  H   H354      1.0  0.02658  0.56914  0.68169  1.0000
  H   H355      1.0  0.26664  0.54545  0.90362  1.0000
  C   C212      1.0  0.25033  0.50728  0.89728  1.0000
  C   C213      1.0  0.24008  0.59259  0.89604  1.0000
  C   C214      1.0  0.25260  0.59089  0.87270  1.0000
  C   C215      1.0  0.24450  0.57848  0.85652  1.0000
  C   C216      1.0  0.22397  0.56746  0.86358  1.0000
  C   C217      1.0  0.21200  0.56838  0.88728  1.0000
  C   C218      1.0  0.21994  0.58100  0.90340  1.0000
  H   H356      1.0  0.26792  0.60005  0.86664  1.0000
  H   H357      1.0  0.25390  0.57786  0.83820  1.0000
  H   H358      1.0  0.19634  0.55981  0.89273  1.0000
  H   H359      1.0  0.21038  0.58216  0.92150  1.0000
  H   H360      1.0  0.26184  0.52804  0.86087  1.0000
  C   C219      1.0  0.10709  0.51456  0.93494  1.0000
  C   C220      1.0  0.28052  0.52987  0.90682  1.0000
  H   H361      1.0  0.07406  0.54154  0.75112  1.0000
  H   H362      1.0  0.01877  0.74065  0.57772  1.0000
  H   H363      1.0  0.10166  0.82081  0.52061  1.0000
  C   C221      1.0  0.00713  0.78254  0.49567  1.0000
  N   N14       1.0  0.13970  0.58009  0.94579  1.0000
  H   H364      1.0  0.27120  0.50448  0.95357  1.0000
  C   C222      1.0  0.14623  0.55370  0.95383  1.0000
  H   H365      1.0  0.13671  0.54366  0.94401  1.0000
  C   C223      1.0  0.15068  0.58859  0.91975  1.0000
  H   H366      1.0  0.15647  0.96907  0.51882  1.0000
  H   H367      1.0  0.00271  0.49055  0.65056  1.0000
  H   H368      1.0  0.00224  0.79212  0.47707  1.0000
  C   C224      1.0  0.14451  0.57669  0.89909  1.0000
  N   N15       1.0  0.04793  0.56408  0.71254  1.0000
  H   H369      1.0  0.12744  0.98018  0.51112  1.0000
  H   H370      1.0  0.17541  0.52536  0.96009  1.0000
  S   S66       1.0  0.07647  0.78048  0.51567  1.0000
  C   C225      1.0  0.30871  0.48341  0.92712  1.0000
  C   C226      1.0  0.23888  0.52641  0.94604  1.0000
  C   C227      1.0  0.08325  0.48455  0.75923  1.0000
  H   H371      1.0  0.17019  0.58637  0.91925  1.0000
  H   H372      1.0  0.17834  0.54327  0.92992  1.0000
  H   H373      1.0  0.02029  0.74854  0.53251  1.0000
  H   H374      1.0  0.09086  0.57904  0.66258  1.0000
  C   C228      1.0  0.31463  0.91485  0.53937  1.0000
  C   C229      1.0  0.11946  0.49166  0.93691  1.0000
  H   H375      1.0  0.08602  0.54030  0.95494  1.0000
  C   C230      1.0  0.10342  0.49397  0.76311  1.0000
  Fe  Fe35      1.0  0.24788  0.96446  0.52339  1.0000
  H   H376      1.0  0.13804  0.83066  0.49391  1.0000
  H   H377      1.0  0.15380  0.76149  0.56095  1.0000
  C   C231      1.0  0.13960  0.81600  0.51032  1.0000
  H   H378      1.0  0.12541  0.58046  0.89661  1.0000
  S   S67       1.0  0.18784  0.49717  0.83414  1.0000
  H   H379      1.0  0.08578  0.56462  0.70738  1.0000
  H   H380      1.0  0.19666  0.82724  0.54818  1.0000
  C   C232      1.0  0.08207  0.74299  0.49075  1.0000
  H   H381      1.0  0.18432  0.55398  0.95686  1.0000
  C   C233      1.0  0.00240  0.74685  0.54236  1.0000
  H   H382      1.0  0.14974  0.55728  0.90268  1.0000
  H   H383      1.0  0.00997  0.56869  0.71103  1.0000
  C   C234      1.0  0.07426  0.57171  0.67072  1.0000
  C   C235      1.0  0.03327  0.52385  0.73172  1.0000
  H   H384      1.0  0.07992  0.58419  0.97004  1.0000
  H   H385      1.0  0.15307  0.84078  0.54309  1.0000
  H   H386      1.0  0.24274  0.50713  0.85965  1.0000
  C   C236      1.0  0.99670  0.84404  0.48307  1.0000
  H   H387      1.0  0.22292  0.52763  0.93635  1.0000
  H   H388      1.0  0.27282  0.49682  0.86382  1.0000
  C   C237      1.0  0.04489  0.56986  0.73846  1.0000
  H   H389      1.0  0.06007  0.58210  0.65970  1.0000
  C   C238      1.0  0.16555  0.83732  0.52654  1.0000
  S   S68       1.0  0.25712  0.96234  0.56294  1.0000
  N   N16       1.0  0.99369  0.49042  0.61348  1.0000
  H   H390      1.0  0.07668  0.55300  0.66804  1.0000
  H   H391      1.0  0.10768  0.60386  0.93682  1.0000
  C   C239      1.0  0.06965  0.57382  0.69859  1.0000
  C   C240      1.0  0.17265  0.54392  0.94981  1.0000
  H   H392      1.0  0.07881  0.57113  0.75239  1.0000
  S   S69       1.0  0.29593  0.57097  0.94722  1.0000
  H   H393      1.0  0.30642  0.95286  0.53109  1.0000
  H   H394      1.0  0.01855  0.78766  0.54248  1.0000
  H   H395      1.0  0.01456  0.71452  0.56733  1.0000
  C   C241      1.0  0.10930  0.49333  0.78739  1.0000
  H   H396      1.0  0.99902  0.83507  0.50187  1.0000
  H   H397      1.0  0.13716  0.80011  0.50308  1.0000
  C   C242      1.0  0.08036  0.71960  0.48875  1.0000
  C   C243      1.0  0.32053  0.93917  0.52491  1.0000
  H   H398      1.0  0.07920  0.48484  0.74048  1.0000
  N   N17       1.0  0.26931  0.50732  0.91378  1.0000
  C   C244      1.0  0.21406  0.63100  0.97113  1.0000
  H   H399      1.0  0.04942  0.53372  0.69451  1.0000
  C   C245      1.0  0.25783  0.50989  0.86898  1.0000
  H   H400      1.0  0.29363  0.48261  0.89390  1.0000
  C   C246      1.0  0.11318  0.58537  0.94622  1.0000
  H   H401      1.0  0.28934  0.53255  0.92276  1.0000
  H   H402      1.0  0.17064  0.97754  0.47821  1.0000
  H   H403      1.0  0.31837  0.97965  0.48960  1.0000
  H   H404      1.0  0.24195  0.49069  0.90317  1.0000
  H   H405      1.0  0.02780  0.56530  0.74891  1.0000
  H   H406      1.0  0.23592  0.52210  0.89904  1.0000
  H   H407      1.0  0.00327  0.77866  0.57143  1.0000
  S   S70       1.0  0.13558  0.50434  0.79126  1.0000
  H   H408      1.0  0.18436  0.79261  0.54832  1.0000
  H   H409      1.0  0.20341  0.84086  0.51576  1.0000
  H   H410      1.0  0.01917  0.79302  0.50167  1.0000
  Fe  Fe36      1.0  0.08628  0.80122  0.47750  1.0000
  C   C247      1.0  0.28701  0.96988  0.59493  1.0000
  H   H411      1.0  0.11776  0.80620  0.54605  1.0000
  H   H412      1.0  0.31297  0.91406  0.55987  1.0000
  H   H413      1.0  0.30977  0.97616  0.62080  1.0000
  C   C248      1.0  0.14865  0.59260  0.96361  1.0000
  H   H414      1.0  0.31785  0.93966  0.50522  1.0000
  H   H415      1.0  0.01679  0.76502  0.49281  1.0000
  C   C249      1.0  0.06518  0.55900  0.75486  1.0000
  H   H416      1.0  0.14692  0.76956  0.53001  1.0000
  H   H417      1.0  0.11468  0.50161  0.74718  1.0000
  C   C250      1.0  0.28012  0.97588  0.57059  1.0000
  H   H418      1.0  0.17715  0.75863  0.53607  1.0000
  C   C251      1.0  0.11801  0.82054  0.52943  1.0000
  H   H419      1.0  0.03525  0.52437  0.75144  1.0000
  C   C252      1.0  0.00027  0.78657  0.55178  1.0000
  H   H420      1.0  0.06913  0.52921  0.71730  1.0000
  H   H421      1.0  0.15506  0.80087  0.55957  1.0000
  H   H422      1.0  0.30320  0.51648  0.87447  1.0000
  C   C253      1.0  0.14226  0.61983  0.95943  1.0000
  H   H423      1.0  0.29713  0.91209  0.53482  1.0000
  C   C254      1.0  0.16080  0.76993  0.54201  1.0000
  H   H424      1.0  0.00214  0.54246  0.57005  1.0000
  Fe  Fe37      1.0  0.00295  0.62629  0.53005  1.0000
  C   C255      1.0  0.25780  0.50559  0.94038  1.0000
  C   C256      1.0  0.09911  0.58150  0.97232  1.0000
  H   H425      1.0  0.31602  0.53572  0.88902  1.0000
  S   S71       1.0  0.21099  0.97512  0.51222  1.0000
  C   C257      1.0  0.00633  0.73289  0.56885  1.0000
  C   C258      1.0  0.15319  0.89971  0.48286  1.0000
  N   N18       1.0  0.16344  0.81370  0.51983  1.0000
  H   H426      1.0  0.18897  0.85836  0.53790  1.0000
  S   S72       1.0  0.13701  0.48590  0.86549  1.0000
  C   C259      1.0  0.00223  0.57853  0.63082  1.0000
  H   H427      1.0  0.23288  0.52332  0.96636  1.0000
  Fe  Fe38      1.0  0.32253  0.62879  0.94722  1.0000
  H   H428      1.0  0.18534  0.82569  0.48585  1.0000
  H   H429      1.0  0.14017  0.90880  0.49500  1.0000
  H   H430      1.0  0.16058  0.85206  0.51113  1.0000
  C   C260      1.0  0.17998  0.79083  0.48338  1.0000
  C   C261      1.0  0.99739  0.54243  0.66119  1.0000
  H   H431      1.0  0.01769  0.60980  0.71203  1.0000
  H   H432      1.0  0.15164  0.62849  0.94189  1.0000
  H   H433      1.0  0.99463  0.73524  0.53261  1.0000
  H   H434      1.0  0.12298  0.62556  0.95957  1.0000
  H   H435      1.0  0.03576  0.61045  0.68222  1.0000
  H   H436      1.0  0.24942  0.48900  0.94628  1.0000
  H   H437      1.0  0.09891  0.48257  0.82655  1.0000
  C   C262      1.0  0.02129  0.60231  0.69462  1.0000
  H   H438      1.0  0.31860  0.49868  0.92026  1.0000
  H   H439      1.0  0.99481  0.59579  0.62153  1.0000
  S   S73       1.0  0.31940  0.61563  0.91166  1.0000
  H   H440      1.0  0.99650  0.49261  0.81207  1.0000
  H   H441      1.0  0.04167  0.49205  0.62929  1.0000
  H   H442      1.0  0.14064  0.54814  0.97407  1.0000
  C   C263      1.0  0.17662  0.90498  0.47926  1.0000
  Fe  Fe39      1.0  0.99408  0.66312  0.56320  1.0000
  H   H443      1.0  0.01937  0.63910  0.48000  1.0000
  H   H444      1.0  0.12781  0.48507  0.92036  1.0000
  H   H445      1.0  0.17577  0.77367  0.49436  1.0000
  H   H446      1.0  0.10423  0.96904  0.47821  1.0000
  S   S74       1.0  0.63256  0.31989  0.98656  1.0000
  S   S75       1.0  0.49843  0.21905  0.01250  1.0000
  N   N19       1.0  0.41115  0.99726  0.16593  1.0000
  H   H447      1.0  0.56139  0.18713  0.01385  1.0000
  C   C264      1.0  0.43743  0.18979  0.99344  1.0000
  C   C265      1.0  0.51216  0.98739  0.31847  1.0000
  S   S76       1.0  0.41509  0.03688  0.27713  1.0000
  Fe  Fe40      1.0  0.47885  0.08304  0.14780  1.0000
  S   S77       1.0  0.49906  0.11316  0.12907  1.0000
  S   S78       1.0  0.44318  0.09125  0.16863  1.0000
  Fe  Fe41      1.0  0.51589  0.04581  0.13015  1.0000
  S   S79       1.0  0.53909  0.07232  0.10985  1.0000
  H   H448      1.0  0.40485  0.21270  0.03380  1.0000
  Fe  Fe42      1.0  0.53048  0.08898  0.14386  1.0000
  S   S80       1.0  0.56084  0.10089  0.15778  1.0000
  Fe  Fe43      1.0  0.50589  0.09393  0.09658  1.0000
  S   S81       1.0  0.50791  0.10892  0.05520  1.0000
  S   S82       1.0  0.50972  0.06079  0.16549  1.0000
  S   S83       1.0  0.48315  0.06558  0.11408  1.0000
  C   C266      1.0  0.42022  0.04036  0.14771  1.0000
  H   H449      1.0  0.58447  0.18769  0.03213  1.0000
  H   H450      1.0  0.45037  0.02233  0.23760  1.0000
  C   C267      1.0  0.37937  0.24340  0.02454  1.0000
  C   C268      1.0  0.58204  0.04314  0.20913  1.0000
  C   C269      1.0  0.56780  0.06076  0.19408  1.0000
  C   C270      1.0  0.57811  0.07824  0.17651  1.0000
  C   C271      1.0  0.60265  0.07785  0.17386  1.0000
  C   C272      1.0  0.61689  0.05978  0.18815  1.0000
  H   H451      1.0  0.54889  0.06106  0.19627  1.0000
  H   H452      1.0  0.61072  0.09135  0.16044  1.0000
  C   C273      1.0  0.42117  0.04890  0.24535  1.0000
  C   C274      1.0  0.44032  0.03904  0.23029  1.0000
  C   C275      1.0  0.44717  0.05164  0.20632  1.0000
  C   C276      1.0  0.43465  0.07379  0.19744  1.0000
  C   C277      1.0  0.41508  0.08298  0.21217  1.0000
  C   C278      1.0  0.40862  0.07080  0.23611  1.0000
  H   H453      1.0  0.46230  0.04458  0.19492  1.0000
  H   H454      1.0  0.40534  0.10006  0.20542  1.0000
  H   H455      1.0  0.39409  0.07866  0.24776  1.0000
  C   C279      1.0  0.59128  0.02049  0.14679  1.0000
  H   H456      1.0  0.47800  0.32709  0.99689  1.0000
  Fe  Fe44      1.0  0.60859  0.99538  0.25512  1.0000
  S   S84       1.0  0.60325  0.00492  0.29335  1.0000
  S   S85       1.0  0.62534  0.01939  0.22241  1.0000
  C   C280      1.0  0.51469  0.98849  0.12410  1.0000
  H   H457      1.0  0.44256  0.01234  0.16915  1.0000
  H   H458      1.0  0.41986  0.32131  0.99078  1.0000
  C   C281      1.0  0.39911  0.22421  0.01627  1.0000
  N   N20       1.0  0.60164  0.99482  0.14773  1.0000
  H   H459      1.0  0.51105  0.17796  0.98815  1.0000
  H   H460      1.0  0.58222  0.16125  0.01962  1.0000
  H   H461      1.0  0.57406  0.02985  0.22285  1.0000
  C   C282      1.0  0.49882  0.18843  0.02366  1.0000
  C   C283      1.0  0.50617  0.17194  0.00783  1.0000
  C   C284      1.0  0.50796  0.14754  0.01766  1.0000
  C   C285      1.0  0.50245  0.13952  0.04331  1.0000
  C   C286      1.0  0.49418  0.15604  0.05897  1.0000
  C   C287      1.0  0.49241  0.18045  0.04913  1.0000
  H   H462      1.0  0.56874  0.00239  0.19369  1.0000
  H   H463      1.0  0.51428  0.13482  0.00545  1.0000
  H   H464      1.0  0.48961  0.15001  0.07869  1.0000
  H   H465      1.0  0.48649  0.19320  0.06139  1.0000
  H   H466      1.0  0.43690  0.26744  0.03857  1.0000
  H   H467      1.0  0.63092  0.06506  0.28659  1.0000
  H   H468      1.0  0.45226  0.17589  0.99928  1.0000
  C   C288      1.0  0.64833  0.44924  0.00285  1.0000
  H   H469      1.0  0.33236  0.03555  0.38549  1.0000
  N   N21       1.0  0.56659  0.15123  0.07307  1.0000
  C   C289      1.0  0.54691  0.14606  0.09366  1.0000
  C   C290      1.0  0.57645  0.12787  0.06504  1.0000
  C   C291      1.0  0.55568  0.16787  0.05159  1.0000
  C   C292      1.0  0.58454  0.16235  0.08303  1.0000
  C   C293      1.0  0.53277  0.16757  0.10407  1.0000
  H   H470      1.0  0.59283  0.05661  0.12757  1.0000
  H   H471      1.0  0.61282  0.99721  0.10792  1.0000
  C   C294      1.0  0.60948  0.16216  0.06840  1.0000
  H   H472      1.0  0.53391  0.13663  0.08742  1.0000
  H   H473      1.0  0.55390  0.13392  0.11013  1.0000
  H   H474      1.0  0.62299  0.15174  0.08039  1.0000
  H   H475      1.0  0.56201  0.11964  0.05963  1.0000
  H   H476      1.0  0.54207  0.15953  0.04516  1.0000
  H   H477      1.0  0.54648  0.18455  0.05738  1.0000
  H   H478      1.0  0.57771  0.18119  0.08424  1.0000
  H   H479      1.0  0.58712  0.15350  0.10263  1.0000
  H   H480      1.0  0.52086  0.16095  0.12073  1.0000
  H   H481      1.0  0.54427  0.17843  0.11034  1.0000
  H   H482      1.0  0.52115  0.17884  0.09057  1.0000
  H   H483      1.0  0.36187  0.23870  0.02232  1.0000
  C   C295      1.0  0.42938  0.01376  0.15560  1.0000
  H   H484      1.0  0.45695  0.21900  0.99071  1.0000
  H   H485      1.0  0.60891  0.27931  0.98877  1.0000
  H   H486      1.0  0.42052  0.24284  0.04813  1.0000
  C   C296      1.0  0.42848  0.25364  0.00714  1.0000
  H   H487      1.0  0.61411  0.18053  0.06353  1.0000
  C   C297      1.0  0.39108  0.00356  0.12528  1.0000
  H   H488      1.0  0.37986  0.02204  0.15593  1.0000
  N   N22       1.0  0.49035  0.07546  0.25386  1.0000
  C   C298      1.0  0.47048  0.09207  0.24173  1.0000
  C   C299      1.0  0.47937  0.06018  0.27654  1.0000
  C   C300      1.0  0.50212  0.06004  0.23535  1.0000
  C   C301      1.0  0.50753  0.09014  0.26014  1.0000
  C   C302      1.0  0.47729  0.10701  0.21599  1.0000
  C   C303      1.0  0.46350  0.07361  0.29554  1.0000
  C   C304      1.0  0.52097  0.03943  0.24461  1.0000
  C   C305      1.0  0.52331  0.07843  0.28121  1.0000
  H   H489      1.0  0.45617  0.08206  0.23940  1.0000
  H   H490      1.0  0.46196  0.10500  0.25384  1.0000
  H   H491      1.0  0.49290  0.04815  0.28708  1.0000
  H   H492      1.0  0.46841  0.04824  0.27086  1.0000
  H   H493      1.0  0.48861  0.05208  0.22813  1.0000
  H   H494      1.0  0.51111  0.07080  0.21884  1.0000
  H   H495      1.0  0.51940  0.09638  0.24321  1.0000
  H   H496      1.0  0.49767  0.10650  0.26626  1.0000
  H   H497      1.0  0.48149  0.09595  0.20122  1.0000
  H   H498      1.0  0.46186  0.12020  0.21044  1.0000
  H   H499      1.0  0.49221  0.11692  0.21628  1.0000
  H   H500      1.0  0.44611  0.08109  0.28863  1.0000
  H   H501      1.0  0.45977  0.06089  0.31310  1.0000
  H   H502      1.0  0.47202  0.08783  0.30020  1.0000
  H   H503      1.0  0.53685  0.04593  0.24878  1.0000
  H   H504      1.0  0.52707  0.02911  0.22938  1.0000
  H   H505      1.0  0.51398  0.02681  0.26074  1.0000
  H   H506      1.0  0.54064  0.08529  0.27690  1.0000
  H   H507      1.0  0.52731  0.05893  0.28400  1.0000
  H   H508      1.0  0.51556  0.08381  0.29922  1.0000
  C   C306      1.0  0.49127  0.99566  0.11871  1.0000
  C   C307      1.0  0.39396  0.01907  0.20274  1.0000
  H   H509      1.0  0.52683  0.98724  0.20683  1.0000
  C   C308      1.0  0.60381  0.03902  0.12786  1.0000
  H   H510      1.0  0.59843  0.98860  0.19999  1.0000
  S   S86       1.0  0.53307  0.00738  0.30883  1.0000
  C   C309      1.0  0.43457  0.25003  0.03432  1.0000
  H   H511      1.0  0.44466  0.25852  0.99489  1.0000
  H   H512      1.0  0.43395  0.05086  0.15037  1.0000
  C   C310      1.0  0.60667  0.04240  0.20584  1.0000
  S   S87       1.0  0.53177  0.00792  0.13191  1.0000
  C   C311      1.0  0.65086  0.99641  0.35205  1.0000
  H   H513      1.0  0.44520  0.20746  0.02141  1.0000
  H   H514      1.0  0.57708  0.10265  0.10097  1.0000
  H   H515      1.0  0.50258  0.99481  0.22780  1.0000
  N   N23       1.0  0.42030  0.23272  0.99973  1.0000
  H   H516      1.0  0.60400  0.11572  0.09120  1.0000
  H   H517      1.0  0.58890  0.13003  0.04790  1.0000
  C   C312      1.0  0.58930  0.10913  0.08464  1.0000
  H   H518      1.0  0.63465  0.00382  0.34383  1.0000
  S   S88       1.0  0.32788  0.39509  0.00442  1.0000
  H   H519      1.0  0.48363  0.01397  0.11786  1.0000
  H   H520      1.0  0.63590  0.05935  0.18556  1.0000
  H   H521      1.0  0.45160  0.23839  0.03695  1.0000
  H   H522      1.0  0.37498  0.01349  0.11710  1.0000
  Fe  Fe45      1.0  0.65141  0.35287  0.98000  1.0000
  H   H523      1.0  0.40652  0.01175  0.11506  1.0000
  H   H524      1.0  0.37533  0.99210  0.16267  1.0000
  C   C313      1.0  0.65558  0.46436  0.01653  1.0000
  H   H525      1.0  0.47748  0.35807  0.98636  1.0000
  Fe  Fe46      1.0  0.40687  0.99926  0.28871  1.0000
  H   H526      1.0  0.33778  0.01740  0.36208  1.0000
  C   C314      1.0  0.48853  0.99483  0.31406  1.0000
  H   H527      1.0  0.48293  0.01286  0.30571  1.0000
  S   S89       1.0  0.33754  0.46000  0.99607  1.0000
  C   C315      1.0  0.40534  0.99598  0.19375  1.0000
  H   H528      1.0  0.42144  0.99007  0.20371  1.0000
  H   H529      1.0  0.59119  0.02584  0.16510  1.0000
  H   H530      1.0  0.60587  0.03550  0.10853  1.0000
  H   H531      1.0  0.37685  0.02632  0.19526  1.0000
  S   S90       1.0  0.37790  0.35314  0.98144  1.0000
  H   H532      1.0  0.37918  0.24363  0.04476  1.0000
  S   S91       1.0  0.57310  0.98346  0.25747  1.0000
  C   C316      1.0  0.44075  0.21289  0.00179  1.0000
  H   H533      1.0  0.39070  0.21266  0.00698  1.0000
  H   H534      1.0  0.45971  0.98425  0.11006  1.0000
  H   H535      1.0  0.41839  0.04481  0.12737  1.0000
  C   C317      1.0  0.62627  0.99035  0.15597  1.0000
  H   H536      1.0  0.43952  0.00833  0.13849  1.0000
  C   C318      1.0  0.64708  0.99317  0.13528  1.0000
  H   H537      1.0  0.40377  0.04705  0.15835  1.0000
  H   H538      1.0  0.40619  0.03259  0.19866  1.0000
  H   H539      1.0  0.57244  0.02322  0.14297  1.0000
  H   H540      1.0  0.47472  0.00271  0.19867  1.0000
  H   H541      1.0  0.62100  0.04089  0.13382  1.0000
  H   H542      1.0  0.58273  0.99413  0.11629  1.0000
  H   H543      1.0  0.65659  0.43104  0.00454  1.0000
  H   H544      1.0  0.56834  0.98119  0.16003  1.0000
  H   H545      1.0  0.59697  0.09343  0.07607  1.0000
  H   H546      1.0  0.42083  0.18293  0.00221  1.0000
  S   S92       1.0  0.64781  0.37876  0.00648  1.0000
  C   C319      1.0  0.57234  0.17608  0.02824  1.0000
  C   C320      1.0  0.60077  0.29352  0.97540  1.0000
  H   H547      1.0  0.63521  0.04129  0.26973  1.0000
  H   H548      1.0  0.39018  0.01522  0.22342  1.0000
  H   H549      1.0  0.61163  0.15515  0.05083  1.0000
  C   C321      1.0  0.38856  0.00411  0.15353  1.0000
  C   C322      1.0  0.60066  0.98809  0.12271  1.0000
  H   H550      1.0  0.50130  0.01209  0.18048  1.0000
  H   H551      1.0  0.62784  0.00215  0.16931  1.0000
  H   H552      1.0  0.64513  0.01041  0.12244  1.0000
  Fe  Fe47      1.0  0.56916  0.98944  0.29694  1.0000
  C   C323      1.0  0.48676  0.34064  0.98311  1.0000
  C   C324      1.0  0.63069  0.45779  0.98681  1.0000
  C   C325      1.0  0.49305  0.99668  0.19125  1.0000
  C   C326      1.0  0.50808  0.98431  0.21260  1.0000
  H   H553      1.0  0.50518  0.33857  0.98806  1.0000
  H   H554      1.0  0.33779  0.47160  0.07451  1.0000
  H   H555      1.0  0.49250  0.98538  0.17736  1.0000
  H   H556      1.0  0.65782  0.45453  0.10374  1.0000
  H   H557      1.0  0.65182  0.06636  0.25964  1.0000
  H   H558      1.0  0.41554  0.26988  0.00413  1.0000
  H   H559      1.0  0.38007  0.26162  0.01407  1.0000
  C   C327      1.0  0.58184  0.98626  0.19310  1.0000
  H   H560      1.0  0.65401  0.02809  0.36594  1.0000
  C   C328      1.0  0.64455  0.05407  0.27594  1.0000
  H   H561      1.0  0.33059  0.44994  0.05873  1.0000
  S   S93       1.0  0.40158  0.98324  0.32948  1.0000
  H   H562      1.0  0.39311  0.98255  0.20129  1.0000
  S   S94       1.0  0.37597  0.98502  0.27893  1.0000
  H   H563      1.0  0.45379  0.98487  0.31648  1.0000
  H   H564      1.0  0.39247  0.98510  0.12189  1.0000
  H   H565      1.0  0.65471  0.03388  0.31107  1.0000
  Fe  Fe48      1.0  0.32868  0.43040  0.97952  1.0000
  H   H566      1.0  0.65888  0.00910  0.26388  1.0000
  C   C329      1.0  0.32573  0.46858  0.06155  1.0000
  H   H567      1.0  0.32927  0.48074  0.04362  1.0000
  Fe  Fe49      1.0  0.47797  0.26431  0.92978  1.0000
  S   S95       1.0  0.51062  0.26558  0.90256  1.0000
  H   H568      1.0  0.49726  0.03898  0.92365  1.0000
  S   S96       1.0  0.53956  0.23164  0.94692  1.0000
  Fe  Fe50      1.0  0.52904  0.27092  0.93455  1.0000
  S   S97       1.0  0.54941  0.30295  0.92795  1.0000
  Fe  Fe51      1.0  0.51817  0.22640  0.91691  1.0000
  S   S98       1.0  0.53212  0.19949  0.89124  1.0000
  S   S99       1.0  0.48413  0.22473  0.94204  1.0000
  C   C330      1.0  0.43068  0.30511  0.95821  1.0000
  H   H569      1.0  0.40125  0.31640  0.90650  1.0000
  C   C331      1.0  0.48111  0.06156  0.86948  1.0000
  H   H570      1.0  0.48477  0.06781  0.65301  1.0000
  H   H571      1.0  0.57656  0.27202  0.96641  1.0000
  S   S100      1.0  0.39236  0.02317  0.61611  1.0000
  H   H572      1.0  0.53056  0.08693  0.88155  1.0000
  Fe  Fe52      1.0  0.38682  0.03097  0.65514  1.0000
  S   S101      1.0  0.39254  0.06683  0.66235  1.0000
  Fe  Fe53      1.0  0.35945  0.00528  0.62539  1.0000
  C   C332      1.0  0.48872  0.98592  0.83494  1.0000
  H   H573      1.0  0.65319  0.32419  0.93579  1.0000
  Fe  Fe54      1.0  0.55331  0.03355  0.61949  1.0000
  H   H574      1.0  0.52355  0.00391  0.59840  1.0000
  S   S102      1.0  0.51532  0.04873  0.61679  1.0000
  Fe  Fe55      1.0  0.59569  0.04464  0.64004  1.0000
  S   S103      1.0  0.61963  0.01363  0.62762  1.0000
  S   S104      1.0  0.60880  0.07122  0.65802  1.0000
  Fe  Fe56      1.0  0.60226  0.02376  0.59200  1.0000
  S   S105      1.0  0.61837  0.02809  0.55168  1.0000
  H   H575      1.0  0.36211  0.46546  0.94575  1.0000
  H   H576      1.0  0.62487  0.34100  0.88685  1.0000
  S   S106      1.0  0.58109  0.05672  0.60318  1.0000
  S   S107      1.0  0.56611  0.02407  0.65750  1.0000
  Fe  Fe57      1.0  0.50002  0.08153  0.79416  1.0000
  S   S108      1.0  0.46389  0.09899  0.80562  1.0000
  S   S109      1.0  0.51619  0.04757  0.81594  1.0000
  Fe  Fe58      1.0  0.50893  0.12024  0.75101  1.0000
  S   S110      1.0  0.47345  0.14128  0.75883  1.0000
  S   S111      1.0  0.53484  0.13596  0.72046  1.0000
  Fe  Fe59      1.0  0.48084  0.13226  0.79914  1.0000
  S   S112      1.0  0.46957  0.15789  0.82645  1.0000
  Fe  Fe60      1.0  0.45980  0.10607  0.76459  1.0000
  S   S113      1.0  0.42410  0.10302  0.75333  1.0000
  S   S114      1.0  0.51743  0.11408  0.79075  1.0000
  S   S115      1.0  0.49478  0.08580  0.75363  1.0000
  S   S116      1.0  0.44300  0.28340  0.91712  1.0000
  H   H577      1.0  0.50249  0.22770  0.82499  1.0000
  H   H578      1.0  0.53226  0.23254  0.82460  1.0000
  H   H579      1.0  0.45007  0.09994  0.86136  1.0000
  H   H580      1.0  0.46953  0.19305  0.76629  1.0000
  C   C333      1.0  0.49694  0.02624  0.81982  1.0000
  H   H581      1.0  0.41192  0.22341  0.96570  1.0000
  H   H582      1.0  0.44919  0.00159  0.71742  1.0000
  S   S117      1.0  0.33637  0.01397  0.59289  1.0000
  C   C334      1.0  0.45921  0.01504  0.81459  1.0000
  C   C335      1.0  0.47461  0.03219  0.81109  1.0000
  H   H583      1.0  0.47483  0.10822  0.70049  1.0000
  H   H584      1.0  0.36894  0.03336  0.79249  1.0000
  H   H585      1.0  0.49722  0.14763  0.66225  1.0000
  H   H586      1.0  0.46919  0.04990  0.80144  1.0000
  H   H587      1.0  0.44200  0.01964  0.80776  1.0000
  H   H588      1.0  0.48045  0.31302  0.91902  1.0000
  C   C336      1.0  0.48707  0.11363  0.68352  1.0000
  H   H589      1.0  0.47338  0.32297  0.95777  1.0000
  C   C337      1.0  0.58745  0.08863  0.67521  1.0000
  C   C338      1.0  0.56758  0.07958  0.68904  1.0000
  C   C339      1.0  0.55161  0.09362  0.70376  1.0000
  C   C340      1.0  0.55498  0.11706  0.70373  1.0000
  C   C341      1.0  0.57465  0.12608  0.68958  1.0000
  C   C342      1.0  0.59103  0.11181  0.67578  1.0000
  H   H590      1.0  0.56489  0.06163  0.68874  1.0000
  H   H591      1.0  0.53662  0.08647  0.71484  1.0000
  H   H592      1.0  0.57742  0.14413  0.68947  1.0000
  H   H593      1.0  0.60639  0.11886  0.66525  1.0000
  H   H594      1.0  0.47237  0.22275  0.74884  1.0000
  H   H595      1.0  0.45517  0.11724  0.91028  1.0000
  C   C343      1.0  0.49660  0.02818  0.61468  1.0000
  C   C344      1.0  0.50517  0.00729  0.60541  1.0000
  C   C345      1.0  0.39112  0.98969  0.80586  1.0000
  H   H596      1.0  0.45331  0.37795  0.91743  1.0000
  C   C346      1.0  0.45739  0.01626  0.62281  1.0000
  C   C347      1.0  0.47260  0.03282  0.62279  1.0000
  S   S118      1.0  0.57298  0.00140  0.60560  1.0000
  H   H597      1.0  0.53165  0.12224  0.62545  1.0000
  H   H598      1.0  0.43907  0.01992  0.62974  1.0000
  H   H599      1.0  0.46567  0.04912  0.62933  1.0000
  C   C348      1.0  0.41637  0.09087  0.72879  1.0000
  C   C349      1.0  0.43105  0.07315  0.71780  1.0000
  C   C350      1.0  0.42323  0.06402  0.69855  1.0000
  C   C351      1.0  0.40101  0.07299  0.69002  1.0000
  C   C352      1.0  0.38655  0.09045  0.70132  1.0000
  C   C353      1.0  0.39397  0.09897  0.72080  1.0000
  H   H600      1.0  0.44816  0.06639  0.72430  1.0000
  H   H601      1.0  0.43460  0.05067  0.68969  1.0000
  H   H602      1.0  0.36962  0.09785  0.69460  1.0000
  H   H603      1.0  0.38243  0.11250  0.72926  1.0000
  H   H604      1.0  0.51839  0.05180  0.89949  1.0000
  C   C354      1.0  0.40547  0.31761  0.92482  1.0000
  H   H605      1.0  0.37110  0.01509  0.71419  1.0000
  H   H606      1.0  0.46915  0.07143  0.92091  1.0000
  C   C355      1.0  0.41321  0.00328  0.73553  1.0000
  C   C356      1.0  0.42544  0.30351  0.93452  1.0000
  H   H607      1.0  0.53302  0.09062  0.63362  1.0000
  C   C357      1.0  0.45502  0.09584  0.88089  1.0000
  H   H608      1.0  0.51515  0.24949  0.80067  1.0000
  H   H609      1.0  0.47788  0.06729  0.84954  1.0000
  C   C358      1.0  0.48092  0.32871  0.90390  1.0000
  C   C359      1.0  0.51425  0.18726  0.87431  1.0000
  C   C360      1.0  0.52479  0.16973  0.86031  1.0000
  C   C361      1.0  0.51137  0.16025  0.84584  1.0000
  C   C362      1.0  0.48720  0.16821  0.84527  1.0000
  C   C363      1.0  0.47661  0.18547  0.85953  1.0000
  C   C364      1.0  0.49002  0.19497  0.87394  1.0000
  H   H610      1.0  0.54353  0.16366  0.86048  1.0000
  H   H611      1.0  0.51980  0.14709  0.83488  1.0000
  H   H612      1.0  0.45792  0.19177  0.85922  1.0000
  H   H613      1.0  0.48167  0.20846  0.88457  1.0000
  C   C365      1.0  0.48505  0.14091  0.67856  1.0000
  C   C366      1.0  0.44624  0.09901  0.63979  1.0000
  H   H614      1.0  0.51148  0.34155  0.91129  1.0000
  H   H615      1.0  0.54261  0.99593  0.76466  1.0000
  H   H616      1.0  0.49542  0.11569  0.87497  1.0000
  H   H617      1.0  0.60354  0.35151  0.95029  1.0000
  C   C367      1.0  0.45659  0.11119  0.65778  1.0000
  C   C368      1.0  0.41551  0.23909  0.97268  1.0000
  C   C369      1.0  0.41586  0.32040  0.97229  1.0000
  C   C370      1.0  0.46640  0.99179  0.82621  1.0000
  H   H618      1.0  0.52984  0.10906  0.65712  1.0000
  H   H619      1.0  0.33834  0.98340  0.52450  1.0000
  H   H620      1.0  0.44910  0.38965  0.96064  1.0000
  C   C371      1.0  0.59792  0.33412  0.95365  1.0000
  H   H621      1.0  0.60536  0.02055  0.71656  1.0000
  C   C372      1.0  0.60870  0.31588  0.97087  1.0000
  H   H622      1.0  0.53024  0.37068  0.91816  1.0000
  C   C373      1.0  0.57984  0.32984  0.94070  1.0000
  C   C374      1.0  0.63006  0.08792  0.55234  1.0000
  Fe  Fe61      1.0  0.34584  0.37995  0.97095  1.0000
  C   C375      1.0  0.58779  0.99924  0.74961  1.0000
  H   H623      1.0  0.52112  0.99850  0.83878  1.0000
  H   H624      1.0  0.49167  0.32257  0.88747  1.0000
  H   H625      1.0  0.37154  0.98693  0.75359  1.0000
  H   H626      1.0  0.52760  0.35516  0.95010  1.0000
  C   C376      1.0  0.39975  0.03291  0.76251  1.0000
  N   N24       1.0  0.39752  0.00828  0.75877  1.0000
  H   H627      1.0  0.46667  0.14940  0.67621  1.0000
  H   H628      1.0  0.61500  0.08493  0.54307  1.0000
  H   H629      1.0  0.64123  0.27977  0.92664  1.0000
  S   S119      1.0  0.64980  0.38074  0.94545  1.0000
  H   H630      1.0  0.50414  0.32467  0.95242  1.0000
  H   H631      1.0  0.35976  0.00920  0.77092  1.0000
  H   H632      1.0  0.62831  0.10723  0.55246  1.0000
  H   H633      1.0  0.62767  0.31011  0.91915  1.0000
  H   H634      1.0  0.41017  0.98625  0.73068  1.0000
  C   C377      1.0  0.48666  0.33523  0.95658  1.0000
  N   N25       1.0  0.57120  0.01662  0.76310  1.0000
  C   C378      1.0  0.57766  0.04132  0.75404  1.0000
  C   C379      1.0  0.37266  0.00564  0.75489  1.0000
  C   C380      1.0  0.54572  0.01483  0.76070  1.0000
  C   C381      1.0  0.56204  0.06113  0.76599  1.0000
  H   H635      1.0  0.40051  0.04494  0.74415  1.0000
  C   C382      1.0  0.53601  0.02560  0.73544  1.0000
  H   H636      1.0  0.57738  0.04688  0.73361  1.0000
  H   H637      1.0  0.59632  0.04182  0.75715  1.0000
  Fe  Fe62      1.0  0.50467  0.23266  0.97091  1.0000
  H   H638      1.0  0.45658  0.10018  0.62120  1.0000
  H   H639      1.0  0.37727  0.25137  0.97403  1.0000
  H   H640      1.0  0.53356  0.02253  0.77541  1.0000
  H   H641      1.0  0.56692  0.07861  0.75610  1.0000
  H   H642      1.0  0.54306  0.06133  0.76429  1.0000
  H   H643      1.0  0.51348  0.26095  0.73164  1.0000
  H   H644      1.0  0.50771  0.04428  0.68403  1.0000
  C   C383      1.0  0.46587  0.99522  0.61394  1.0000
  H   H645      1.0  0.63167  0.37048  0.88297  1.0000
  H   H646      1.0  0.52830  0.38651  0.94329  1.0000
  H   H647      1.0  0.54343  0.04169  0.72562  1.0000
  H   H648      1.0  0.51674  0.03144  0.73887  1.0000
  S   S120      1.0  0.35198  0.01649  0.66321  1.0000
  H   H649      1.0  0.48997  0.09204  0.91501  1.0000
  C   C384      1.0  0.46357  0.04389  0.88127  1.0000
  H   H650      1.0  0.39411  0.26228  0.94570  1.0000
  C   C385      1.0  0.63625  0.35207  0.89302  1.0000
  H   H651      1.0  0.43142  0.24519  0.96076  1.0000
  C   C386      1.0  0.57193  0.30745  0.94520  1.0000
  C   C387      1.0  0.64630  0.01431  0.54083  1.0000
  H   H652      1.0  0.44198  0.08455  0.89189  1.0000
  H   H653      1.0  0.59299  0.01269  0.79349  1.0000
  C   C388      1.0  0.39424  0.25805  0.96634  1.0000
  H   H654      1.0  0.44450  0.08022  0.64785  1.0000
  H   H655      1.0  0.53855  0.01242  0.72285  1.0000
  H   H656      1.0  0.60526  0.99527  0.75731  1.0000
  H   H657      1.0  0.52643  0.07375  0.85504  1.0000
  H   H658      1.0  0.42801  0.10788  0.63684  1.0000
  H   H659      1.0  0.49146  0.12901  0.62960  1.0000
  H   H660      1.0  0.44546  0.05079  0.87608  1.0000
  H   H661      1.0  0.44699  0.34923  0.93237  1.0000
  H   H662      1.0  0.54431  0.15495  0.76583  1.0000
  H   H663      1.0  0.44592  0.29429  0.96585  1.0000
  H   H664      1.0  0.49781  0.25817  0.76141  1.0000
  H   H665      1.0  0.48783  0.38410  0.95491  1.0000
  H   H666      1.0  0.55443  0.17453  0.78208  1.0000
  H   H667      1.0  0.63188  0.35266  0.91312  1.0000
  H   H668      1.0  0.45097  0.21800  0.77534  1.0000
  N   N26       1.0  0.48218  0.10276  0.66220  1.0000
  C   C389      1.0  0.49630  0.09955  0.86661  1.0000
  H   H669      1.0  0.46890  0.02718  0.87369  1.0000
  H   H670      1.0  0.42405  0.99174  0.78371  1.0000
  H   H671      1.0  0.52946  0.25840  0.75846  1.0000
  H   H672      1.0  0.49890  0.05113  0.86881  1.0000
  H   H673      1.0  0.49109  0.36382  0.89542  1.0000
  C   C390      1.0  0.48500  0.07609  0.66951  1.0000
  H   H674      1.0  0.38725  0.05597  0.78971  1.0000
  H   H675      1.0  0.55112  0.18278  0.74888  1.0000
  H   H676      1.0  0.49475  0.10005  0.62379  1.0000
  N   N27       1.0  0.51260  0.20955  0.77693  1.0000
  C   C391      1.0  0.51718  0.18405  0.77312  1.0000
  C   C392      1.0  0.48666  0.21485  0.78556  1.0000
  C   C393      1.0  0.52753  0.21199  0.79682  1.0000
  C   C394      1.0  0.51955  0.22499  0.75242  1.0000
  C   C395      1.0  0.54335  0.17393  0.76721  1.0000
  C   C396      1.0  0.46923  0.21192  0.76765  1.0000
  C   C397      1.0  0.51860  0.23175  0.81231  1.0000
  C   C398      1.0  0.51484  0.25205  0.75136  1.0000
  H   H677      1.0  0.50999  0.17216  0.78997  1.0000
  H   H678      1.0  0.50794  0.18154  0.75741  1.0000
  H   H679      1.0  0.48184  0.23306  0.78961  1.0000
  H   H680      1.0  0.48230  0.20329  0.80373  1.0000
  H   H681      1.0  0.52940  0.19538  0.81091  1.0000
  H   H682      1.0  0.54590  0.21454  0.78863  1.0000
  H   H683      1.0  0.53886  0.22114  0.74703  1.0000
  H   H684      1.0  0.51163  0.22065  0.73668  1.0000
  C   C399      1.0  0.45005  0.11932  0.89111  1.0000
  H   H685      1.0  0.43077  0.12560  0.89191  1.0000
  H   H686      1.0  0.51480  0.05927  0.92972  1.0000
  H   H687      1.0  0.52374  0.06836  0.67151  1.0000
  H   H688      1.0  0.56477  0.05974  0.78588  1.0000
  N   N28       1.0  0.47990  0.08291  0.88176  1.0000
  C   C400      1.0  0.48529  0.07639  0.90865  1.0000
  H   H689      1.0  0.45875  0.13362  0.87858  1.0000
  C   C401      1.0  0.50503  0.05544  0.91510  1.0000
  H   H690      1.0  0.36758  0.05826  0.76691  1.0000
  C   C402      1.0  0.57485  0.01008  0.79050  1.0000
  H   H691      1.0  0.56249  0.02179  0.80159  1.0000
  C   C403      1.0  0.63778  0.29506  0.91127  1.0000
  H   H692      1.0  0.50610  0.06740  0.70155  1.0000
  C   C404      1.0  0.48970  0.99096  0.60467  1.0000
  H   H693      1.0  0.46975  0.07046  0.68261  1.0000
  C   C405      1.0  0.39076  0.33320  0.93879  1.0000
  C   C406      1.0  0.49447  0.37681  0.93776  1.0000
  C   C407      1.0  0.52276  0.08989  0.86359  1.0000
  S   S121      1.0  0.40827  0.99734  0.67115  1.0000
  H   H694      1.0  0.46325  0.03930  0.90185  1.0000
  H   H695      1.0  0.50490  0.10705  0.68940  1.0000
  H   H696      1.0  0.53223  0.10349  0.85071  1.0000
  S   S122      1.0  0.34874  0.41580  0.94693  1.0000
  H   H697      1.0  0.62788  0.07831  0.57178  1.0000
  C   C408      1.0  0.50706  0.06377  0.68232  1.0000
  C   C409      1.0  0.49730  0.11031  0.63818  1.0000
  C   C410      1.0  0.40587  0.98980  0.78036  1.0000
  H   H698      1.0  0.46288  0.33513  0.89828  1.0000
  H   H699      1.0  0.42372  0.37993  0.95270  1.0000
  H   H700      1.0  0.44140  0.36005  0.97379  1.0000
  H   H701      1.0  0.40886  0.01719  0.71910  1.0000
  C   C411      1.0  0.44234  0.37398  0.95685  1.0000
  H   H702      1.0  0.49018  0.14666  0.69505  1.0000
  S   S123      1.0  0.62405  0.44001  0.96702  1.0000
  S   S124      1.0  0.49558  0.27217  0.96062  1.0000
  H   H703      1.0  0.44470  0.01760  0.74272  1.0000
  H   H704      1.0  0.39509  0.27498  0.97236  1.0000
  H   H705      1.0  0.44487  0.10889  0.67571  1.0000
  H   H706      1.0  0.49073  0.10595  0.84747  1.0000
  H   H707      1.0  0.34363  0.02060  0.73234  1.0000
  H   H708      1.0  0.57193  0.34398  0.92713  1.0000
  H   H709      1.0  0.37535  0.34397  0.93124  1.0000
  C   C412      1.0  0.50392  0.00315  0.83190  1.0000
  N   N29       1.0  0.48237  0.35609  0.93568  1.0000
  C   C413      1.0  0.45625  0.36411  0.93435  1.0000
  H   H710      1.0  0.45389  0.13050  0.65003  1.0000
  H   H711      1.0  0.49038  0.39191  0.92225  1.0000
  C   C414      1.0  0.52166  0.37171  0.93731  1.0000
  C   C415      1.0  0.52432  0.10764  0.63904  1.0000
  H   H712      1.0  0.41665  0.03311  0.77023  1.0000
  C   C416      1.0  0.36285  0.02153  0.73148  1.0000
  H   H713      1.0  0.36519  0.04039  0.72994  1.0000
  C   C417      1.0  0.49233  0.34844  0.91117  1.0000
  C   C418      1.0  0.37952  0.04525  0.77888  1.0000
  Fe  Fe63      1.0  0.41133  0.98826  0.63297  1.0000
  C   C419      1.0  0.39586  0.33450  0.96266  1.0000
  H   H714      1.0  0.64247  0.03129  0.50269  1.0000
  C   C420      1.0  0.58242  0.28933  0.96275  1.0000
  H   H715      1.0  0.62574  0.28945  0.89994  1.0000
  H   H716      1.0  0.34342  0.99481  0.47873  1.0000
  Fe  Fe64      1.0  0.58849  0.99388  0.64226  1.0000
  H   H717      1.0  0.65705  0.30384  0.87487  1.0000
  H   H718      1.0  0.57747  0.01274  0.71131  1.0000
  H   H719      1.0  0.37225  0.98835  0.80531  1.0000
  C   C421      1.0  0.44007  0.00198  0.73650  1.0000
  H   H720      1.0  0.39332  0.00516  0.81404  1.0000
  C   C422      1.0  0.59343  0.00664  0.72113  1.0000
  H   H721      1.0  0.60296  0.99105  0.71333  1.0000
  Fe  Fe65      1.0  0.64901  0.40622  0.97149  1.0000
  C   C423      1.0  0.65417  0.02001  0.51535  1.0000
  H   H722      1.0  0.65547  0.99492  0.57666  1.0000
  H   H723      1.0  0.64828  0.04451  0.58341  1.0000
  H   H724      1.0  0.44722  0.98540  0.74858  1.0000
  H   H725      1.0  0.65152  0.06220  0.53257  1.0000
  Fe  Fe66      1.0  0.37427  0.98196  0.67679  1.0000
  C   C424      1.0  0.57126  0.98450  0.80324  1.0000
  H   H726      1.0  0.43848  0.19194  0.97280  1.0000
  H   H727      1.0  0.65374  0.09207  0.51927  1.0000
  C   C425      1.0  0.65347  0.07944  0.53742  1.0000
  H   H728      1.0  0.46075  0.98163  0.67611  1.0000
  H   H729      1.0  0.58094  0.98190  0.75275  1.0000
  H   H730      1.0  0.57451  0.98194  0.82315  1.0000
  H   H731      1.0  0.55286  0.98103  0.80315  1.0000
  H   H732      1.0  0.42658  0.83885  0.01990  1.0000
  H   H733      1.0  0.50016  0.95257  0.27725  1.0000
  N   N30       1.0  0.49744  0.62769  0.99142  1.0000
  H   H734      1.0  0.46323  0.80729  0.01149  1.0000
  Fe  Fe67      1.0  0.37271  0.96614  0.31901  1.0000
  H   H735      1.0  0.60952  0.72055  0.00357  1.0000
  Fe  Fe68      1.0  0.46388  0.74791  0.01516  1.0000
  S   S125      1.0  0.45516  0.76652  0.04907  1.0000
  Fe  Fe69      1.0  0.44822  0.71091  0.98831  1.0000
  H   H736      1.0  0.52436  0.92944  0.24666  1.0000
  S   S126      1.0  0.47735  0.70954  0.01292  1.0000
  S   S127      1.0  0.43287  0.74784  0.99391  1.0000
  C   C426      1.0  0.33745  0.95165  0.41300  1.0000
  S   S128      1.0  0.39658  0.93313  0.31098  1.0000
  S   S129      1.0  0.45828  0.93476  0.33674  1.0000
  C   C427      1.0  0.51883  0.96400  0.33008  1.0000
  C   C428      1.0  0.54351  0.67385  0.00288  1.0000
  H   H737      1.0  0.60328  0.64412  0.05551  1.0000
  H   H738      1.0  0.41408  0.82834  0.99606  1.0000
  C   C429      1.0  0.47354  0.63766  0.03241  1.0000
  S   S130      1.0  0.40287  0.94017  0.23557  1.0000
  S   S131      1.0  0.58555  0.61073  0.01296  1.0000
  C   C430      1.0  0.43854  0.76580  0.21288  1.0000
  Fe  Fe70      1.0  0.59089  0.94734  0.27265  1.0000
  Fe  Fe71      1.0  0.65150  0.54494  0.00971  1.0000
  S   S132      1.0  0.57655  0.91547  0.26453  1.0000
  C   C431      1.0  0.48057  0.95676  0.23292  1.0000
  H   H739      1.0  0.46496  0.61203  0.99920  1.0000
  C   C432      1.0  0.60670  0.68283  0.02046  1.0000
  C   C433      1.0  0.64524  0.48806  0.01412  1.0000
  C   C434      1.0  0.52990  0.59078  0.99242  1.0000
  C   C435      1.0  0.58167  0.65046  0.97584  1.0000
  S   S133      1.0  0.58498  0.95260  0.31271  1.0000
  Fe  Fe72      1.0  0.49109  0.85984  0.17622  1.0000
  S   S134      1.0  0.52627  0.84145  0.16267  1.0000
  S   S135      1.0  0.47321  0.84928  0.21493  1.0000
  Fe  Fe73      1.0  0.48990  0.89816  0.13037  1.0000
  S   S136      1.0  0.52491  0.88289  0.11292  1.0000
  S   S137      1.0  0.46983  0.93328  0.11487  1.0000
  Fe  Fe74      1.0  0.51116  0.84766  0.12547  1.0000
  S   S138      1.0  0.51953  0.81901  0.10098  1.0000
  Fe  Fe75      1.0  0.53661  0.87817  0.15142  1.0000
  S   S139      1.0  0.57044  0.89082  0.15777  1.0000
  S   S140      1.0  0.47507  0.86350  0.14013  1.0000
  S   S141      1.0  0.50250  0.89586  0.16775  1.0000
  H   H740      1.0  0.40427  0.63782  0.99837  1.0000
  C   C436      1.0  0.48735  0.95496  0.11660  1.0000
  H   H741      1.0  0.51535  0.97805  0.26405  1.0000
  C   C437      1.0  0.34446  0.95593  0.38714  1.0000
  C   C438      1.0  0.40441  0.67403  0.97932  1.0000
  C   C439      1.0  0.52463  0.96489  0.12465  1.0000
  C   C440      1.0  0.51091  0.94812  0.12137  1.0000
  Fe  Fe76      1.0  0.62161  0.59327  0.99905  1.0000
  C   C441      1.0  0.59865  0.70648  0.00346  1.0000
  H   H742      1.0  0.54289  0.95934  0.12821  1.0000
  H   H743      1.0  0.51870  0.92986  0.12255  1.0000
  H   H744      1.0  0.43207  0.78330  0.21830  1.0000
  H   H745      1.0  0.45673  0.93237  0.25304  1.0000
  C   C442      1.0  0.57568  0.90872  0.23463  1.0000
  C   C443      1.0  0.55906  0.89437  0.23172  1.0000
  C   C444      1.0  0.55725  0.88889  0.20826  1.0000
  C   C445      1.0  0.57268  0.89700  0.18760  1.0000
  C   C446      1.0  0.58979  0.91081  0.19060  1.0000
  C   C447      1.0  0.59105  0.91702  0.21396  1.0000
  H   H746      1.0  0.54730  0.88768  0.24764  1.0000
  H   H747      1.0  0.54411  0.87813  0.20618  1.0000
  H   H748      1.0  0.60195  0.91684  0.17473  1.0000
  H   H749      1.0  0.60416  0.92777  0.21609  1.0000
  C   C448      1.0  0.50671  0.81630  0.98597  1.0000
  H   H750      1.0  0.53681  0.95829  0.33441  1.0000
  H   H751      1.0  0.42240  0.80841  0.02350  1.0000
  C   C449      1.0  0.47400  0.84755  0.02283  1.0000
  H   H752      1.0  0.60188  0.68553  0.04012  1.0000
  C   C450      1.0  0.50201  0.94811  0.33676  1.0000
  H   H753      1.0  0.63627  0.71970  0.03252  1.0000
  H   H754      1.0  0.63159  0.64382  0.06704  1.0000
  H   H755      1.0  0.42326  0.75556  0.21686  1.0000
  H   H756      1.0  0.50709  0.93028  0.34622  1.0000
  C   C451      1.0  0.42080  0.91353  0.23111  1.0000
  C   C452      1.0  0.42633  0.90899  0.20675  1.0000
  C   C453      1.0  0.44241  0.88932  0.20188  1.0000
  C   C454      1.0  0.45224  0.87330  0.22152  1.0000
  C   C455      1.0  0.44575  0.87699  0.24615  1.0000
  C   C456      1.0  0.43028  0.89732  0.25095  1.0000
  H   H757      1.0  0.41844  0.92092  0.19146  1.0000
  H   H758      1.0  0.44704  0.88647  0.18286  1.0000
  H   H759      1.0  0.45303  0.86441  0.26142  1.0000
  H   H760      1.0  0.42575  0.90050  0.26988  1.0000
  Fe  Fe77      1.0  0.40185  0.95328  0.27184  1.0000
  C   C457      1.0  0.47334  0.78296  0.06098  1.0000
  C   C458      1.0  0.46269  0.79986  0.07571  1.0000
  C   C459      1.0  0.47652  0.81209  0.08699  1.0000
  C   C460      1.0  0.50120  0.80697  0.08429  1.0000
  C   C461      1.0  0.51181  0.79053  0.06902  1.0000
  C   C462      1.0  0.49801  0.77878  0.05720  1.0000
  H   H761      1.0  0.44361  0.80331  0.07864  1.0000
  H   H762      1.0  0.46808  0.82487  0.09844  1.0000
  H   H763      1.0  0.53088  0.78648  0.06673  1.0000
  H   H764      1.0  0.50647  0.76582  0.04598  1.0000
  H   H765      1.0  0.59817  0.70396  0.98399  1.0000
  C   C463      1.0  0.58596  0.98005  0.16670  1.0000
  S   S142      1.0  0.65585  0.50721  0.02972  1.0000
  C   C464      1.0  0.47770  0.97888  0.11452  1.0000
  H   H766      1.0  0.59336  0.96095  0.16921  1.0000
  H   H767      1.0  0.60994  0.95861  0.10230  1.0000
  H   H768      1.0  0.62474  0.63717  0.01400  1.0000
  C   C465      1.0  0.53448  0.94825  0.18477  1.0000
  Fe  Fe78      1.0  0.49832  0.72416  0.97731  1.0000
  S   S143      1.0  0.62717  0.95863  0.26719  1.0000
  C   C466      1.0  0.47866  0.95532  0.33116  1.0000
  S   S144      1.0  0.64946  0.95615  0.33173  1.0000
  H   H769      1.0  0.51323  0.82953  0.99459  1.0000
  C   C467      1.0  0.45241  0.81737  0.99678  1.0000
  C   C468      1.0  0.51659  0.95849  0.26665  1.0000
  N   N31       1.0  0.46793  0.78190  0.17588  1.0000
  C   C469      1.0  0.44755  0.76783  0.18488  1.0000
  C   C470      1.0  0.47207  0.78447  0.14781  1.0000
  C   C471      1.0  0.46261  0.80621  0.18275  1.0000
  C   C472      1.0  0.48942  0.76904  0.18808  1.0000
  S   S145      1.0  0.62758  0.56144  0.98006  1.0000
  C   C473      1.0  0.48391  0.76195  0.13771  1.0000
  C   C474      1.0  0.43976  0.82128  0.17381  1.0000
  C   C475      1.0  0.51238  0.78054  0.18019  1.0000
  H   H770      1.0  0.43213  0.77524  0.17411  1.0000
  H   H771      1.0  0.45235  0.74935  0.18136  1.0000
  H   H772      1.0  0.48288  0.79894  0.13955  1.0000
  H   H773      1.0  0.45512  0.79013  0.13925  1.0000
  H   H774      1.0  0.46178  0.80516  0.20331  1.0000
  H   H775      1.0  0.47731  0.81678  0.17496  1.0000
  H   H776      1.0  0.48628  0.76785  0.20868  1.0000
  H   H777      1.0  0.49304  0.75015  0.18563  1.0000
  S   S146      1.0  0.65173  0.61026  0.97586  1.0000
  H   H778      1.0  0.50417  0.65271  0.01335  1.0000
  H   H779      1.0  0.63009  0.97202  0.16674  1.0000
  H   H780      1.0  0.48350  0.76506  0.11715  1.0000
  H   H781      1.0  0.50280  0.75777  0.14113  1.0000
  H   H782      1.0  0.47461  0.74638  0.14553  1.0000
  H   H783      1.0  0.43797  0.83878  0.17980  1.0000
  H   H784      1.0  0.42371  0.81319  0.18224  1.0000
  H   H785      1.0  0.44029  0.82479  0.15316  1.0000
  H   H786      1.0  0.51409  0.79281  0.19290  1.0000
  H   H787      1.0  0.51362  0.79051  0.16080  1.0000
  H   H788      1.0  0.52791  0.76650  0.18089  1.0000
  H   H789      1.0  0.45850  0.84999  0.03687  1.0000
  H   H790      1.0  0.48251  0.62210  0.04443  1.0000
  Fe  Fe79      1.0  0.61975  0.96743  0.30607  1.0000
  H   H791      1.0  0.45209  0.75599  0.22505  1.0000
  H   H792      1.0  0.52292  0.58426  0.97759  1.0000
  H   H793      1.0  0.54533  0.60017  0.98435  1.0000
  H   H794      1.0  0.50101  0.80165  0.00056  1.0000
  N   N32       1.0  0.50573  0.95853  0.22222  1.0000
  H   H795      1.0  0.49877  0.59479  0.01846  1.0000
  H   H796      1.0  0.47527  0.96804  0.24743  1.0000
  H   H797      1.0  0.63071  0.66587  0.97918  1.0000
  H   H798      1.0  0.47620  0.92052  0.22921  1.0000
  H   H799      1.0  0.53781  0.93557  0.17154  1.0000
  C   C476      1.0  0.62254  0.63801  0.05313  1.0000
  C   C477      1.0  0.63363  0.64565  0.02611  1.0000
  H   H800      1.0  0.62457  0.61832  0.05752  1.0000
  C   C478      1.0  0.62719  0.49643  0.99860  1.0000
  N   N33       1.0  0.46400  0.83775  0.98119  1.0000
  H   H801      1.0  0.64009  0.68004  0.05127  1.0000
  H   H802      1.0  0.64973  0.97869  0.12425  1.0000
  C   C479      1.0  0.47509  0.93147  0.24392  1.0000
  H   H803      1.0  0.54078  0.95307  0.23451  1.0000
  H   H804      1.0  0.53682  0.57499  0.00577  1.0000
  H   H805      1.0  0.48679  0.92260  0.25828  1.0000
  H   H806      1.0  0.62153  0.95259  0.13211  1.0000
  H   H807      1.0  0.44998  0.86852  0.99790  1.0000
  H   H808      1.0  0.45802  0.97295  0.16867  1.0000
  H   H809      1.0  0.58018  0.71304  0.01014  1.0000
  C   C480      1.0  0.52262  0.94910  0.24181  1.0000
  H   H810      1.0  0.52904  0.68296  0.01350  1.0000
  H   H811      1.0  0.45077  0.80411  0.98508  1.0000
  C   C481      1.0  0.60612  0.96126  0.12201  1.0000
  S   S147      1.0  0.43012  0.67745  0.99253  1.0000
  H   H812      1.0  0.48671  0.85875  0.02650  1.0000
  H   H813      1.0  0.45096  0.94462  0.16672  1.0000
  N   N34       1.0  0.51853  0.87189  0.32091  1.0000
  C   C482      1.0  0.54398  0.87664  0.31720  1.0000
  C   C483      1.0  0.51852  0.84774  0.31449  1.0000
  C   C484      1.0  0.50995  0.87134  0.34818  1.0000
  C   C485      1.0  0.50418  0.89143  0.30456  1.0000
  C   C486      1.0  0.54871  0.89974  0.32451  1.0000
  C   C487      1.0  0.52816  0.84510  0.28740  1.0000
  C   C488      1.0  0.48451  0.86596  0.35682  1.0000
  C   C489      1.0  0.48044  0.88586  0.29809  1.0000
  H   H814      1.0  0.55540  0.86175  0.32780  1.0000
  H   H815      1.0  0.55122  0.87776  0.29725  1.0000
  H   H816      1.0  0.50067  0.84221  0.31765  1.0000
  H   H817      1.0  0.52917  0.83392  0.32716  1.0000
  H   H818      1.0  0.52192  0.85819  0.36009  1.0000
  H   H819      1.0  0.51032  0.88876  0.35354  1.0000
  H   H820      1.0  0.50029  0.90766  0.31313  1.0000
  H   H821      1.0  0.51476  0.89673  0.28638  1.0000
  H   H822      1.0  0.54556  0.89947  0.34491  1.0000
  H   H823      1.0  0.56771  0.90170  0.31931  1.0000
  H   H824      1.0  0.53851  0.91561  0.31421  1.0000
  H   H825      1.0  0.54768  0.84436  0.28439  1.0000
  H   H826      1.0  0.52405  0.82807  0.28373  1.0000
  H   H827      1.0  0.52003  0.85942  0.27335  1.0000
  H   H828      1.0  0.48136  0.86481  0.37741  1.0000
  H   H829      1.0  0.48120  0.84880  0.35295  1.0000
  H   H830      1.0  0.47137  0.88070  0.34892  1.0000
  H   H831      1.0  0.46695  0.90177  0.29854  1.0000
  H   H832      1.0  0.47271  0.87113  0.31072  1.0000
  H   H833      1.0  0.48225  0.88246  0.27868  1.0000
  H   H834      1.0  0.65224  0.63689  0.02547  1.0000
  C   C490      1.0  0.55446  0.65132  0.01328  1.0000
  C   C491      1.0  0.51166  0.94393  0.20176  1.0000
  H   H835      1.0  0.61869  0.51448  0.99725  1.0000
  S   S148      1.0  0.33502  0.96643  0.33769  1.0000
  H   H836      1.0  0.45609  0.63401  0.02874  1.0000
  H   H837      1.0  0.54821  0.64303  0.03191  1.0000
  C   C492      1.0  0.42747  0.82402  0.00967  1.0000
  H   H838      1.0  0.46979  0.65233  0.04330  1.0000
  C   C493      1.0  0.57334  0.63944  0.99967  1.0000
  H   H839      1.0  0.54988  0.94536  0.19555  1.0000
  H   H840      1.0  0.49707  0.94655  0.18960  1.0000
  H   H841      1.0  0.51363  0.92462  0.20972  1.0000
  H   H842      1.0  0.46825  0.96395  0.21846  1.0000
  H   H843      1.0  0.53103  0.95114  0.27872  1.0000
  Fe  Fe80      1.0  0.42575  0.95197  0.31810  1.0000
  C   C494      1.0  0.47598  0.62088  0.98294  1.0000
  C   C495      1.0  0.48895  0.64592  0.00796  1.0000
  H   H844      1.0  0.53291  0.96630  0.17352  1.0000
  S   S149      1.0  0.64322  0.57527  0.03040  1.0000
  H   H845      1.0  0.33118  0.50871  0.99995  1.0000
  H   H846      1.0  0.59483  0.67046  0.01757  1.0000
  H   H847      1.0  0.59054  0.95207  0.13010  1.0000
  H   H848      1.0  0.35045  0.95002  0.42601  1.0000
  H   H849      1.0  0.47825  0.66162  0.99792  1.0000
  H   H850      1.0  0.46373  0.63676  0.97541  1.0000
  S   S150      1.0  0.43286  0.96934  0.27824  1.0000
  H   H851      1.0  0.48262  0.82907  0.02682  1.0000
  C   C496      1.0  0.51104  0.60658  0.00673  1.0000
  N   N35       1.0  0.63229  0.67206  0.01655  1.0000
  C   C497      1.0  0.64748  0.68191  0.03133  1.0000
  H   H852      1.0  0.44045  0.95643  0.19424  1.0000
  H   H853      1.0  0.52092  0.61248  0.02011  1.0000
  C   C498      1.0  0.32771  0.95843  0.37018  1.0000
  C   C499      1.0  0.39557  0.65206  0.98548  1.0000
  H   H854      1.0  0.63800  0.69408  0.97970  1.0000
  H   H855      1.0  0.57439  0.97154  0.20632  1.0000
  H   H856      1.0  0.52939  0.64292  0.97682  1.0000
  H   H857      1.0  0.40779  0.96008  0.16822  1.0000
  C   C500      1.0  0.55107  0.68439  0.97862  1.0000
  C   C501      1.0  0.65058  0.70833  0.02310  1.0000
  H   H858      1.0  0.36272  0.95771  0.38031  1.0000
  C   C502      1.0  0.61992  0.48130  0.98491  1.0000
  C   C503      1.0  0.47191  0.97883  0.32014  1.0000
  H   H859      1.0  0.36844  0.63166  0.98082  1.0000
  C   C504      1.0  0.44396  0.96137  0.17370  1.0000
  C   C505      1.0  0.46688  0.85639  0.99594  1.0000
  H   H860      1.0  0.42573  0.97214  0.14131  1.0000
  H   H861      1.0  0.65139  0.71447  0.00268  1.0000
  S   S151      1.0  0.48697  0.76231  0.98118  1.0000
  H   H862      1.0  0.48012  0.86783  0.98559  1.0000
  C   C506      1.0  0.42117  0.97253  0.16158  1.0000
  C   C507      1.0  0.64098  0.67531  0.98908  1.0000
  C   C508      1.0  0.33974  0.50704  0.98152  1.0000
  C   C509      1.0  0.37525  0.64849  0.97553  1.0000
  H   H863      1.0  0.34483  0.96489  0.47476  1.0000
  H   H864      1.0  0.36372  0.70303  0.94001  1.0000
  S   S152      1.0  0.47017  0.72356  0.95260  1.0000
  H   H865      1.0  0.49520  0.60688  0.94973  1.0000
  C   C510      1.0  0.39280  0.69233  0.96279  1.0000
  H   H866      1.0  0.43317  0.64935  0.89817  1.0000
  S   S153      1.0  0.44102  0.79159  0.93262  1.0000
  C   C511      1.0  0.36651  0.95560  0.56173  1.0000
  Fe  Fe81      1.0  0.47060  0.93817  0.81645  1.0000
  S   S154      1.0  0.50545  0.92291  0.83077  1.0000
  H   H867      1.0  0.60626  0.48791  0.97255  1.0000
  Fe  Fe82      1.0  0.47610  0.90646  0.77828  1.0000
  S   S155      1.0  0.51171  0.88879  0.78890  1.0000
  S   S156      1.0  0.46215  0.89628  0.74601  1.0000
  Fe  Fe83      1.0  0.49521  0.88773  0.82843  1.0000
  S   S157      1.0  0.50760  0.85480  0.85554  1.0000
  Fe  Fe84      1.0  0.51883  0.92529  0.79033  1.0000
  S   S158      1.0  0.55384  0.93856  0.77777  1.0000
  S   S159      1.0  0.45873  0.90277  0.81771  1.0000
  S   S160      1.0  0.48478  0.94319  0.77601  1.0000
  S   S161      1.0  0.59406  0.95681  0.66421  1.0000
  S   S162      1.0  0.44689  0.97387  0.61586  1.0000
  H   H868      1.0  0.54562  0.90911  0.70633  1.0000
  H   H869      1.0  0.46435  0.88223  0.94839  1.0000
  C   C512      1.0  0.44825  0.84898  0.96087  1.0000
  C   C513      1.0  0.40988  0.59180  0.95011  1.0000
  C   C514      1.0  0.57051  0.67288  0.96534  1.0000
  H   H870      1.0  0.36635  0.62591  0.92030  1.0000
  H   H871      1.0  0.47600  0.77478  0.85494  1.0000
  H   H872      1.0  0.48569  0.93868  0.63429  1.0000
  C   C515      1.0  0.49062  0.92006  0.64306  1.0000
  C   C516      1.0  0.56293  0.94222  0.74569  1.0000
  C   C517      1.0  0.58362  0.92874  0.73731  1.0000
  C   C518      1.0  0.59283  0.93330  0.71222  1.0000
  H   H873      1.0  0.37037  0.59893  0.89041  1.0000
  H   H874      1.0  0.59263  0.91480  0.75029  1.0000
  H   H875      1.0  0.60870  0.92256  0.70578  1.0000
  C   C519      1.0  0.39342  0.94218  0.72400  1.0000
  C   C520      1.0  0.40967  0.93294  0.70596  1.0000
  C   C521      1.0  0.43032  0.91821  0.71301  1.0000
  C   C522      1.0  0.43558  0.91388  0.73784  1.0000
  C   C523      1.0  0.41952  0.92347  0.75587  1.0000
  C   C524      1.0  0.39813  0.93699  0.74906  1.0000
  H   H876      1.0  0.44221  0.91031  0.69911  1.0000
  H   H877      1.0  0.42329  0.91995  0.77514  1.0000
  H   H878      1.0  0.38536  0.94367  0.76315  1.0000
  H   H879      1.0  0.40137  0.60775  0.95764  1.0000
  C   C525      1.0  0.49480  0.96033  0.67075  1.0000
  C   C526      1.0  0.64406  0.51226  0.92428  1.0000
  H   H880      1.0  0.42928  0.59159  0.94660  1.0000
  H   H881      1.0  0.43709  0.87026  0.79476  1.0000
  S   S163      1.0  0.36751  0.96065  0.71528  1.0000
  H   H882      1.0  0.37339  0.66839  0.89976  1.0000
  H   H883      1.0  0.38178  0.93268  0.52070  1.0000
  H   H884      1.0  0.53274  0.81464  0.80841  1.0000
  C   C527      1.0  0.45967  0.80930  0.91158  1.0000
  C   C528      1.0  0.44977  0.83042  0.89718  1.0000
  C   C529      1.0  0.46427  0.84493  0.88024  1.0000
  C   C530      1.0  0.48873  0.83823  0.87759  1.0000
  C   C531      1.0  0.49859  0.81722  0.89216  1.0000
  C   C532      1.0  0.48413  0.80279  0.90912  1.0000
  H   H885      1.0  0.43082  0.83556  0.89914  1.0000
  H   H886      1.0  0.45654  0.86115  0.86914  1.0000
  H   H887      1.0  0.51753  0.81197  0.89013  1.0000
  H   H888      1.0  0.49190  0.78654  0.92015  1.0000
  N   N36       1.0  0.34456  0.94517  0.52760  1.0000
  H   H889      1.0  0.42840  0.85105  0.82307  1.0000
  H   H890      1.0  0.64106  0.52156  0.94049  1.0000
  C   C533      1.0  0.34755  0.96983  0.51346  1.0000
  H   H891      1.0  0.48488  0.81508  0.95721  1.0000
  H   H892      1.0  0.53354  0.96927  0.63702  1.0000
  H   H893      1.0  0.45540  0.81494  0.85015  1.0000
  C   C534      1.0  0.51596  0.81824  0.79950  1.0000
  H   H894      1.0  0.47557  0.85082  0.79069  1.0000
  H   H895      1.0  0.52090  0.62647  0.95687  1.0000
  C   C535      1.0  0.40206  0.58041  0.87365  1.0000
  H   H896      1.0  0.47476  0.91141  0.64278  1.0000
  C   C536      1.0  0.47283  0.81986  0.76356  1.0000
  C   C537      1.0  0.48030  0.60365  0.96423  1.0000
  H   H897      1.0  0.50371  0.97364  0.67692  1.0000
  C   C538      1.0  0.33798  0.97731  0.48770  1.0000
  Fe  Fe85      1.0  0.45692  0.76039  0.95984  1.0000
  C   C539      1.0  0.34563  0.94497  0.55504  1.0000
  H   H898      1.0  0.40934  0.57231  0.92139  1.0000
  S   S164      1.0  0.35754  0.55172  0.91824  1.0000
  H   H899      1.0  0.44948  0.80079  0.79080  1.0000
  H   H900      1.0  0.46465  0.60632  0.95366  1.0000
  H   H901      1.0  0.46669  0.95920  0.70264  1.0000
  C   C540      1.0  0.43539  0.63087  0.90871  1.0000
  C   C541      1.0  0.42478  0.61416  0.89556  1.0000
  C   C542      1.0  0.38414  0.63066  0.91235  1.0000
  C   C543      1.0  0.53664  0.94993  0.63677  1.0000
  H   H902      1.0  0.53558  0.97095  0.73547  1.0000
  H   H903      1.0  0.40707  0.97171  0.77590  1.0000
  H   H904      1.0  0.49780  0.81498  0.83655  1.0000
  H   H905      1.0  0.42866  0.63081  0.92851  1.0000
  N   N37       1.0  0.47121  0.81554  0.81195  1.0000
  H   H906      1.0  0.50114  0.78936  0.82270  1.0000
  H   H907      1.0  0.55532  0.94601  0.62890  1.0000
  C   C544      1.0  0.36558  0.92238  0.49253  1.0000
  H   H908      1.0  0.51289  0.83761  0.79300  1.0000
  N   N38       1.0  0.39983  0.60931  0.90485  1.0000
  H   H909      1.0  0.47223  0.80890  0.74921  1.0000
  C   C545      1.0  0.56143  0.96584  0.70399  1.0000
  H   H910      1.0  0.36653  0.97253  0.51074  1.0000
  C   C546      1.0  0.36200  0.50328  0.93375  1.0000
  H   H911      1.0  0.58381  0.97098  0.79480  1.0000
  H   H912      1.0  0.49034  0.82609  0.76031  1.0000
  C   C547      1.0  0.52699  0.90824  0.71434  1.0000
  H   H913      1.0  0.37599  0.93486  0.47916  1.0000
  H   H914      1.0  0.38795  0.61694  0.86774  1.0000
  H   H915      1.0  0.51901  0.80867  0.78352  1.0000
  H   H916      1.0  0.47921  0.78739  0.79006  1.0000
  C   C548      1.0  0.46514  0.84217  0.80749  1.0000
  H   H917      1.0  0.52538  0.94564  0.62391  1.0000
  C   C549      1.0  0.58205  0.95208  0.69559  1.0000
  H   H918      1.0  0.50561  0.91189  0.63130  1.0000
  C   C550      1.0  0.35480  0.52568  0.94026  1.0000
  H   H919      1.0  0.45480  0.62550  0.90821  1.0000
  H   H920      1.0  0.40603  0.93666  0.68662  1.0000
  S   S165      1.0  0.44804  0.96985  0.82862  1.0000
  H   H921      1.0  0.43089  0.84134  0.79336  1.0000
  C   C551      1.0  0.46792  0.80485  0.78981  1.0000
  H   H922      1.0  0.36545  0.97497  0.55460  1.0000
  H   H923      1.0  0.51601  0.94579  0.71062  1.0000
  C   C552      1.0  0.39944  0.58894  0.92665  1.0000
  H   H924      1.0  0.43630  0.80894  0.82996  1.0000
  H   H925      1.0  0.44516  0.77323  0.85783  1.0000
  C   C553      1.0  0.45791  0.86852  0.94048  1.0000
  H   H926      1.0  0.49578  0.84243  0.95563  1.0000
  H   H927      1.0  0.54172  0.91695  0.66263  1.0000
  C   C554      1.0  0.49645  0.91698  0.67023  1.0000
  C   C555      1.0  0.46025  0.77887  0.84433  1.0000
  H   H928      1.0  0.52105  0.89181  0.71136  1.0000
  H   H929      1.0  0.49415  0.96814  0.84442  1.0000
  H   H930      1.0  0.63727  0.49489  0.92951  1.0000
  H   H931      1.0  0.52687  0.90688  0.73481  1.0000
  H   H932      1.0  0.37037  0.50183  0.91519  1.0000
  H   H933      1.0  0.54483  0.94259  0.67411  1.0000
  H   H934      1.0  0.57660  0.68112  0.94663  1.0000
  C   C556      1.0  0.45503  0.80570  0.83426  1.0000
  H   H935      1.0  0.47204  0.86093  0.92737  1.0000
  H   H936      1.0  0.34651  0.92660  0.56596  1.0000
  H   H937      1.0  0.45914  0.83549  0.75991  1.0000
  H   H938      1.0  0.49263  0.92842  0.71498  1.0000
  H   H939      1.0  0.48000  0.91429  0.68285  1.0000
  H   H940      1.0  0.38392  0.94651  0.55522  1.0000
  C   C557      1.0  0.43883  0.85149  0.80451  1.0000
  H   H941      1.0  0.45832  0.95176  0.67459  1.0000
  C   C558      1.0  0.38032  0.65242  0.89133  1.0000
  H   H942      1.0  0.47002  0.84948  0.82319  1.0000
  H   H943      1.0  0.46253  0.76818  0.82929  1.0000
  H   H944      1.0  0.50749  0.89941  0.67396  1.0000
  H   H945      1.0  0.42087  0.58208  0.86716  1.0000
  C   C559      1.0  0.46873  0.96297  0.68195  1.0000
  H   H946      1.0  0.32923  0.95482  0.56307  1.0000
  H   H947      1.0  0.63321  0.52336  0.90989  1.0000
  C   C560      1.0  0.55161  0.96058  0.72896  1.0000
  H   H948      1.0  0.39068  0.63690  0.92763  1.0000
  N   N39       1.0  0.50857  0.93592  0.67659  1.0000
  C   C561      1.0  0.51022  0.93063  0.70444  1.0000
  C   C562      1.0  0.49622  0.80893  0.81888  1.0000
  C   C563      1.0  0.53338  0.93549  0.66344  1.0000
  H   H949      1.0  0.34816  0.92295  0.48589  1.0000
  H   H950      1.0  0.36565  0.95342  0.58240  1.0000
  H   H951      1.0  0.42566  0.62260  0.87545  1.0000
  C   C564      1.0  0.37256  0.68870  0.95272  1.0000
  H   H952      1.0  0.32763  0.90006  0.53392  1.0000
  H   H953      1.0  0.37436  0.90401  0.49188  1.0000
  H   H954      1.0  0.49440  0.96654  0.65050  1.0000
  H   H955      1.0  0.40066  0.56365  0.88716  1.0000
  H   H956      1.0  0.51542  0.66677  0.93716  1.0000
  C   C565      1.0  0.34408  0.52742  0.96429  1.0000
  H   H957      1.0  0.39682  0.65608  0.87935  1.0000
  H   H958      1.0  0.49625  0.97489  0.59735  1.0000
  H   H959      1.0  0.38097  0.58521  0.93266  1.0000
  S   S166      1.0  0.53651  0.71171  0.96433  1.0000
  H   H960      1.0  0.36477  0.90981  0.53239  1.0000
  H   H961      1.0  0.36674  0.65022  0.87963  1.0000
  H   H962      1.0  0.40668  0.57633  0.96505  1.0000
  H   H963      1.0  0.43095  0.85726  0.96894  1.0000
  H   H964      1.0  0.39802  0.97374  0.81902  1.0000
  H   H965      1.0  0.39348  0.57861  0.85724  1.0000
  C   C566      1.0  0.38897  0.60231  0.88417  1.0000
  C   C567      1.0  0.36439  0.92717  0.51939  1.0000
  H   H966      1.0  0.43702  0.59719  0.89656  1.0000
  C   C568      1.0  0.51354  0.63881  0.96984  1.0000
  H   H967      1.0  0.59627  0.64145  0.96525  1.0000
  H   H968      1.0  0.55275  0.98007  0.69109  1.0000
  S   S167      1.0  0.37919  0.96946  0.63983  1.0000
  H   H969      1.0  0.49999  0.67688  0.96401  1.0000
  H   H970      1.0  0.44346  0.87755  0.92900  1.0000
  C   C569      1.0  0.35721  0.48274  0.95096  1.0000
  Fe  Fe86      1.0  0.33216  0.58006  0.93367  1.0000
  H   H971      1.0  0.44391  0.83527  0.95116  1.0000
  H   H972      1.0  0.48598  0.65993  0.94690  1.0000
  H   H973      1.0  0.39932  0.70933  0.95786  1.0000
  C   C570      1.0  0.50272  0.66183  0.95375  1.0000
  C   C571      1.0  0.36362  0.66681  0.95901  1.0000
  C   C572      1.0  0.48748  0.82813  0.96875  1.0000
  S   S168      1.0  0.33830  0.66306  0.94532  1.0000
  H   H974      1.0  0.33884  0.54448  0.96971  1.0000
  S   S169      1.0  0.33721  0.59344  0.96816  1.0000
  C   C573      1.0  0.34565  0.48474  0.97470  1.0000
  H   H975      1.0  0.52212  0.80839  0.97449  1.0000
  H   H976      1.0  0.48286  0.58494  0.97409  1.0000
  C   C574      1.0  0.88471  0.45634  0.27714  1.0000
  H   H977      1.0  0.87921  0.23502  0.46288  1.0000
  Fe  Fe87      1.0  0.76051  0.03902  0.43586  1.0000
  S   S170      1.0  0.77818  0.07291  0.42842  1.0000
  Fe  Fe88      1.0  0.72610  0.01199  0.41608  1.0000
  S   S171      1.0  0.69718  0.01978  0.38913  1.0000
  S   S172      1.0  0.72195  0.03479  0.44602  1.0000
  S   S173      1.0  0.76370  0.01908  0.40392  1.0000
  H   H978      1.0  0.70511  0.47599  0.04918  1.0000
  Fe  Fe89      1.0  0.68748  0.37719  0.00061  1.0000
  H   H979      1.0  0.69460  0.02225  0.22525  1.0000
  S   S174      1.0  0.71169  0.37133  0.03142  1.0000
  C   C575      1.0  0.66383  0.04205  0.29300  1.0000
  H   H980      1.0  0.87289  0.44479  0.20587  1.0000
  S   S175      1.0  0.76385  0.42710  0.09267  1.0000
  Fe  Fe90      1.0  0.96192  0.29653  0.39461  1.0000
  C   C576      1.0  0.95698  0.35101  0.44886  1.0000
  S   S176      1.0  0.93219  0.29322  0.42529  1.0000
  C   C577      1.0  0.68667  0.03738  0.23462  1.0000
  C   C578      1.0  0.96548  0.22811  0.41334  1.0000
  H   H981      1.0  0.75279  0.39169  0.00168  1.0000
  H   H982      1.0  0.69774  0.44393  0.11741  1.0000
  H   H983      1.0  0.89909  0.09799  0.45845  1.0000
  H   H984      1.0  0.75071  0.16249  0.45537  1.0000
  S   S177      1.0  0.96486  0.28514  0.35743  1.0000
  H   H985      1.0  0.98004  0.20026  0.36610  1.0000
  C   C579      1.0  0.91307  0.27281  0.42382  1.0000
  C   C580      1.0  0.88747  0.24408  0.44557  1.0000
  C   C581      1.0  0.90220  0.26104  0.44608  1.0000
  N   N40       1.0  0.93898  0.34804  0.47153  1.0000
  H   H986      1.0  0.96793  0.22229  0.43341  1.0000
  Fe  Fe91      1.0  0.78633  0.45688  0.08828  1.0000
  H   H987      1.0  0.76206  0.16535  0.41300  1.0000
  C   C582      1.0  0.77231  0.19924  0.42038  1.0000
  H   H988      1.0  0.99206  0.40515  0.36460  1.0000
  C   C583      1.0  0.69612  0.45642  0.09934  1.0000
  H   H989      1.0  0.76592  0.18825  0.38589  1.0000
  H   H990      1.0  0.92446  0.44187  0.25068  1.0000
  S   S178      1.0  0.69122  0.34844  0.97749  1.0000
  H   H991      1.0  0.80761  0.19113  0.38281  1.0000
  C   C584      1.0  0.72465  0.38913  0.04743  1.0000
  C   C585      1.0  0.72635  0.41342  0.03908  1.0000
  C   C586      1.0  0.73929  0.42549  0.05183  1.0000
  C   C587      1.0  0.74952  0.41348  0.07355  1.0000
  C   C588      1.0  0.74695  0.38959  0.08203  1.0000
  C   C589      1.0  0.73508  0.37748  0.06889  1.0000
  H   H992      1.0  0.71805  0.42269  0.02271  1.0000
  H   H993      1.0  0.74094  0.44403  0.04521  1.0000
  H   H994      1.0  0.75446  0.38018  0.09885  1.0000
  H   H995      1.0  0.73390  0.35881  0.07557  1.0000
  H   H996      1.0  0.98686  0.17375  0.45852  1.0000
  C   C590      1.0  0.95504  0.42172  0.29240  1.0000
  C   C591      1.0  0.95079  0.40803  0.31621  1.0000
  C   C592      1.0  0.95660  0.38325  0.32007  1.0000
  H   H997      1.0  0.69994  0.05321  0.26181  1.0000
  C   C593      1.0  0.99007  0.17555  0.43787  1.0000
  C   C594      1.0  0.91603  0.34407  0.46348  1.0000
  H   H998      1.0  0.79900  0.15410  0.41770  1.0000
  H   H999      1.0  0.95336  0.37281  0.33847  1.0000
  H   H1000     1.0  0.93032  0.38619  0.46869  1.0000
  C   C595      1.0  0.80843  0.16850  0.42037  1.0000
  C   C596      1.0  0.78446  0.17371  0.45990  1.0000
  S   S179      1.0  0.77299  0.00680  0.46294  1.0000
  H   H1001     1.0  0.90183  0.41533  0.21849  1.0000
  H   H1002     1.0  0.98253  0.22985  0.40174  1.0000
  H   H1003     1.0  0.96029  0.33483  0.44019  1.0000
  H   H1004     1.0  0.70178  0.47180  0.97872  1.0000
  H   H1005     1.0  0.71420  0.00183  0.29605  1.0000
  H   H1006     1.0  0.89933  0.46609  0.27935  1.0000
  H   H1007     1.0  0.68993  0.00289  0.31910  1.0000
  H   H1008     1.0  0.98795  0.11585  0.45198  1.0000
  H   H1009     1.0  0.71772  0.04539  0.29888  1.0000
  H   H1010     1.0  0.93431  0.21189  0.41781  1.0000
  H   H1011     1.0  0.93224  0.41530  0.22136  1.0000
  H   H1012     1.0  0.77623  0.14046  0.45050  1.0000
  H   H1013     1.0  0.82138  0.45750  0.02707  1.0000
  C   C597      1.0  0.87052  0.47896  0.15054  1.0000
  Fe  Fe92      1.0  0.77424  0.98640  0.43190  1.0000
  H   H1014     1.0  0.84921  0.44915  0.25851  1.0000
  H   H1015     1.0  0.74968  0.35091  0.97847  1.0000
  H   H1016     1.0  0.91039  0.16387  0.39754  1.0000
  C   C598      1.0  0.90889  0.43419  0.24729  1.0000
  C   C599      1.0  0.69898  0.01401  0.30302  1.0000
  H   H1017     1.0  0.80886  0.23633  0.45167  1.0000
  H   H1018     1.0  0.95577  0.24630  0.41158  1.0000
  N   N41       1.0  0.79284  0.18620  0.43422  1.0000
  H   H1019     1.0  0.92027  0.16889  0.42532  1.0000
  H   H1020     1.0  0.73561  0.47581  0.09783  1.0000
  H   H1021     1.0  0.95120  0.38926  0.43252  1.0000
  H   H1022     1.0  0.77998  0.39016  0.03349  1.0000
  H   H1023     1.0  0.92395  0.47560  0.17318  1.0000
  H   H1024     1.0  0.89028  0.24753  0.38271  1.0000
  H   H1025     1.0  0.74070  0.19085  0.40782  1.0000
  Fe  Fe93      1.0  0.82481  0.47283  0.11415  1.0000
  H   H1026     1.0  0.91893  0.07316  0.45264  1.0000
  C   C600      1.0  0.89279  0.46924  0.15852  1.0000
  H   H1027     1.0  0.75850  0.20754  0.43339  1.0000
  H   H1028     1.0  0.81436  0.21442  0.41918  1.0000
  C   C601      1.0  0.95067  0.37177  0.42745  1.0000
  H   H1029     1.0  0.96857  0.30188  0.46695  1.0000
  H   H1030     1.0  0.90541  0.26483  0.46377  1.0000
  H   H1031     1.0  0.89162  0.07947  0.42271  1.0000
  C   C602      1.0  0.68298  0.00082  0.37558  1.0000
  C   C603      1.0  0.95058  0.21217  0.40440  1.0000
  H   H1032     1.0  0.84437  0.45918  0.21678  1.0000
  H   H1033     1.0  0.94315  0.41664  0.33175  1.0000
  C   C604      1.0  0.78556  0.39718  0.01362  1.0000
  C   C605      1.0  0.81033  0.09824  0.44043  1.0000
  C   C606      1.0  0.82035  0.10953  0.45627  1.0000
  H   H1034     1.0  0.71462  0.02467  0.25780  1.0000
  C   C607      1.0  0.89316  0.45336  0.08779  1.0000
  C   C608      1.0  0.98315  0.11971  0.47062  1.0000
  H   H1035     1.0  0.96804  0.15374  0.42703  1.0000
  H   H1036     1.0  0.73654  0.44961  0.13462  1.0000
  H   H1037     1.0  0.67451  0.47463  0.13724  1.0000
  H   H1038     1.0  0.93117  0.47068  0.05756  1.0000
  H   H1039     1.0  0.77960  0.23171  0.44801  1.0000
  Fe  Fe94      1.0  0.87021  0.18943  0.45654  1.0000
  C   C609      1.0  0.79210  0.08428  0.44975  1.0000
  S   S180      1.0  0.87199  0.15132  0.45303  1.0000
  C   C610      1.0  0.67088  0.00368  0.27876  1.0000
  C   C611      1.0  0.97008  0.38570  0.27610  1.0000
  H   H1040     1.0  0.94311  0.18441  0.37153  1.0000
  H   H1041     1.0  0.89062  0.47240  0.21371  1.0000
  H   H1042     1.0  0.91629  0.44168  0.20612  1.0000
  S   S181      1.0  0.93706  0.12447  0.46054  1.0000
  H   H1043     1.0  0.73512  0.47632  0.14732  1.0000
  H   H1044     1.0  0.82773  0.16415  0.38435  1.0000
  H   H1045     1.0  0.80492  0.39192  0.01067  1.0000
  H   H1046     1.0  0.90968  0.19360  0.40187  1.0000
  H   H1047     1.0  0.66955  0.46466  0.07192  1.0000
  H   H1048     1.0  0.91693  0.27714  0.38367  1.0000
  H   H1049     1.0  0.74807  0.43209  0.98887  1.0000
  H   H1050     1.0  0.87742  0.44393  0.09368  1.0000
  H   H1051     1.0  0.90296  0.44592  0.07171  1.0000
  H   H1052     1.0  0.90833  0.41734  0.26095  1.0000
  H   H1053     1.0  0.88252  0.05440  0.44435  1.0000
  H   H1054     1.0  0.97755  0.37705  0.26053  1.0000
  C   C612      1.0  0.66187  0.01011  0.36467  1.0000
  H   H1055     1.0  0.83447  0.11997  0.44886  1.0000
  C   C613      1.0  0.91472  0.42651  0.22166  1.0000
  S   S182      1.0  0.85265  0.46022  0.14176  1.0000
  H   H1056     1.0  0.77824  0.21422  0.40607  1.0000
  C   C614      1.0  0.70975  0.03220  0.31371  1.0000
  N   N42       1.0  0.88667  0.45132  0.25089  1.0000
  H   H1057     1.0  0.95198  0.15677  0.39079  1.0000
  C   C615      1.0  0.98402  0.18836  0.38406  1.0000
  H   H1058     1.0  0.66723  0.03917  0.23549  1.0000
  C   C616      1.0  0.88420  0.07346  0.44225  1.0000
  H   H1059     1.0  0.87971  0.44082  0.31657  1.0000
  H   H1060     1.0  0.95199  0.17675  0.44194  1.0000
  H   H1061     1.0  0.86812  0.46823  0.28121  1.0000
  H   H1062     1.0  0.90392  0.44904  0.10380  1.0000
  H   H1063     1.0  0.90650  0.36120  0.45456  1.0000
  H   H1064     1.0  0.81860  0.43293  0.99563  1.0000
  H   H1065     1.0  0.87175  0.42282  0.29676  1.0000
  H   H1066     1.0  0.70221  0.98700  0.25749  1.0000
  C   C617      1.0  0.82997  0.46181  0.00834  1.0000
  C   C618      1.0  0.76835  0.15455  0.46123  1.0000
  H   H1067     1.0  0.81659  0.10044  0.42075  1.0000
  S   S183      1.0  0.86543  0.21724  0.42230  1.0000
  C   C619      1.0  0.80823  0.20401  0.43754  1.0000
  C   C620      1.0  0.89361  0.25126  0.40040  1.0000
  C   C621      1.0  0.72555  0.46672  0.13700  1.0000
  S   S184      1.0  0.97342  0.33222  0.37900  1.0000
  C   C622      1.0  0.82832  0.44792  0.99053  1.0000
  H   H1068     1.0  0.89910  0.45070  0.15831  1.0000
  C   C623      1.0  0.96470  0.41053  0.27233  1.0000
  H   H1069     1.0  0.84976  0.42804  0.21941  1.0000
  H   H1070     1.0  0.91971  0.33295  0.44868  1.0000
  Fe  Fe95      1.0  0.95937  0.47655  0.25260  1.0000
  C   C624      1.0  0.85814  0.44367  0.22087  1.0000
  S   S185      1.0  0.82616  0.45272  0.08261  1.0000
  H   H1071     1.0  0.94483  0.22174  0.38604  1.0000
  H   H1072     1.0  0.67184  0.05692  0.29714  1.0000
  H   H1073     1.0  0.93341  0.37117  0.42088  1.0000
  H   H1074     1.0  0.96427  0.37039  0.41129  1.0000
  C   C625      1.0  0.88313  0.23918  0.42275  1.0000
  H   H1075     1.0  0.69648  0.04128  0.32652  1.0000
  H   H1076     1.0  0.66361  0.99196  0.14417  1.0000
  H   H1077     1.0  0.69209  0.05346  0.22188  1.0000
  C   C626      1.0  0.86502  0.44081  0.24780  1.0000
  S   S186      1.0  0.94762  0.45269  0.28847  1.0000
  N   N43       1.0  0.96207  0.18731  0.40229  1.0000
  H   H1078     1.0  0.83524  0.18817  0.39630  1.0000
  H   H1079     1.0  0.71145  0.44998  0.08677  1.0000
  C   C627      1.0  0.79691  0.22257  0.45378  1.0000
  C   C628      1.0  0.96624  0.37202  0.29999  1.0000
  C   C629      1.0  0.90880  0.26790  0.40094  1.0000
  H   H1080     1.0  0.78150  0.41675  0.01109  1.0000
  H   H1081     1.0  0.90254  0.42431  0.29963  1.0000
  S   S187      1.0  0.97392  0.34105  0.30410  1.0000
  C   C630      1.0  0.69678  0.03520  0.25991  1.0000
  H   H1082     1.0  0.77493  0.36705  0.00305  1.0000
  C   C631      1.0  0.94511  0.17573  0.39130  1.0000
  H   H1083     1.0  0.72394  0.02265  0.32533  1.0000
  Fe  Fe96      1.0  0.97955  0.31948  0.34236  1.0000
  C   C632      1.0  0.76002  0.18469  0.40621  1.0000
  H   H1084     1.0  0.86691  0.42153  0.25592  1.0000
  C   C633      1.0  0.96694  0.17294  0.42762  1.0000
  C   C634      1.0  0.82022  0.17888  0.39448  1.0000
  N   N44       1.0  0.68251  0.02395  0.28303  1.0000
  C   C635      1.0  0.88466  0.43459  0.29846  1.0000
  C   C636      1.0  0.92001  0.17568  0.40507  1.0000
  H   H1085     1.0  0.82458  0.19476  0.44582  1.0000
  S   S188      1.0  0.78541  0.47349  0.12237  1.0000
  C   C637      1.0  0.90055  0.07835  0.46030  1.0000
  H   H1086     1.0  0.79990  0.16535  0.47032  1.0000
  S   S189      1.0  0.96131  0.47284  0.21232  1.0000
  H   H1087     1.0  0.96807  0.42095  0.25392  1.0000
  C   C638      1.0  0.88925  0.47447  0.23334  1.0000
  C   C639      1.0  0.67331  0.45255  0.08963  1.0000
  C   C640      1.0  0.77200  0.38665  0.99690  1.0000
  H   H1088     1.0  0.66954  0.45779  0.02852  1.0000
  H   H1089     1.0  0.65914  0.99726  0.29571  1.0000
  H   H1090     1.0  0.86637  0.08368  0.44460  1.0000
  H   H1091     1.0  0.89624  0.47204  0.03287  1.0000
  H   H1092     1.0  0.90938  0.02059  0.46079  1.0000
  H   H1093     1.0  0.82298  0.15924  0.43162  1.0000
  H   H1094     1.0  0.93150  0.03687  0.46711  1.0000
  H   H1095     1.0  0.92217  0.48025  0.01379  1.0000
  H   H1096     1.0  0.97429  0.35343  0.45429  1.0000
  H   H1097     1.0  0.98651  0.15762  0.36529  1.0000
  Fe  Fe97      1.0  0.73488  0.00085  0.47090  1.0000
  H   H1098     1.0  0.70940  0.46260  0.14928  1.0000
  H   H1099     1.0  0.67535  0.43415  0.08587  1.0000
  H   H1100     1.0  0.92703  0.47624  0.10015  1.0000
  H   H1101     1.0  0.79519  0.21462  0.47393  1.0000
  C   C641      1.0  0.88480  0.48022  0.08093  1.0000
  S   S190      1.0  0.90402  0.18451  0.47409  1.0000
  C   C642      1.0  0.68791  0.98196  0.27224  1.0000
  Fe  Fe98      1.0  0.90378  0.14605  0.47402  1.0000
  H   H1102     1.0  0.77407  0.18647  0.47118  1.0000
  H   H1103     1.0  0.77421  0.44651  0.75895  1.0000
  C   C643      1.0  0.79756  0.46262  0.77670  1.0000
  C   C644      1.0  0.82068  0.42507  0.81478  1.0000
  H   H1104     1.0  0.69198  0.44652  0.90806  1.0000
  Fe  Fe99      1.0  0.68915  0.37825  0.94478  1.0000
  C   C645      1.0  0.88859  0.46084  0.81893  1.0000
  H   H1105     1.0  0.67327  0.02780  0.59707  1.0000
  C   C646      1.0  0.66263  0.34395  0.88619  1.0000
  H   H1106     1.0  0.83125  0.40775  0.82125  1.0000
  S   S191      1.0  0.83453  0.43798  0.94318  1.0000
  H   H1107     1.0  0.81780  0.43483  0.83055  1.0000
  H   H1108     1.0  0.70865  0.32905  0.89599  1.0000
  S   S192      1.0  0.76885  0.45607  0.84862  1.0000
  H   H1109     1.0  0.80879  0.40124  0.92357  1.0000
  H   H1110     1.0  0.69281  0.10069  0.51799  1.0000
  H   H1111     1.0  0.96739  0.18069  0.50211  1.0000
  C   C647      1.0  0.94771  0.46921  0.84393  1.0000
  S   S193      1.0  0.82986  0.45560  0.87061  1.0000
  H   H1112     1.0  0.94330  0.17803  0.52635  1.0000
  C   C648      1.0  0.96103  0.20920  0.52531  1.0000
  S   S194      1.0  0.94034  0.43675  0.76872  1.0000
  S   S195      1.0  0.92029  0.29243  0.54528  1.0000
  H   H1113     1.0  0.67981  0.33631  0.92996  1.0000
  S   S196      1.0  0.95681  0.33989  0.55704  1.0000
  C   C649      1.0  0.69582  0.08212  0.52838  1.0000
  H   H1114     1.0  0.81247  0.47334  0.81658  1.0000
  S   S197      1.0  0.82170  0.12394  0.50143  1.0000
  Fe  Fe100     1.0  0.88106  0.17860  0.51032  1.0000
  H   H1115     1.0  0.70319  0.29793  0.94079  1.0000
  S   S198      1.0  0.88917  0.19175  0.54433  1.0000
  H   H1116     1.0  0.91022  0.09400  0.50059  1.0000
  S   S199      1.0  0.96227  0.35194  0.62517  1.0000
  H   H1117     1.0  0.81608  0.39367  0.96951  1.0000
  H   H1118     1.0  0.89825  0.03267  0.51135  1.0000
  S   S200      1.0  0.84670  0.18631  0.49278  1.0000
  S   S201      1.0  0.88342  0.13913  0.51176  1.0000
  C   C650      1.0  0.91418  0.26350  0.54459  1.0000
  C   C651      1.0  0.91246  0.24646  0.56639  1.0000
  C   C652      1.0  0.90471  0.22466  0.56598  1.0000
  C   C653      1.0  0.89874  0.21953  0.54374  1.0000
  C   C654      1.0  0.90076  0.23644  0.52183  1.0000
  C   C655      1.0  0.90817  0.25841  0.52236  1.0000
  H   H1119     1.0  0.91634  0.25040  0.58379  1.0000
  H   H1120     1.0  0.90311  0.21177  0.58304  1.0000
  H   H1121     1.0  0.89615  0.23278  0.50462  1.0000
  H   H1122     1.0  0.90887  0.27168  0.50556  1.0000
  C   C656      1.0  0.89828  0.33186  0.48378  1.0000
  C   C657      1.0  0.95928  0.12422  0.47965  1.0000
  H   H1123     1.0  0.93861  0.32549  0.50817  1.0000
  H   H1124     1.0  0.68277  0.03958  0.55225  1.0000
  C   C658      1.0  0.89669  0.04050  0.49131  1.0000
  H   H1125     1.0  0.96516  0.32650  0.69264  1.0000
  H   H1126     1.0  0.69423  0.45642  0.94683  1.0000
  C   C659      1.0  0.69654  0.09771  0.57747  1.0000
  C   C660      1.0  0.66095  0.30036  0.89471  1.0000
  C   C661      1.0  0.69883  0.31611  0.89041  1.0000
  H   H1127     1.0  0.96508  0.46125  0.79816  1.0000
  H   H1128     1.0  0.97241  0.40472  0.68215  1.0000
  H   H1129     1.0  0.70237  0.33624  0.85194  1.0000
  H   H1130     1.0  0.78957  0.48067  0.76820  1.0000
  C   C662      1.0  0.68461  0.99121  0.54780  1.0000
  C   C663      1.0  0.67431  0.09664  0.56498  1.0000
  Fe  Fe101     1.0  0.97138  0.45063  0.74319  1.0000
  C   C664      1.0  0.69950  0.06549  0.50891  1.0000
  H   H1131     1.0  0.89931  0.37286  0.50033  1.0000
  S   S202      1.0  0.96416  0.29231  0.59909  1.0000
  H   H1132     1.0  0.72366  0.31068  0.85794  1.0000
  H   H1133     1.0  0.95872  0.28924  0.49811  1.0000
  C   C665      1.0  0.92016  0.45581  0.78525  1.0000
  C   C666      1.0  0.90475  0.44606  0.80529  1.0000
  C   C667      1.0  0.86245  0.07077  0.52397  1.0000
  C   C668      1.0  0.98071  0.39631  0.66668  1.0000
  H   H1134     1.0  0.95323  0.37316  0.48797  1.0000
  H   H1135     1.0  0.90540  0.42699  0.81033  1.0000
  H   H1136     1.0  0.87689  0.45319  0.83442  1.0000
  C   C669      1.0  0.68030  0.46865  0.93685  1.0000
  C   C670      1.0  0.95288  0.19085  0.51243  1.0000
  H   H1137     1.0  0.72376  0.47675  0.92583  1.0000
  C   C671      1.0  0.95321  0.12892  0.50385  1.0000
  S   S203      1.0  0.97260  0.45935  0.70139  1.0000
  C   C672      1.0  0.77598  0.41981  0.96082  1.0000
  C   C673      1.0  0.72749  0.39748  0.89308  1.0000
  C   C674      1.0  0.73253  0.41509  0.90508  1.0000
  C   C675      1.0  0.74600  0.43277  0.89192  1.0000
  C   C676      1.0  0.75348  0.43343  0.86645  1.0000
  C   C677      1.0  0.74796  0.41611  0.85446  1.0000
  C   C678      1.0  0.73543  0.39797  0.86782  1.0000
  H   H1138     1.0  0.72617  0.41496  0.92446  1.0000
  H   H1139     1.0  0.75012  0.44615  0.90127  1.0000
  H   H1140     1.0  0.75359  0.41657  0.83480  1.0000
  H   H1141     1.0  0.73160  0.38445  0.85843  1.0000
  N   N45       1.0  0.67291  0.32011  0.89982  1.0000
  C   C679      1.0  0.66616  0.04584  0.58780  1.0000
  H   H1142     1.0  0.98416  0.21276  0.58431  1.0000
  H   H1143     1.0  0.66513  0.05772  0.60157  1.0000
  C   C680      1.0  0.66143  0.99950  0.55701  1.0000
  H   H1144     1.0  0.93487  0.13233  0.51103  1.0000
  S   S204      1.0  0.78558  0.47755  0.90832  1.0000
  H   H1145     1.0  0.94727  0.44700  0.88142  1.0000
  H   H1146     1.0  0.78706  0.09165  0.51048  1.0000
  C   C681      1.0  0.67725  0.01176  0.50617  1.0000
  C   C682      1.0  0.69268  0.99765  0.52242  1.0000
  H   H1147     1.0  0.76490  0.38892  0.93537  1.0000
  Fe  Fe102     1.0  0.95214  0.30140  0.56056  1.0000
  H   H1148     1.0  0.68318  0.01659  0.48656  1.0000
  H   H1149     1.0  0.95002  0.38021  0.66366  1.0000
  C   C683      1.0  0.70471  0.31757  0.86193  1.0000
  C   C684      1.0  0.99101  0.22419  0.54343  1.0000
  H   H1150     1.0  0.77916  0.42444  0.94012  1.0000
  H   H1151     1.0  0.75763  0.34988  0.94565  1.0000
  H   H1152     1.0  0.66957  0.11446  0.55349  1.0000
  H   H1153     1.0  0.83932  0.45677  0.74414  1.0000
  H   H1154     1.0  0.71286  0.07178  0.49352  1.0000
  H   H1155     1.0  0.93775  0.29848  0.47592  1.0000
  H   H1156     1.0  0.66464  0.46818  0.95091  1.0000
  C   C685      1.0  0.79353  0.44564  0.75972  1.0000
  C   C686      1.0  0.94012  0.44797  0.86335  1.0000
  C   C687      1.0  0.85163  0.47307  0.95964  1.0000
  H   H1157     1.0  0.75265  0.45294  0.96089  1.0000
  C   C688      1.0  0.91752  0.37172  0.50543  1.0000
  H   H1158     1.0  0.80344  0.42118  0.81081  1.0000
  H   H1159     1.0  0.69420  0.30676  0.85420  1.0000
  H   H1160     1.0  0.66686  0.46837  0.90044  1.0000
  S   S205      1.0  0.98787  0.29162  0.54072  1.0000
  H   H1161     1.0  0.70718  0.29828  0.89903  1.0000
  H   H1162     1.0  0.98079  0.28638  0.68509  1.0000
  C   C689      1.0  0.68252  0.05320  0.56397  1.0000
  C   C690      1.0  0.98922  0.45752  0.85364  1.0000
  H   H1163     1.0  0.89722  0.31370  0.48066  1.0000
  H   H1164     1.0  0.98380  0.41836  0.83613  1.0000
  N   N46       1.0  0.67622  0.07769  0.54920  1.0000
  H   H1165     1.0  0.98419  0.16615  0.54302  1.0000
  N   N47       1.0  0.97337  0.46777  0.83327  1.0000
  C   C691      1.0  0.86128  0.47739  0.75711  1.0000
  H   H1166     1.0  0.98576  0.46854  0.86859  1.0000
  H   H1167     1.0  0.96608  0.13203  0.53800  1.0000
  H   H1168     1.0  0.83788  0.42652  0.77737  1.0000
  S   S206      1.0  0.71207  0.37409  0.90899  1.0000
  C   C692      1.0  0.81203  0.38333  0.93512  1.0000
  C   C693      1.0  0.91669  0.02699  0.47564  1.0000
  C   C694      1.0  0.76213  0.38323  0.95598  1.0000
  C   C695      1.0  0.80399  0.38338  0.96306  1.0000
  H   H1169     1.0  0.92077  0.35694  0.52122  1.0000
  H   H1170     1.0  0.85211  0.43924  0.79707  1.0000
  Fe  Fe103     1.0  0.97246  0.33002  0.59381  1.0000
  C   C696      1.0  0.97798  0.45411  0.81199  1.0000
  C   C697      1.0  0.97092  0.12889  0.51909  1.0000
  Fe  Fe104     1.0  0.85122  0.14728  0.49070  1.0000
  H   H1171     1.0  0.91836  0.38825  0.51248  1.0000
  H   H1172     1.0  0.70080  0.05092  0.56940  1.0000
  C   C698      1.0  0.87075  0.07755  0.49590  1.0000
  H   H1173     1.0  0.68319  0.06521  0.50028  1.0000
  H   H1174     1.0  0.66285  0.44351  0.92355  1.0000
  H   H1175     1.0  0.94881  0.07364  0.50874  1.0000
  H   H1176     1.0  0.97372  0.18198  0.56739  1.0000
  C   C699      1.0  0.97853  0.37097  0.63620  1.0000
  H   H1177     1.0  0.90806  0.06754  0.52291  1.0000
  H   H1178     1.0  0.93601  0.47212  0.82871  1.0000
  C   C700      1.0  0.98835  0.30158  0.67276  1.0000
  C   C701      1.0  0.83870  0.45386  0.96602  1.0000
  H   H1179     1.0  0.80028  0.42692  0.76694  1.0000
  N   N48       1.0  0.82293  0.46274  0.78067  1.0000
  H   H1180     1.0  0.94823  0.21034  0.54208  1.0000
  H   H1181     1.0  0.71321  0.08015  0.53586  1.0000
  N   N49       1.0  0.77852  0.39324  0.96921  1.0000
  H   H1182     1.0  0.66432  0.34432  0.86572  1.0000
  S   S207      1.0  0.72238  0.98882  0.51174  1.0000
  H   H1183     1.0  0.83141  0.37766  0.93282  1.0000
  C   C702      1.0  0.81167  0.10769  0.48148  1.0000
  H   H1184     1.0  0.94504  0.43084  0.85690  1.0000
  C   C703      1.0  0.93876  0.06573  0.49721  1.0000
  H   H1185     1.0  0.69219  0.11122  0.58979  1.0000
  H   H1186     1.0  0.67263  0.35809  0.88896  1.0000
  H   H1187     1.0  0.87283  0.46235  0.76696  1.0000
  H   H1188     1.0  0.98408  0.21888  0.47849  1.0000
  H   H1189     1.0  0.70783  0.47776  0.88351  1.0000
  H   H1190     1.0  0.78966  0.42755  0.96797  1.0000
  H   H1191     1.0  0.71130  0.10343  0.56364  1.0000
  C   C704      1.0  0.79381  0.09332  0.49096  1.0000
  C   C705      1.0  0.96802  0.38241  0.65610  1.0000
  H   H1192     1.0  0.70665  0.04710  0.51703  1.0000
  Fe  Fe105     1.0  0.82419  0.46410  0.90925  1.0000
  H   H1193     1.0  0.80153  0.45090  0.74030  1.0000
  H   H1194     1.0  0.67831  0.29960  0.96357  1.0000
  N   N50       1.0  0.89552  0.06715  0.48735  1.0000
  H   H1195     1.0  0.94072  0.20023  0.49848  1.0000
  C   C706      1.0  0.91224  0.07432  0.50268  1.0000
  C   C707      1.0  0.83439  0.43833  0.79154  1.0000
  H   H1196     1.0  0.95770  0.22714  0.51360  1.0000
  H   H1197     1.0  0.80350  0.37059  0.92778  1.0000
  C   C708      1.0  0.98769  0.18105  0.55141  1.0000
  H   H1198     1.0  0.98169  0.25746  0.66324  1.0000
  H   H1199     1.0  0.98671  0.24129  0.53060  1.0000
  N   N51       1.0  0.98588  0.20376  0.53260  1.0000
  C   C709      1.0  0.97687  0.42719  0.81835  1.0000
  C   C710      1.0  0.97778  0.22709  0.56922  1.0000
  H   H1200     1.0  0.96655  0.33122  0.49487  1.0000
  C   C711      1.0  0.93598  0.37033  0.48257  1.0000
  H   H1201     1.0  0.70241  0.08067  0.58953  1.0000
  C   C712      1.0  0.67159  0.32095  0.92727  1.0000
  H   H1202     1.0  0.98112  0.24397  0.57389  1.0000
  H   H1203     1.0  0.90177  0.33073  0.50330  1.0000
  H   H1204     1.0  0.87062  0.08053  0.53538  1.0000
  H   H1205     1.0  0.86569  0.05143  0.53096  1.0000
  S   S208      1.0  0.68836  0.40657  0.96744  1.0000
  H   H1206     1.0  0.95846  0.22811  0.56959  1.0000
  H   H1207     1.0  0.95859  0.42331  0.81828  1.0000
  H   H1208     1.0  0.65978  0.09468  0.58037  1.0000
  H   H1209     1.0  0.92449  0.01075  0.48780  1.0000
  H   H1210     1.0  0.73714  0.42879  0.96041  1.0000
  H   H1211     1.0  0.78655  0.45844  0.79485  1.0000
  Fe  Fe106     1.0  0.79212  0.47227  0.86855  1.0000
  C   C713      1.0  0.94945  0.32757  0.49005  1.0000
  H   H1212     1.0  0.84306  0.07620  0.52697  1.0000
  C   C714      1.0  0.68366  0.29868  0.94354  1.0000
  C   C715      1.0  0.83657  0.47083  0.75584  1.0000
  H   H1213     1.0  0.92053  0.45057  0.86717  1.0000
  H   H1214     1.0  0.67853  0.28206  0.94011  1.0000
  C   C716      1.0  0.95377  0.30310  0.48193  1.0000
  H   H1215     1.0  0.97682  0.30746  0.65726  1.0000
  C   C717      1.0  0.76251  0.35604  0.96202  1.0000
  C   C718      1.0  0.67554  0.45638  0.91578  1.0000
  H   H1216     1.0  0.67314  0.28335  0.89727  1.0000
  C   C719      1.0  0.75193  0.43380  0.96836  1.0000
  H   H1217     1.0  0.94573  0.07159  0.47757  1.0000
  H   H1218     1.0  0.78014  0.34627  0.96569  1.0000
  H   H1219     1.0  0.74346  0.39048  0.96095  1.0000
  H   H1220     1.0  0.98548  0.43966  0.86333  1.0000
  H   H1221     1.0  0.98421  0.44191  0.61827  1.0000
  H   H1222     1.0  0.98837  0.41857  0.80386  1.0000
  H   H1223     1.0  0.77012  0.07091  0.48265  1.0000
  H   H1224     1.0  0.88025  0.34170  0.48200  1.0000
  H   H1225     1.0  0.86867  0.09730  0.49134  1.0000
  H   H1226     1.0  0.76540  0.14556  0.48100  1.0000
  H   H1227     1.0  0.85746  0.07216  0.48584  1.0000
  H   H1228     1.0  0.94277  0.04622  0.50276  1.0000
  H   H1229     1.0  0.84123  0.47804  0.80468  1.0000
  H   H1230     1.0  0.96295  0.46381  0.64959  1.0000
  C   C720      1.0  0.82331  0.47911  0.79876  1.0000
  C   C721      1.0  0.91927  0.48043  0.77886  1.0000
  H   H1231     1.0  0.87981  0.03565  0.48713  1.0000
  H   H1232     1.0  0.98110  0.47920  0.58268  1.0000
  H   H1233     1.0  0.95018  0.46673  0.62040  1.0000
  C   C722      1.0  0.98448  0.32123  0.68867  1.0000
  H   H1234     1.0  0.86019  0.47737  0.94091  1.0000
  C   C723      1.0  0.95409  0.47635  0.63468  1.0000
  H   H1235     1.0  0.80823  0.36498  0.97335  1.0000
  H   H1236     1.0  0.99156  0.31475  0.70698  1.0000
  C   C724      1.0  0.78421  0.08149  0.47525  1.0000
  H   H1237     1.0  0.99178  0.33754  0.67903  1.0000
  N   N52       1.0  0.86616  0.85387  0.37489  1.0000
  S   S209      1.0  0.94013  0.51361  0.24688  1.0000
  H   H1238     1.0  0.78233  0.57936  0.03963  1.0000
  C   C725      1.0  0.90688  0.48328  0.16703  1.0000
  Fe  Fe107     1.0  0.97599  0.52589  0.24064  1.0000
  H   H1239     1.0  0.76888  0.53283  0.02107  1.0000
  Fe  Fe108     1.0  0.94472  0.51093  0.20596  1.0000
  S   S210      1.0  0.91410  0.52460  0.18200  1.0000
  H   H1240     1.0  0.78542  0.54727  0.04832  1.0000
  C   C726      1.0  0.83004  0.88393  0.44838  1.0000
  H   H1241     1.0  0.95871  0.62924  0.43001  1.0000
  S   S211      1.0  0.69896  0.60662  0.02238  1.0000
  C   C727      1.0  0.79983  0.91772  0.43749  1.0000
  H   H1242     1.0  0.70183  0.49948  0.98806  1.0000
  H   H1243     1.0  0.99069  0.78702  0.40473  1.0000
  S   S212      1.0  0.94260  0.69754  0.37874  1.0000
  C   C728      1.0  0.97132  0.86354  0.45124  1.0000
  H   H1244     1.0  0.87926  0.52114  0.05101  1.0000
  S   S213      1.0  0.90961  0.84688  0.44120  1.0000
  H   H1245     1.0  0.87073  0.50944  0.22008  1.0000
  H   H1246     1.0  0.97695  0.59405  0.23609  1.0000
  H   H1247     1.0  0.85631  0.80769  0.36739  1.0000
  C   C729      1.0  0.91309  0.70897  0.46520  1.0000
  Fe  Fe109     1.0  0.91906  0.81009  0.43220  1.0000
  S   S214      1.0  0.93857  0.80314  0.39542  1.0000
  C   C730      1.0  0.77956  0.53391  0.00259  1.0000
  H   H1248     1.0  0.92354  0.69198  0.43318  1.0000
  C   C731      1.0  0.81672  0.93323  0.43427  1.0000
  S   S215      1.0  0.75801  0.53949  0.10444  1.0000
  H   H1249     1.0  0.86585  0.52381  0.09698  1.0000
  C   C732      1.0  0.96382  0.70162  0.44924  1.0000
  H   H1250     1.0  0.76002  0.50854  0.99261  1.0000
  H   H1251     1.0  0.98566  0.81073  0.36915  1.0000
  H   H1252     1.0  0.98372  0.83165  0.40563  1.0000
  H   H1253     1.0  0.72087  0.61562  0.06255  1.0000
  S   S216      1.0  0.82178  0.50860  0.08954  1.0000
  C   C733      1.0  0.99068  0.57609  0.27043  1.0000
  C   C734      1.0  0.71472  0.58718  0.04522  1.0000
  C   C735      1.0  0.72404  0.59670  0.06276  1.0000
  C   C736      1.0  0.73708  0.58183  0.08093  1.0000
  C   C737      1.0  0.74185  0.55743  0.08103  1.0000
  C   C738      1.0  0.73318  0.54785  0.06304  1.0000
  C   C739      1.0  0.71899  0.56262  0.04557  1.0000
  H   H1254     1.0  0.96206  0.67063  0.42133  1.0000
  H   H1255     1.0  0.74375  0.58931  0.09479  1.0000
  H   H1256     1.0  0.73708  0.52907  0.06291  1.0000
  H   H1257     1.0  0.71200  0.55516  0.03194  1.0000
  C   C740      1.0  0.94135  0.72699  0.38301  1.0000
  C   C741      1.0  0.92209  0.73722  0.39748  1.0000
  C   C742      1.0  0.92144  0.76036  0.40191  1.0000
  C   C743      1.0  0.93961  0.77371  0.39106  1.0000
  C   C744      1.0  0.95861  0.76364  0.37612  1.0000
  C   C745      1.0  0.95971  0.74019  0.37250  1.0000
  H   H1258     1.0  0.90770  0.72722  0.40545  1.0000
  H   H1259     1.0  0.90665  0.76798  0.41331  1.0000
  H   H1260     1.0  0.97264  0.77384  0.36748  1.0000
  H   H1261     1.0  0.97466  0.73246  0.36129  1.0000
  H   H1262     1.0  0.78182  0.92461  0.43376  1.0000
  H   H1263     1.0  0.67686  0.50211  0.07318  1.0000
  H   H1264     1.0  0.81892  0.54458  0.01397  1.0000
  H   H1265     1.0  0.88077  0.62820  0.31741  1.0000
  H   H1266     1.0  0.91478  0.67281  0.46077  1.0000
  H   H1267     1.0  0.75392  0.57475  0.98259  1.0000
  S   S217      1.0  0.97921  0.52669  0.19895  1.0000
  C   C746      1.0  0.89232  0.84610  0.37639  1.0000
  H   H1268     1.0  0.98923  0.87863  0.41612  1.0000
  H   H1269     1.0  0.89365  0.71025  0.46512  1.0000
  C   C747      1.0  0.66109  0.97330  0.34977  1.0000
  Fe  Fe110     1.0  0.97888  0.68376  0.36251  1.0000
  H   H1270     1.0  0.95383  0.86968  0.44548  1.0000
  S   S218      1.0  0.98790  0.64605  0.35668  1.0000
  H   H1271     1.0  0.85008  0.79722  0.40001  1.0000
  H   H1272     1.0  0.85708  0.88150  0.31396  1.0000
  C   C748      1.0  0.84029  0.92399  0.43804  1.0000
  C   C749      1.0  0.85308  0.83490  0.39135  1.0000
  C   C750      1.0  0.86916  0.87637  0.32892  1.0000
  C   C751      1.0  0.80510  0.56026  0.01216  1.0000
  N   N53       1.0  0.95111  0.68005  0.45777  1.0000
  C   C752      1.0  0.92034  0.48798  0.05130  1.0000
  H   H1273     1.0  0.93132  0.52952  0.08303  1.0000
  S   S219      1.0  0.78129  0.49138  0.06156  1.0000
  H   H1274     1.0  0.89861  0.50287  0.02003  1.0000
  C   C753      1.0  0.89847  0.50699  0.16847  1.0000
  H   H1275     1.0  0.89557  0.83670  0.39560  1.0000
  C   C754      1.0  0.86004  0.85605  0.34859  1.0000
  H   H1276     1.0  0.93097  0.64334  0.44166  1.0000
  C   C755      1.0  0.86273  0.50303  0.15060  1.0000
  C   C756      1.0  0.87660  0.51691  0.15961  1.0000
  C   C757      1.0  0.98668  0.84106  0.38607  1.0000
  Fe  Fe111     1.0  0.82089  0.48872  0.05870  1.0000
  H   H1277     1.0  0.84562  0.51075  0.14454  1.0000
  H   H1278     1.0  0.87002  0.53530  0.16039  1.0000
  C   C758      1.0  0.76662  0.57669  0.99540  1.0000
  H   H1279     1.0  0.86513  0.89254  0.44802  1.0000
  C   C759      1.0  0.84692  0.89945  0.44523  1.0000
  N   N54       1.0  0.92064  0.65189  0.32256  1.0000
  C   C760      1.0  0.92887  0.67463  0.32555  1.0000
  C   C761      1.0  0.91039  0.64070  0.34808  1.0000
  C   C762      1.0  0.90149  0.65850  0.30515  1.0000
  C   C763      1.0  0.94145  0.63642  0.31177  1.0000
  C   C764      1.0  0.93715  0.69100  0.30128  1.0000
  C   C765      1.0  0.92782  0.63347  0.36820  1.0000
  C   C766      1.0  0.88940  0.63819  0.30023  1.0000
  C   C767      1.0  0.93972  0.60956  0.31496  1.0000
  H   H1280     1.0  0.91474  0.68553  0.33592  1.0000
  H   H1281     1.0  0.94403  0.67081  0.33697  1.0000
  H   H1282     1.0  0.90242  0.62466  0.34768  1.0000
  H   H1283     1.0  0.89542  0.65304  0.35535  1.0000
  H   H1284     1.0  0.88734  0.67180  0.31213  1.0000
  H   H1285     1.0  0.90864  0.66707  0.28630  1.0000
  H   H1286     1.0  0.94543  0.64314  0.29144  1.0000
  H   H1287     1.0  0.95771  0.63766  0.32014  1.0000
  H   H1288     1.0  0.95086  0.68155  0.28928  1.0000
  H   H1289     1.0  0.92217  0.69981  0.29056  1.0000
  H   H1290     1.0  0.94517  0.70546  0.30627  1.0000
  H   H1291     1.0  0.93296  0.64916  0.37385  1.0000
  H   H1292     1.0  0.91906  0.62329  0.38527  1.0000
  H   H1293     1.0  0.94385  0.62190  0.36213  1.0000
  H   H1294     1.0  0.86862  0.89097  0.37561  1.0000
  H   H1295     1.0  0.87515  0.64595  0.28804  1.0000
  H   H1296     1.0  0.86965  0.55111  0.07641  1.0000
  H   H1297     1.0  0.94475  0.60376  0.29662  1.0000
  H   H1298     1.0  0.92221  0.60410  0.32196  1.0000
  H   H1299     1.0  0.95283  0.59911  0.32743  1.0000
  H   H1300     1.0  0.90560  0.53225  0.05351  1.0000
  C   C768      1.0  0.67885  0.51180  0.13050  1.0000
  S   S220      1.0  0.80959  0.96401  0.42400  1.0000
  H   H1301     1.0  0.96905  0.84947  0.38046  1.0000
  H   H1302     1.0  0.70904  0.97005  0.38216  1.0000
  H   H1303     1.0  0.90639  0.87626  0.38547  1.0000
  S   S221      1.0  0.73694  0.97764  0.44189  1.0000
  C   C769      1.0  0.80646  0.89315  0.44461  1.0000
  C   C770      1.0  0.86038  0.80939  0.38609  1.0000
  H   H1304     1.0  0.79338  0.88119  0.44664  1.0000
  H   H1305     1.0  0.69353  0.50930  0.14241  1.0000
  C   C771      1.0  0.68195  0.96385  0.36107  1.0000
  H   H1306     1.0  0.84062  0.85717  0.34797  1.0000
  C   C772      1.0  0.99092  0.69722  0.44976  1.0000
  H   H1307     1.0  0.90183  0.62607  0.28977  1.0000
  H   H1308     1.0  0.86243  0.87362  0.40503  1.0000
  H   H1309     1.0  0.82689  0.89036  0.36506  1.0000
  H   H1310     1.0  0.87931  0.80291  0.38825  1.0000
  H   H1311     1.0  0.82921  0.90402  0.39086  1.0000
  H   H1312     1.0  0.80907  0.56300  0.05034  1.0000
  N   N55       1.0  0.78783  0.55795  0.99460  1.0000
  H   H1313     1.0  0.89927  0.83293  0.36401  1.0000
  C   C773      1.0  0.72093  0.48209  0.11124  1.0000
  C   C774      1.0  0.94997  0.63962  0.44449  1.0000
  H   H1314     1.0  0.98051  0.65590  0.44443  1.0000
  C   C775      1.0  0.76406  0.52684  0.98500  1.0000
  H   H1315     1.0  0.89140  0.53813  0.09718  1.0000
  Fe  Fe112     1.0  0.87536  0.83452  0.45984  1.0000
  S   S222      1.0  0.84416  0.49923  0.02354  1.0000
  C   C776      1.0  0.89245  0.52093  0.06426  1.0000
  H   H1316     1.0  0.83508  0.54043  0.97507  1.0000
  H   H1317     1.0  0.85349  0.93591  0.43530  1.0000
  C   C777      1.0  0.98386  0.59612  0.25282  1.0000
  H   H1318     1.0  0.75764  0.61408  0.99798  1.0000
  H   H1319     1.0  0.90649  0.87734  0.35223  1.0000
  C   C778      1.0  0.83220  0.88675  0.38427  1.0000
  H   H1320     1.0  0.68998  0.94598  0.35956  1.0000
  H   H1321     1.0  0.74684  0.53840  0.98388  1.0000
  H   H1322     1.0  0.66784  0.71116  0.02822  1.0000
  S   S223      1.0  0.88375  0.79901  0.44761  1.0000
  H   H1323     1.0  0.75608  0.57446  0.01389  1.0000
  H   H1324     1.0  0.92737  0.85688  0.36961  1.0000
  H   H1325     1.0  0.73001  0.48681  0.05817  1.0000
  H   H1326     1.0  0.79482  0.51962  0.00535  1.0000
  C   C779      1.0  0.87920  0.53395  0.08509  1.0000
  H   H1327     1.0  0.72400  0.50059  0.11132  1.0000
  C   C780      1.0  0.85849  0.87645  0.38523  1.0000
  H   H1328     1.0  0.81515  0.57545  0.00466  1.0000
  H   H1329     1.0  0.67282  0.64814  0.99004  1.0000
  H   H1330     1.0  0.86912  0.89286  0.33616  1.0000
  Fe  Fe113     1.0  0.78262  0.50773  0.09501  1.0000
  C   C781      1.0  0.96176  0.66221  0.44137  1.0000
  H   H1331     1.0  0.82041  0.87521  0.39697  1.0000
  C   C782      1.0  0.98622  0.61894  0.25681  1.0000
  C   C783      1.0  0.67710  0.48894  0.12080  1.0000
  Fe  Fe114     1.0  0.67369  0.58966  0.00595  1.0000
  C   C784      1.0  0.79453  0.56262  0.03901  1.0000
  H   H1332     1.0  0.88718  0.87067  0.32033  1.0000
  H   H1333     1.0  0.66536  0.67130  0.03221  1.0000
  C   C785      1.0  0.90874  0.86555  0.37039  1.0000
  H   H1334     1.0  0.69953  0.51619  0.07970  1.0000
  H   H1335     1.0  0.87362  0.48538  0.09752  1.0000
  H   H1336     1.0  0.78850  0.60560  0.99351  1.0000
  H   H1337     1.0  0.96023  0.71024  0.42984  1.0000
  H   H1338     1.0  0.86724  0.83955  0.34117  1.0000
  H   H1339     1.0  0.85532  0.83421  0.41134  1.0000
  C   C786      1.0  0.93777  0.51063  0.08975  1.0000
  H   H1340     1.0  0.87089  0.50272  0.25315  1.0000
  H   H1341     1.0  0.83372  0.83894  0.39002  1.0000
  C   C787      1.0  0.92546  0.68751  0.45355  1.0000
  N   N56       1.0  0.90397  0.49592  0.07273  1.0000
  H   H1342     1.0  0.67883  0.67790  0.98944  1.0000
  S   S224      1.0  0.68413  0.55766  0.98807  1.0000
  C   C788      1.0  0.69281  0.97747  0.37394  1.0000
  C   C789      1.0  0.71111  0.49114  0.05505  1.0000
  C   C790      1.0  0.90836  0.48575  0.02842  1.0000
  H   H1343     1.0  0.66225  0.51657  0.14227  1.0000
  H   H1344     1.0  0.93338  0.50064  0.04414  1.0000
  H   H1345     1.0  0.85146  0.48948  0.23798  1.0000
  C   C791      1.0  0.99134  0.86845  0.43458  1.0000
  H   H1346     1.0  0.66007  0.49199  0.11232  1.0000
  S   S225      1.0  0.93621  0.79444  0.46711  1.0000
  C   C792      1.0  0.69537  0.49853  0.07801  1.0000
  H   H1347     1.0  0.98106  0.63433  0.24302  1.0000
  H   H1348     1.0  0.90627  0.49855  0.11122  1.0000
  H   H1349     1.0  0.95283  0.62797  0.46268  1.0000
  H   H1350     1.0  0.95729  0.71528  0.46108  1.0000
  C   C793      1.0  0.86923  0.49498  0.23659  1.0000
  S   S226      1.0  0.83779  0.85288  0.45564  1.0000
  H   H1351     1.0  0.94519  0.50972  0.10769  1.0000
  H   H1352     1.0  0.67786  0.97009  0.26534  1.0000
  C   C794      1.0  0.77154  0.60269  0.98802  1.0000
  H   H1353     1.0  0.69563  0.97136  0.28913  1.0000
  H   H1354     1.0  0.87245  0.48265  0.06637  1.0000
  H   H1355     1.0  0.91839  0.72589  0.45424  1.0000
  H   H1356     1.0  0.70961  0.50617  0.03906  1.0000
  H   H1357     1.0  0.68100  0.52705  0.11505  1.0000
  H   H1358     1.0  0.98594  0.58223  0.46631  1.0000
  C   C795      1.0  0.66754  0.66712  0.98269  1.0000
  C   C796      1.0  0.85388  0.48653  0.97761  1.0000
  H   H1359     1.0  0.95257  0.50442  0.07649  1.0000
  S   S227      1.0  0.98936  0.54673  0.26622  1.0000
  C   C797      1.0  0.91806  0.49455  0.09441  1.0000
  N   N57       1.0  0.69737  0.48143  0.10240  1.0000
  C   C798      1.0  0.84267  0.48119  0.00182  1.0000
  H   H1360     1.0  0.90615  0.48084  0.23517  1.0000
  C   C799      1.0  0.90316  0.49520  0.79250  1.0000
  H   H1361     1.0  0.94307  0.73509  0.49723  1.0000
  C   C800      1.0  0.73157  0.92635  0.49650  1.0000
  H   H1362     1.0  0.90250  0.51427  0.78738  1.0000
  H   H1363     1.0  0.72707  0.91181  0.51173  1.0000
  C   C801      1.0  0.82059  0.54136  0.96332  1.0000
  H   H1364     1.0  0.75130  0.57402  0.94050  1.0000
  S   S228      1.0  0.86777  0.50485  0.82890  1.0000
  H   H1365     1.0  0.97413  0.76843  0.50662  1.0000
  C   C802      1.0  0.70258  0.56808  0.91483  1.0000
  C   C803      1.0  0.71634  0.57473  0.93075  1.0000
  C   C804      1.0  0.74088  0.56834  0.92845  1.0000
  C   C805      1.0  0.75182  0.55453  0.91083  1.0000
  C   C806      1.0  0.73823  0.54848  0.89426  1.0000
  C   C807      1.0  0.71365  0.55575  0.89591  1.0000
  H   H1366     1.0  0.70810  0.58515  0.94465  1.0000
  H   H1367     1.0  0.74667  0.53840  0.88012  1.0000
  H   H1368     1.0  0.70318  0.55138  0.88291  1.0000
  S   S229      1.0  0.98633  0.60764  0.50605  1.0000
  C   C808      1.0  0.94618  0.70638  0.55756  1.0000
  C   C809      1.0  0.92312  0.71376  0.56722  1.0000
  C   C810      1.0  0.90703  0.72782  0.55157  1.0000
  C   C811      1.0  0.91416  0.73567  0.52636  1.0000
  C   C812      1.0  0.93750  0.72907  0.51672  1.0000
  C   C813      1.0  0.95333  0.71389  0.53217  1.0000
  H   H1369     1.0  0.91753  0.70820  0.58682  1.0000
  H   H1370     1.0  0.88898  0.73270  0.55905  1.0000
  H   H1371     1.0  0.72677  0.93690  0.54125  1.0000
  H   H1372     1.0  0.81603  0.51150  0.76970  1.0000
  S   S230      1.0  0.78243  0.54527  0.91022  1.0000
  H   H1373     1.0  0.82645  0.48621  0.74452  1.0000
  C   C814      1.0  0.97873  0.49276  0.82295  1.0000
  H   H1374     1.0  0.97387  0.53826  0.58607  1.0000
  H   H1375     1.0  0.80743  0.57802  0.96335  1.0000
  H   H1376     1.0  0.93085  0.48812  0.76326  1.0000
  H   H1377     1.0  0.72763  0.92131  0.47909  1.0000
  H   H1378     1.0  0.79449  0.95770  0.47931  1.0000
  H   H1379     1.0  0.75259  0.89345  0.53529  1.0000
  H   H1380     1.0  0.77201  0.86119  0.51652  1.0000
  H   H1381     1.0  0.95943  0.50043  0.78927  1.0000
  H   H1382     1.0  0.74306  0.91597  0.56433  1.0000
  C   C815      1.0  0.68653  0.50329  0.95314  1.0000
  C   C816      1.0  0.79781  0.92358  0.50554  1.0000
  H   H1383     1.0  0.67151  0.66950  0.96206  1.0000
  C   C817      1.0  0.77642  0.87897  0.50711  1.0000
  H   H1384     1.0  0.95792  0.50681  0.60695  1.0000
  H   H1385     1.0  0.66889  0.50301  0.96409  1.0000
  C   C818      1.0  0.80434  0.94873  0.49532  1.0000
  H   H1386     1.0  0.97163  0.65819  0.48629  1.0000
  H   H1387     1.0  0.91898  0.66889  0.50507  1.0000
  C   C819      1.0  0.96123  0.50846  0.80549  1.0000
  N   N58       1.0  0.77212  0.92198  0.51502  1.0000
  H   H1388     1.0  0.91676  0.70739  0.48479  1.0000
  H   H1389     1.0  0.95652  0.68470  0.49493  1.0000
  S   S231      1.0  0.88897  0.82058  0.49726  1.0000
  H   H1390     1.0  0.77131  0.60887  0.96755  1.0000
  H   H1391     1.0  0.76611  0.88458  0.49076  1.0000
  H   H1392     1.0  0.97544  0.81197  0.57058  1.0000
  H   H1393     1.0  0.68937  0.52233  0.94848  1.0000
  H   H1394     1.0  0.82338  0.94733  0.48814  1.0000
  C   C820      1.0  0.74226  0.93360  0.55198  1.0000
  H   H1395     1.0  0.76433  0.95610  0.52698  1.0000
  H   H1396     1.0  0.97355  0.79782  0.51100  1.0000
  H   H1397     1.0  0.77314  0.52655  0.96595  1.0000
  H   H1398     1.0  0.71918  0.94255  0.49930  1.0000
  C   C821      1.0  0.98789  0.56455  0.64847  1.0000
  C   C822      1.0  0.67024  0.50984  0.91334  1.0000
  Fe  Fe115     1.0  0.83857  0.49277  0.85842  1.0000
  H   H1399     1.0  0.95912  0.74967  0.55579  1.0000
  S   S232      1.0  0.94917  0.84472  0.49648  1.0000
  H   H1400     1.0  0.67555  0.52790  0.90905  1.0000
  C   C823      1.0  0.98431  0.78015  0.51371  1.0000
  S   S233      1.0  0.98996  0.62440  0.57055  1.0000
  H   H1401     1.0  0.98849  0.51818  0.56541  1.0000
  H   H1402     1.0  0.94388  0.80362  0.54700  1.0000
  H   H1403     1.0  0.80354  0.91351  0.49004  1.0000
  Fe  Fe116     1.0  0.79785  0.51297  0.89351  1.0000
  H   H1404     1.0  0.96938  0.57105  0.65245  1.0000
  H   H1405     1.0  0.96469  0.76786  0.57601  1.0000
  C   C824      1.0  0.75748  0.93149  0.49344  1.0000
  H   H1406     1.0  0.93761  0.78260  0.52909  1.0000
  S   S234      1.0  0.83618  0.49992  0.89751  1.0000
  H   H1407     1.0  0.82809  0.54551  0.94350  1.0000
  S   S235      1.0  0.80100  0.50908  0.85336  1.0000
  H   H1408     1.0  0.97116  0.70851  0.52462  1.0000
  H   H1409     1.0  0.86034  0.49316  0.76602  1.0000
  C   C825      1.0  0.71219  0.49247  0.91685  1.0000
  C   C826      1.0  0.96384  0.76747  0.55594  1.0000
  H   H1410     1.0  0.80950  0.91531  0.52045  1.0000
  Fe  Fe117     1.0  0.90021  0.78620  0.48346  1.0000
  H   H1411     1.0  0.77973  0.93347  0.54807  1.0000
  H   H1412     1.0  0.78226  0.88991  0.54099  1.0000
  H   H1413     1.0  0.79457  0.50900  0.79664  1.0000
  H   H1414     1.0  0.82352  0.51683  0.79805  1.0000
  H   H1415     1.0  0.97935  0.50253  0.83841  1.0000
  H   H1416     1.0  0.92639  0.78078  0.56103  1.0000
  H   H1417     1.0  0.80175  0.95994  0.50992  1.0000
  H   H1418     1.0  0.79560  0.87654  0.50069  1.0000
  C   C827      1.0  0.77037  0.89625  0.52587  1.0000
  H   H1419     1.0  0.67072  0.50490  0.89478  1.0000
  H   H1420     1.0  0.86396  0.50133  0.97258  1.0000
  C   C828      1.0  0.94199  0.78486  0.54753  1.0000
  S   S236      1.0  0.89282  0.75127  0.50688  1.0000
  H   H1421     1.0  0.93086  0.64235  0.49274  1.0000
  C   C829      1.0  0.76561  0.93687  0.53522  1.0000
  S   S237      1.0  0.96606  0.68978  0.57828  1.0000
  H   H1422     1.0  0.72021  0.50807  0.91919  1.0000
  H   H1423     1.0  0.94264  0.48485  0.85346  1.0000
  H   H1424     1.0  0.94184  0.64848  0.51929  1.0000
  C   C830      1.0  0.93531  0.65679  0.50098  1.0000
  H   H1425     1.0  0.75672  0.95112  0.48847  1.0000
  H   H1426     1.0  0.94347  0.51262  0.81549  1.0000
  H   H1427     1.0  0.96648  0.50925  0.63621  1.0000
  Fe  Fe118     1.0  0.99143  0.48963  0.70442  1.0000
  C   C831      1.0  0.88776  0.48550  0.81254  1.0000
  H   H1428     1.0  0.73486  0.48952  0.88234  1.0000
  H   H1429     1.0  0.70847  0.50948  0.87770  1.0000
  C   C832      1.0  0.81367  0.50547  0.79012  1.0000
  Fe  Fe119     1.0  0.92386  0.83009  0.47768  1.0000
  S   S238      1.0  0.97879  0.52597  0.68365  1.0000
  H   H1430     1.0  0.81463  0.52370  0.96585  1.0000
  C   C833      1.0  0.95469  0.67030  0.48485  1.0000
  H   H1431     1.0  0.73910  0.94697  0.56447  1.0000
  H   H1432     1.0  0.78733  0.56202  0.95459  1.0000
  C   C834      1.0  0.96805  0.49699  0.62254  1.0000
  H   H1433     1.0  0.76619  0.92523  0.47621  1.0000
  C   C835      1.0  0.80006  0.56087  0.96841  1.0000
  H   H1434     1.0  0.96795  0.52567  0.79796  1.0000
  N   N59       1.0  0.68722  0.49325  0.92957  1.0000
  C   C836      1.0  0.99103  0.52859  0.57956  1.0000
  H   H1435     1.0  0.93676  0.48371  0.64351  1.0000
  S   S239      1.0  0.67157  0.57395  0.91955  1.0000
  N   N60       1.0  0.98749  0.77081  0.54091  1.0000
  H   H1436     1.0  0.97750  0.81969  0.53715  1.0000
  S   S240      1.0  0.98686  0.48287  0.74628  1.0000
  H   H1437     1.0  0.98968  0.73132  0.58132  1.0000
  C   C837      1.0  0.71562  0.49221  0.88854  1.0000
  H   H1438     1.0  0.69643  0.98018  0.56045  1.0000
  Fe  Fe120     1.0  0.65980  0.57674  0.95976  1.0000
  C   C838      1.0  0.70452  0.49052  0.97156  1.0000
  H   H1439     1.0  0.72304  0.49160  0.96331  1.0000
  C   C839      1.0  0.98760  0.81179  0.55313  1.0000
  C   C840      1.0  0.97400  0.85132  0.47555  1.0000
  H   H1440     1.0  0.87003  0.48197  0.73785  1.0000
