data_image0
_chemical_formula_structural       FeS2FeS2FeSFeS4CH2FeS2FeS2FeSFeS3CH3C2H4C6H6CHC3H2C3HC4H3C6H4C2H3CHNC2NH2CHC3H8CH3CH2FeCH2CH3CH3CHNCHCHCH2CNC8H12C2H3CH2NC8H8CH14SH6CHCH2CHCH3SCH2C2HC2HCHCHC2H3CNHCH4CH6CH3CHCSH2CH2CH3SC2FeHC2H5SH6CFeH2CH3CHC2HCH3C2NHC2HCH2C2HCHC3H3CH2CH3C2S2CHCH2CHCH4CHCSH2FeSFeS2FeCFeS3FeS2FeS2FeSFeS3CHSC2FeS2FeSFeS2FeHSFeCS2HCS2FeS2FeSFeS2FeS2FeS2FeSFeS3FeS2FeS2FeSFeS3NH2SHSC7HNHC2HFeC2H2FeHC6H4C6H4SHC3H2C6H4NC3H4C6H5C6H4C6H4C6H4C6H2SHC6H4C6H5CH2C2HCH4CH6CH4CHNC5H7CH3NC8H26CH6C3H5CHFeCH3NC8H29CSH4CH3CH2C2HSH2FeNC8H19CNC8H17NC4HC2H6SH8CH2CHCNC4HCHCH4C2H4CH10C5H14CHCH7C2H2CHNC4SHCH9CH2C2H2SC2HCH4SHCH3SH2CSH9FeH3CHCHC2H4NHCHCSHC5H3NHFeCHC2H2CH3CHCH2NCH8CHSHFeCHNH4CH4NC7HCH5C3H3SH2CHCH4SNCH2CH3CH2CH2CHCH9C2HSCH2CH2C2H5CH3CHCHCNCHCH2CH3FeSFeS2Fe2S2FeSCH2CFeH2FeSHFeSHFeSFeSCSCHFeS2FeS2FeSFeS3CHSHFeS2FeS2Fe2S3H3C3H4C6H4FeSC5H4CHC2H2C6H6C2H2C3H3CHC5H4C6H5SH2C6H5CHC4H2C2H2CH3SH4CSCSNHCHFeH3NCH5CHC5H2S2NC5H6SH3SH10SH4CH2S2HC2HCH7CH2NSH4NC8H20C2H2CHC2NHC3HC4H3CHCHNCH10NCHC6H2FeH9CH7NC8H20NC8H8CH16NHCH2C3H3CHCH2CHC3H2SHCH5CH3CHCHCHC2HSH3FeCHC2H5CHCHC2NC3HC2H8CH5CH2SCH2C2HSHS3HCHCH2CH2SCH4C3H5C2H2CH9Fe2HFeHC5H4CHCH2C5HC2HC2NH2SH3SH3C2SH3CH2C3NH2C2SCHC2H3CHCHC2H3CH5NHCHCHFeH2SH4C3HCH6CH2FeH4CSHC2FeCSH3CH2SFeSH2FeHSHCH3FeSHSHSCH2FeS2FeS2FeSFeS3FeS2FeS2FeHFeHS2CSCH2CHSHC4H2SHC6H5C5SH2C7H4C6H4CH2C2HCH2CHSCHCHCSC3HSH3CHSCHCH3CHNH2CH12FeC2HNSH3NC8H16CH3C6HFeHFeSHC2NCHC2H4CHCH2C2HCH4CH2CH3SH5C3H9FeH2NH8CHS2C2H2CHCHCFeCH2C2H4C2HC2H2C3H6C2H6C2SCH2CSC2H4CHC3H3SCHSH2CH3CHFeHC2H5C4NH4CH2CHCHNCSHCNH4FeHCHC2SHCFeH2SCH2CH2SH3CNH2SCH2C2H2C2HCHNHCH5C2SCHCFeHSH3CHC2SHFeS2H3FeSCSCHCH2SHFeS2FeHFeS2FeS2FeS2FeSFeS3FeS2FeS2FeSFeS3HSFeS2FeS2FeSFeS3FeS2FeS2FeSFeS3C6H4C6H4C6H4C6H4C6H4CH2CH3C6H2C6H4C6H5CH8C7H4C7H6CH2C6H6CSCH2SH2C2H5S3CH3C2HSH7NHC2NC8H23NHCH3CH2CH7C2SH2CH2NHSHFeHNHCSHC4HFeCH2C3H2CHCHCNH2SHNC8H4SH3FeHCH5CH3NC8H16C2H2CHCHCH3CFeH3FeHCHCH6C2H2NCHC3HCH2CSH8NHCHCFeHC5HCH3SCFeCH2CH3CH3CH2C2FeHNCNH2CHCH4FeH8C2SH2NC8H22CHC3HNH2CHC3H2C2HCH2C2H2CNC8H21CHCHCHC2H3NH7C3H5SHCSHCH4CHSH2NH2CH6CH3C3FeH2CSCHCH3CH3CH2CH3CS2H9CHFeCHC2H3S2H4CH5C2HSHCH6CH3CH4SH2FeS2FeS2FeSFeS2FeS2FeSFeSFeHS2H2FeHSFeHFeSHSH2SH3CFeSCSH2C6H4C2SH3C2H3C6H4CHC4H3C6H4C6H5CSCH7NHSH2CH9FeH2C2HCH3C3HSHCSH3CH2CNC2H2CSH2NHCH2CNC2HCHCH6NHC3H4C3SH4C3HCHCHCH3CSCHCFeNH8CHCH4C5H3C2H4CH4CH5CH2SH7CFeCHCHFeS2FeSH9CHC2H3FeS2FeSCFeHFeSCSCH2SHFeS2FeS2FeSFeS3C3HCHC3HSH4C6H4C6H6CH4CHCHCH2CHCHSH3NHCH3CH2CH6CH4CH2C6H5C2HC5H2SH4CHCSCSHC2SH8CH5CHC2H4C2H4C2HCH5NHC3HCHCH2FeHSCH2CH2CH3C5SNHC2NCHC2HCH4CHC2H2SHC3H2CH7NH5C2NH4C3H4SC2HC2H4CHNFeHSHCH5CH3C2H3C5H3C2H2SCH2CNH6SC3H3CFeSFeS2Fe2S3FeSFeSCFeSHCSCHNH2FeS2FeS2H6FeSC2H2C2HFeH2C3SCHFeSHFeS2FeHFeS3HSFeS2FeS2FeSFeS3FeS2FeS2FeSFeHS2H2C7H5CHC3HFeH5C8H6CH4CH2C2SCHC2H2SC6H5C6H3C7H10FeH4CH2CH3C3H2C2H2C2HC3H2CHC6HC8H4C4H2C3H2CHCSH2CHC2H7SC2HCH4SHCH2CHFeHCH5CFeHC4HNHCH2SHCH2SFeH4SC2SHSCHFeHCH2SCH2CHSC2H6CNHSH2SH2CHC2HNC8H23SCH3C2H4SNHC2FeHC2HNH6NHCH3C2FeH2C2H2CH2S2CH4CHNC8H20NHC6H17CH3C2FeHCH3SCHSHNC8H16FeSHCH5SHCSH2CH2CH4FeCHC2H2CSH3NH2C3H2C2H2SHNHCHCHSH2C2H7SHCFeH7CH2NCSH16CHFeHCH2C2H2SH5NC2HCHCFeHCH2CFeH2FeH2CFeHCH3CHFeCFeNSFeH3CH2NH2S2FeSFeS2C2HCSHSFeS2FeHSFeHFeHS2HSFeSH5FeS2FeS2FeSFeS2CFeS2FeS2FeSFeS3C5H5C6H8C3H5C2HC2H2C6H6FeHC6H7SHCHCH3FeC7H5C4H2NHC6H4CHSFeHCH3NC5SH7CH2CH13CH2CHFeSHCH4C3H3FeCH3FeH2C2HCSH2CHNH2C2HCHNC5HC2H12CH5CH5NSH3CH2CH2C2HCHCHFeC2HNC3HCH9CHCH4C2FeCHCHNC8H19CSH8CH2C2H2NH2CSH2SH2C3HCHCH3C3H5NCHC3H2C3H2C2H4C4H5CNC6H2CH7CHS3C2H4CHCH5CHCNH5CHC2HNC8H11CHSH3C2HSHSC2HCSFeCHSH3FeHCH4C5H3CHSCHC3H5SH5FeH3SH3C3SHC4H2C2HNH2C2SHCHS3HCH2CHCSHCH2CH4C3HSCH2CHNCHCH5CH3NHC2H7CHCH3C2H9CNCH3CHC2HSH2CHCH2CH3SCH4CH6CHCHFeS2FeSH3C2FeS2FeS2FeHFeS3CSC2H4SHFeS2FeS2FeSFeS3C2NHC3H2C3H2CHCH2CH2CHNHNHCHC6H4C6H4CH9CH2CH2CHCHC2H3CSH3C2H2C6H9CH8SCHCH3CH3CHCH6C4HCH2CH3NHFeH3CHCH4CHCH2CH2CHCH2CH7C5HNHCH4C2HCHCH2FeHCH2CNHC2HCH7CH2CH4CH4NHCHC6H2CH4CH5CHCHCH2SH4NC3HCHC2H2SCHCH5CH6SHSC2SC2HSH5CH5FeS2FeSFeHFeS3FeS2FeSHFeSFeS3C6H4CH4CHCHCH2C3HCH8CHCHC3H5C3HC2HSHCHC4HCH2C3HC2H3CHC2H8NHCHC3NC5HC2H15C2H3NC2H4C3HC2H2CHSHC2HC2H4CH2SHCHC2H2CHC2H2CH2CH4CH4NHSHCH3CHC2HSHCHCH5CHCH4NHCHNH2CH8SFeSFeS2FeSFeS3FeSFeS3FeSFeS2FeS3FeS2FeS2FeS2FeS2FeSFeS3H2SH3FeS4FeS2FeSCFeSFeS3H2CH2CS2FeH4FeHSHCHSCSH4C2H4C7H5CHCH4CHC2SH2SHC6H4C6H4C2SHCSHCH2C2HC6H4C6H4C4H2C6H3C6H8FeH2CH2CH2C6H4C6H4C6H4C2HCH2FeC2H3Fe2H2C2H8CHCNC6HCH3C2H2CH3C3H8C2H2CH3C3SCNFeCFeHS2H4CHCH3CNC2HCH4CHC2H6CH3CH3CH2CH2CNCH3CS2C2H12CNC8H24NC8H20NC8H21SH2CFeH7CH5NCH3CH2FeCHNC8H5SH2CH14SHNCFeH3SNHC4HCHFeSH2C2NCH2NHCH2CHCH4CH2CHCH2C3SH2CH2CH10CNC8H20FeCFeH2CHC2SH2CH2SH9SCH3SFeHCH2C2FeHSCH2CSCH3C2HC3H2CHFeCHFeS2HFeNS2FeCSH3FeSHSCFe2S2H2S2FeS2FeS2FeSFeS3CHCHC2FeS2FeS2FeHFeHS2H2CH3FeC4H5C6H4C4HCH4C6H4C6H4C4HCH2SHC2HC2H2CHC2HC3H2CHC2H3SH2C2H5SH6CHCSHCH2CHCSH2NC8H20NC4H18FeCHCH2CH3NH2CH8CSH7C2H2SFeCHSH2CH3CFeH4C2HC2HC2FeNH2FeHSHC2HCH2C2HCHC2HC2HCH2CHCSHSNC8H14SH6NHCH4C2HFeHSCHSH2NHNHCHCHCHNC6SCH4CH8CH3C2H2CHCH6C2H2C2H7CHC3SH5CH3S2H9SFeCSHCHC2H4CFeC2FeSHFeSFeSFeS2FeSFeS3HCHCH4SHC2HCSCHNHSHSFe2HFeS2H2FeSCS2CHC2FeSCHSHFeS2FeS2FeSH2S3HFeS2FeS2FeS2FeSFeS3FeS2FeS2FeSFeS3CH2C6H4C6H6NH2C7H7C5HCH2SHCH2CH3C6H4NC6H4C6H5C3HSH2C2H3CH7FeH2FeCH3C7H2C6H4C2H2C7H3CH3C6H2CHCH3FeH5CHC2HSHSH2CH2CH2CHSH2C3HSH4FeCH3CH2CHSHSHCHC2H2CH4C3HC2H3CH2NC8H20CSC3NCSC6H3CH9CH2CSH3FeSFeCHCH2C2H2C2H2CH8NHCHCFeCH2CSHCH2CSHCHCH3SHCNC7H3CH16SNC5H18SH2SHSH3CH5NHC2H2C2FeHCH4CHCHNC5HC2H12C2H7CH2C2H2C3HSH2CNC3H9C2HCHFeH7C3HCH2CFeHFeH3CN2C8H15C2H4C2H2SH2CH2CH4CHFeH4CH4CNH15SCH3SHSH4CHC2FeS2HCHSH2FeS2H2CFeS3FeSFeS2Fe3SHSCHCH3FeS2FeS2FeSFeS3H2C2HCH2SHCSHCFeS2FeS2FeSFeS3HCH5FeS2FeS2FeSC2SHCH2CNH3CSHSH3C2HC3H4C3H2C6H8C6H3C6H4C6H4CH2NH4C3H2C6H3C7H4C3H2C6H3C8H3C6H4CHCH6C5H9FeHC2H8SH5SH4FeSHS2H2CHNSCHC2H6C3H6FeCH5NC8H20CHSH2NC8H20NC7H12FeH3CNC8H20NC8H19FeNC6HCH15CH4CHC4H2FeSH2FeSH5CSC2H3C6FeCHCHCSHCH2SHNHC2HNHSCNH3S2C2HCH2CH8SHCHCH2C3H2CHNH3C5HSNH2FeCH4CFeCHCH3SHC2H2FeHSH2CSCH2CNHSHFeHCHCSFeCSHFeH3C5HCH2CH2CHC2H6CH2FeNH3C3HSCH4CH2CH10SH2CH7CH2SCSH2C2H2FeHSFeH2SH3SCH2CSHCHSFeHCHNCH3SHSH2CHC2HCS2HCH3S3HCHFeHFeSFeS2FeS2H2CFeSC2SCFeSNFeS2FeSFeHS2FeSFeSFeS2C6H4C6H4C6H4C6H10C6H2SH8NH3CH6C6H4CSC3H2C3H2NHC2SH4SHCH8CHSH2C2H5CHCH2C2HC2H2SCH2C2HCH10NHC2NCH3CH3CH2FeHCHNC8H21C2HCSHSH2SCNHCH2NC4HC3H9CHFeH3NHC2HC4HCFeHSFeHCSCFeC2H3CH2FeHNHSCH2FeH2FeH8FeHC2H3CH4C2H3C2HCH2C3HCHCH6CH4SHCH5CH2CH2SCHCH5CH4CSC2HNCH4SH2CHSH2C2H2FeS2FeS2FeSFeS3FeS2FeS2Fe2S3C2HC4HC2HC2HC6H4C4HCH2CHC7H2C6HSH2C2HC4H5C2H5CHCH3NC8H20NC8H28CH5NCH4SC2H3CHC6HCH2CHSC3NCH4CH2CFeH7CNCH4C2H3CH9C2H3SHSH2NHSH2CH2CHC2HFeS2FeS2FeS2FeSCFeSFeS3H3SFeH2FeHFeH2SHFeSFeS2FeS3FeS2FeS2FeSFeS3H7FeS2CSCHC2H3FeSFe2S3C4S2FeSHFeS2FeS2FeHFeS3C6H6CHCH2C3H4C4H5NH2C4HCH2C6H7C3H4C6H4SC3H2CHC4H8C6H4C6H4C6H5C2HSH2CHC6H4C6H3NC8H11CH5CH3SH3FeH3C2H2CH3SH6C2NHCNH3CHNH4FeC2H2CH3C3H2C3H2NFeH2CH2CHCHCHCH3NSHCNC4HC3H9SCH8CFeNH3CH3CH8C2H5C2S2H6C2HSHCH2CHC2H3NHC3HC3H8NH8CHNH4C2FeH3CHFeCH3CHC2FeH11C3HCH2CNC3SH2CH2CH2CH3CH5SC3HNHCH3CNH3C2H4CHC2H3SH2SH3C2HC2H2C2NCHSHC2HCH2CH2CH5CH2CHCSH2CNCHSH4CH5FeCH3CH7CHSH2CH4CH2FeH2CH3CHCHC2H2C2HSH5SC2SC2HSCH3C5HCH2FeH2CHFeCH2CHS2H3CH5CFeHCH3S2C2HCHSCH2C2HC2H4NH4NSH3CHC3H5SCH6SHCH7CHFeHC2H2FeS2FeS2FeSFeS3H2FeSCS2HCHFeSFeS3FeS2FeSFeSFeS3HS2FeSHC2SHC6H4C6H7C6H10C2H2CHC2H2C3H2C7H4C6H4C6H5CHC4H4FeNHC3H2C2HCHCH3C2H3CH6CNC8H23S2H2C2H5CH3CH9CHCSH3FeCH4SH3FeH2NC5H6CH8CH4FeH2CH2CH3FeHSH3FeHCSHFeC2HCHCH8CH3SCSH2C2H2NC6HC2H7CHCH2CSH5NHC3NSH5CSCHNC4H11CHCHCHCHC3H2CH2SCHCH8NC8H20NC8H8CH2NH7SCSH2CHSHCSH2C2H3C2HC2FeH3C2HS2C2H2C2SCSH3C2H2FeSC3H2SC2H3SC2H5CSCHCH3C2FeH3C2FeH2SHC2NH2CHCFeC2HCH2FeH2CH3CHSCHCS2C2HCH4C2H2CHCHC3H2NCHNH3CHCHC2HCHCH3CH4CNCH3CH2NCHCHCH3CH2SH2CH4NSH2CSH3CH7C3H3CHSH2CH5CSHCHFeS2FeS2FeSFeS3FeSCFeS2HSFeSCSCSFeCSHCH3NHC2H9NCH9CH6CH6CHC3HCH3C6H7NC2HCHSC6H4C6H4CH2CHCHC8H4CH2CHNH3SFeHSH2C2HCHCH2CH2C3HC3H4FeHC2H2CHCHCHCH3C2H8SC3HFeCHC2H2CHCSH3SH2CSH2CNC8H20SH8NH4C4SHCHCH2NH3CH8CH2FeH3CHNH2FeS2FeSCS2HFeS2FeS2H2FeS3FeS2FeS2CHFeH2SFeS2FeSFeS3H2CHNFeS2FeS2FeSFeS4H2CHC2H3CHFeCSHS2FeS2FeS2FeSFeS3CHSFeHSNSFeSHC6H5CNC3H4C2FeCH2C3H4CH2C2H6CHC7H4CHC4FeH2C6H4C5H2CHC5H4C6H4C6H5SH3CFeHCHSC4HCH3C6H4C6H2CH3CHNC3FeC3H2CH3C2HCH11CHSHC4HFeH2NC2HNC8H20NC8H15SHC4SHC2HCHCH2CH3SH7C2H2CHCSHSHC2H2NC6H9CH2C3NC8H20NC8H20NHC3HC2H9CHCH5C2HCSH5CFeC2HNH3C2H3CH3CH4CH5CH2CH5CHSCH7C2HCHCHSH2CHSHC2H3CSH2FeH6FeHCHCH3CH3FeSHC2H6CHFeHCH2SNH2CH2C2H2CH5C2HCH6SC2H4NH4CH10CH2CH3CH6CH3CH2CFeSFeS2FeS3HCHCHCH3SH3Fe3CSCSFeS2HC2FeSCHSC2SHFeHSC2S2FeHFeSHFeS2FeSFeCSH2NH3C4H2C6H6FeHC3H4FeCH3NH7CHC2NCHFeCHC3H3SFeH2CHFeH2CSH2C6H4CH2C7H4C2H3C6H3NC8H21CHCHNCH2CHC2H9NCHC2H11CH2CHFeH8CH7CH6CH3CH3CH4SH2SHSCHC6HCHC2HCSH3CH3SH2CH2C2HCHCH3CSH3S2HCH3SH2CSCH3CH2CHCHC2FeCH2NHCH5NC8H4CH5CH6CSH2SH2C2SCSNSH7CHC3HC3H2CH2FeHS2FeSHSHCFeSCHCFeS2FeS2FeSFeS3FeS2FeS2FeSFeS2H3CHCH2FeCH2CH2FeHCFeSCHNCH2C3HCFeSHC2FeSH2CH6C7HCH8CH3FeS2HCHC3H2SH2CH3C7H4CHSC6H4C6H5SH3CHC4H4C6H4SHCH5C2HC2H2CH4CHSCHCH13NCHCHCH2CH4C2H3CH13SC2HCH7FeCH2CH2CHC3H2CH3CH2CH3CNCH3CHSC2HCH6CSHCHCH4CH4CHCH2CHSCNH2SNHNCHC3H2C2H2CFeH8CHS2H3C3H2CH2CSCNCH4NH2C2NH3CH2CH4FeHCH2C3HC3NH3CH3FeH3CFeS2HCFeSFeS4CNHCHS3H8FeS2FeS2Fe2S3FeCSFeH2FeHS2H3SNSH4SHFe2S2FeHFeSFeS2FeS2FeSFeS3FeS2FeS2FeSFeS3FeS2FeS2FeSFeS3CH2FeH2SH2FeC2H3C2HNCH4CH2C6H3C6H4C6H4C6H2C6H5SCH4C6H6S2H3CH2CH2C7H3CSC2HSC7H4C4HCH3CH3CH6CHFeC4H7C2H4SCH10SC6H4C6H4CHC2H6CNC8H20NC4HCH7CH2CHCH6CH3SHC3HCHC2H3C2HC4H6CNC8H20NC4H11NC8H18NC7H18C2N2C8H21C3H3SH2SH4C2SFeH3NC2H4SH2CH3C4H3C3HCNCH4SH2SHCH3C2H4C2SHCH5CH2CHC2H3CH2CH2CH7NCH4C2HCFeCH3FeCH3CH3CH3CH5C2H3SC2H4CH5CHCH2C2H2C2FeS2FeS2FeSFeS3H3FeHSFeHS2HC2S2FeSFeSHFeS2FeS2FeSFeS5FeSC2H7C6H5CFeC2H6C6H4CHCHC2HS2FeHCHC2H2C3H2C6H4C6H4C6H4SHC2HCSH4CNC2SCHCHNH2C2HC3H2CSHCSHC3NC8H20NC6H14NC8H20NC8H20C2H3CHC2HC2SH3CHFeCH12C3H2CH3C2H3CH2NCHNHSH2FeH7NC8H20NC4H2C2H6SHSH4NH5CH2SH2CH2SCHCH3C3HCHCHCHCH2C2H3CH2C2H3NC2SHCH2CH5CH8C2H4NC6H4CH8CH3FeHC2HFe2H3CH2CHCHSHSH4C5FeCH6SCHSCSHCH5NC8H16CHSCSH2CH2Fe2HS2HS2C4H4SHCH2SNFeC4HSH2NHCH3SC2SHCH2C2HC2H2CH3CFe2C3HC2HSH2SH2CHCH2CFeH3C3H3CNCHNFeH2FeH3CHC3H2SC2HCH2CH3C2HCH7Fe2S2FeHS2HCH3CH2FeS2FeS2FeSFeS3FeS2FeS2Fe2S3H5SCHCH4CS2FeS2FeSFeSC5HSH3FeSH3CHCHFeCH2C6H4CH2C2HSH2CHSCH2CH3FeHC2H2C5H3C6H4C6H5CH5C3HFeH4C7H6C2HCH2C2HSH2C2H2CH2C3HSHCHCSNC8H11CH8NSH3CFeH2C2HCHCHFeH2CH4SHC2SHCH2CH2FeCHCH5C2H2CH9C2H3C2H3C2N2C4FeC3HCH7C2H10NH2CHC2H2C3HSHCNH4SHCH7SH3C2HNC8H10CHSH2CNHC2NC6H5CH4C2HCH5CH3CHSNCH6SH9SNFeSHC2H2SCH3SH3CH4CHC2SHCH3SCH4FeS2FeS2FeSFeS3H2FeS2FeS2FeSFeS3C2HC4H2C7H3C6H4C5H4CHC4H5NH2C2HCH6CHS2CHC4H3C3HNHC3HCHCH8CH4CH3CHCHCH7C3H8NH2CH2CH2CH2NC2H10SCH3C2HCH4CH3CHNHSCH7CH2CSHC3HC2SH7CH3CH3CHCH3C3HNHC7H14CH8SHCH3CH2CFeCHCH3C2HCHCFeC2HNCH3C2H2CH2CH4C2H2SCHCH3FeSFeS2FeSFeS3CFeS2FeS2FeSFeS3FeS2FeS2FeSFeS3HCFeS2FeSFeCFeS4CH4CHFeS2FeS2FeSFeS3FeS2FeNHFeSHSHCH2FeCSH4SHC2S2H3CHSH3C6H5C5H3C7H9C7H4C6H4C6H4C6H4C6H4C6H3CH2SC2H2C6H4C7H3C6H7CH3CNH7CH2C2HSH4CHC3HC2H2CFeH5CHC4HCH3CNC8H20CHCH4NS2CHCH2CH3CHCHCH2CH4CHSC2H3C3HCH2CH4CHCSC2H3CHCSHC2H3C2H6CH2C2H4CH3NH4CH4NHC3H9CHCNCHNHCH2NH2C3H2SH5CH2CNC8H20NC5HC2H7CH5CH4C2NCHC3HC2H2CH8NHFe2CH3SH2CFeH2CH2CH9SHSCH3NC7H17CNH4C2H2NC8H17FeH2CFeH11SCH3C3H4C2NH2CH3CH4SH6CHCHCH2CH4SCHSHCFeS2FeS2FeSFeHS2FeS2FeS2FeHFeS3HSC2H3SHCHC2H2CH6CHCHCH5CNCHSCHCH4CHCH3NH2C4H4CH3C4H5NCHC2H2FeC6H4C6H4SHCFeH5C6H3NH2CH6NSFeCH6CH2CH3CH11CH8C3HCH3CHC2H2C2H4CHC2SH4CH4CH5CHCH2CH4SC2SCH2CH4CFe2S2FeSFeHS2C3HFeS2HCH3CSHC2HC2SH3FeSHSCFeS2FeS2FeSFeS2HSCHSHSFeCFeS2FeSFeSFeS3NC2FeS2FeHFeS3FeS2FeS2FeSFeS3FeS3HFe2NC3H8NH3CNSH2C7H4C6H4C4H2C6H4C5H4C4HC3SH3SC6H4C2SHC2HCH2C6H7C2H4NCH2CH2SH5C2H4FeC2H4C6H6C2H5CHCSNCH2C2H2C6H4C6H4SH4CH3CHSH2CHSH2C2HCHNC8H23FeCH2CH6CH4CH3NC8H4C2H8C2FeH3NC6H16NC8H19CHCH2CHSHNC6HCH15SH6CHFeHC5H2CH2FeH3CHSH8C3H2CHSCH2CH2CH2CH5NH2SH2CHCHC2H2C2HCH3CH2CH6FeHCHCHCHCH2C2HCH3CHC4H3CH3C2H3C2H11SHCFeH2SCH9C2HSH4C2HNH3CHNC3HCH8CSC2NFeC2H4C2NH2C2FeCH2CH8FeH2CH2FeC2H4SH2C2H5CH2SH2SCH2NH2CH3CH3CHC2HSNHFeSHFeS2FeSFeSHFeS2FeS2FeSFeS3CFeS2FeHFeSC2SCSFeS2FeS2FeSFeS3FeS2FeS2FeHFeHS2H2S2NSH2FeS2FeS2FeSFeS3CFeS2FeCHFeSCSH3C6H4C2H3CH4C6H9C4HCH4CH3C6H4C6H4CSH3C6H4C5H4C6H4C6H4C6H4C6H4C5H3C7H4NC2HCH2CH4CHCH2CFeH4CHCH4C2H6CH2CH2FeCH3C4H2C3HCNC8H26NC8H20NCHSHCHC4HCHSCH2CHCFeH6CFeCH4CH13C2HCH3CHC2H7CSHC2HNC8H26C3HCHNCH2CH9CH2SFeHC3HCHC2HCHSH2CH3CSCH5S2HNC8H18CH7NC8H22CSCH2CHCHNH3SHNC3HCHCHSCHCH3CHSH2NCH2CSFeC2FeH6NSH4CH4CHCH6C2SFeS2FeHFeSNSFeS2H3FeSHSCFeCFeS2FeSFeHS2FeS2FeSH2FeSHSH3CHCHCH3C2HC3H3C6H4C6H5C6H4CH3C3H3C6H4C2HCHCH4C2H4CH4S2HNSH2SH3CHNCHCHCSCHCH2CH4C2HFeC2H3C3H2SC4H5NH2CFeC2H3CH4CH4C2H6NH2CH5CH5CHCH2FeC2H2C2SHCHCH4CH4SH3CHC2HSCHCHCHCH3CH2NCH4S
_chemical_formula_sum              "Fe768 S1536 C5376 H9216 N384"
_cell_length_a       90.8736
_cell_length_b       91.491
_cell_length_c       91.5951
_cell_angle_alpha    73.9456
_cell_angle_beta     73.9289
_cell_angle_gamma    73.8598

_space_group_name_H-M_alt    "P 1"
_space_group_IT_number       1

loop_
  _space_group_symop_operation_xyz
  'x, y, z'

loop_
  _atom_site_type_symbol
  _atom_site_label
  _atom_site_symmetry_multiplicity
  _atom_site_fract_x
  _atom_site_fract_y
  _atom_site_fract_z
  _atom_site_occupancy
  Fe  Fe1       1.0  0.31339  0.15478  0.06819  1.0000
  S   S1        1.0  0.28954  0.15161  0.06927  1.0000
  S   S2        1.0  0.32770  0.14152  0.08635  1.0000
  Fe  Fe2       1.0  0.31187  0.18100  0.03909  1.0000
  S   S3        1.0  0.28763  0.18023  0.03830  1.0000
  S   S4        1.0  0.32623  0.19715  0.02185  1.0000
  Fe  Fe3       1.0  0.28277  0.17769  0.06436  1.0000
  S   S5        1.0  0.26316  0.18854  0.08195  1.0000
  Fe  Fe4       1.0  0.29702  0.15424  0.04333  1.0000
  S   S6        1.0  0.29591  0.13604  0.03148  1.0000
  S   S7        1.0  0.30625  0.18066  0.06449  1.0000
  S   S8        1.0  0.32159  0.15529  0.04262  1.0000
  S   S9        1.0  0.31192  0.19794  0.16077  1.0000
  C   C1        1.0  0.26375  0.20472  0.10295  1.0000
  H   H1        1.0  0.45398  0.23161  0.01299  1.0000
  H   H2        1.0  0.37518  0.11955  0.18130  1.0000
  Fe  Fe5       1.0  0.30956  0.07036  0.14932  1.0000
  S   S10       1.0  0.29603  0.05578  0.16980  1.0000
  S   S11       1.0  0.29643  0.08758  0.13197  1.0000
  Fe  Fe6       1.0  0.33929  0.05885  0.16166  1.0000
  S   S12       1.0  0.32793  0.04400  0.18325  1.0000
  S   S13       1.0  0.36496  0.05712  0.15917  1.0000
  Fe  Fe7       1.0  0.31795  0.03695  0.16706  1.0000
  S   S14       1.0  0.32089  0.01083  0.17162  1.0000
  Fe  Fe8       1.0  0.30736  0.06418  0.18389  1.0000
  S   S15       1.0  0.29326  0.07156  0.20626  1.0000
  S   S16       1.0  0.33053  0.05078  0.14526  1.0000
  S   S17       1.0  0.31961  0.07985  0.16348  1.0000
  C   C2        1.0  0.31573  0.10503  0.20291  1.0000
  H   H3        1.0  0.25233  0.13941  0.97918  1.0000
  H   H4        1.0  0.34179  0.22127  0.98831  1.0000
  H   H5        1.0  0.29405  0.99273  0.18160  1.0000
  C   C3        1.0  0.31384  0.00810  0.14511  1.0000
  C   C4        1.0  0.31442  0.99946  0.13431  1.0000
  H   H6        1.0  0.36675  0.17334  0.18456  1.0000
  H   H7        1.0  0.44169  0.17894  0.04551  1.0000
  H   H8        1.0  0.30570  0.01924  0.14532  1.0000
  H   H9        1.0  0.30675  0.00404  0.12616  1.0000
  C   C5        1.0  0.44247  0.22688  0.03710  1.0000
  C   C6        1.0  0.38369  0.06516  0.19073  1.0000
  C   C7        1.0  0.38148  0.05901  0.17923  1.0000
  C   C8        1.0  0.36789  0.06511  0.17322  1.0000
  C   C9        1.0  0.35669  0.07756  0.17849  1.0000
  C   C10       1.0  0.35914  0.08399  0.18960  1.0000
  H   H10       1.0  0.39412  0.06034  0.19541  1.0000
  H   H11       1.0  0.39022  0.04946  0.17511  1.0000
  H   H12       1.0  0.34627  0.08241  0.17380  1.0000
  H   H13       1.0  0.43928  0.22982  0.99099  1.0000
  H   H14       1.0  0.46573  0.17626  0.02446  1.0000
  H   H15       1.0  0.39232  0.98938  0.19020  1.0000
  C   C11       1.0  0.30731  0.11174  0.21559  1.0000
  H   H16       1.0  0.34454  0.15717  0.18183  1.0000
  C   C12       1.0  0.31170  0.09243  0.20038  1.0000
  C   C13       1.0  0.29882  0.08676  0.21015  1.0000
  C   C14       1.0  0.33259  0.18165  0.98737  1.0000
  H   H17       1.0  0.48322  0.17868  0.02803  1.0000
  H   H18       1.0  0.31874  0.08694  0.19099  1.0000
  C   C15       1.0  0.38660  0.98858  0.18123  1.0000
  C   C16       1.0  0.31520  0.20733  0.18551  1.0000
  C   C17       1.0  0.31359  0.19513  0.18006  1.0000
  H   H19       1.0  0.35559  0.18234  0.20043  1.0000
  C   C18       1.0  0.31573  0.20513  0.20117  1.0000
  C   C19       1.0  0.31441  0.19082  0.21148  1.0000
  C   C20       1.0  0.31316  0.17851  0.20592  1.0000
  C   C21       1.0  0.31287  0.18063  0.19021  1.0000
  H   H20       1.0  0.39277  0.12667  0.17391  1.0000
  H   H21       1.0  0.31246  0.16733  0.21369  1.0000
  H   H22       1.0  0.31173  0.17113  0.18602  1.0000
  C   C22       1.0  0.31883  0.12748  0.10078  1.0000
  C   C23       1.0  0.30262  0.12892  0.10393  1.0000
  C   C24       1.0  0.29583  0.11670  0.11377  1.0000
  C   C25       1.0  0.30513  0.10324  0.12106  1.0000
  C   C26       1.0  0.32121  0.10222  0.11887  1.0000
  C   C27       1.0  0.32808  0.11433  0.10865  1.0000
  H   H23       1.0  0.29529  0.13936  0.09863  1.0000
  H   H24       1.0  0.28334  0.11763  0.11563  1.0000
  H   H25       1.0  0.32846  0.09183  0.12451  1.0000
  H   H26       1.0  0.34064  0.11322  0.10639  1.0000
  C   C28       1.0  0.26822  0.20321  0.08740  1.0000
  C   C29       1.0  0.37416  0.14221  0.18679  1.0000
  H   H27       1.0  0.38756  0.11817  0.19407  1.0000
  H   H28       1.0  0.27978  0.21264  0.06417  1.0000
  H   H29       1.0  0.35407  0.13363  0.17214  1.0000
  C   C30       1.0  0.29099  0.14257  0.01308  1.0000
  H   H30       1.0  0.31861  0.21653  0.08684  1.0000
  N   N1        1.0  0.26155  0.21136  0.21388  1.0000
  C   C31       1.0  0.27651  0.21360  0.07622  1.0000
  C   C32       1.0  0.28036  0.15666  0.00941  1.0000
  N   N2        1.0  0.45104  0.20794  0.01823  1.0000
  H   H31       1.0  0.25530  0.23064  0.22573  1.0000
  H   H32       1.0  0.27521  0.16393  0.01786  1.0000
  C   C33       1.0  0.38484  0.21338  0.99619  1.0000
  H   H33       1.0  0.36040  0.11867  0.20757  1.0000
  C   C34       1.0  0.34538  0.21105  0.02928  1.0000
  C   C35       1.0  0.33035  0.20820  0.03244  1.0000
  C   C36       1.0  0.31859  0.21425  0.04409  1.0000
  H   H34       1.0  0.27155  0.11891  0.98027  1.0000
  H   H35       1.0  0.37870  0.99826  0.15214  1.0000
  H   H36       1.0  0.35445  0.20634  0.02028  1.0000
  H   H37       1.0  0.30684  0.21245  0.04628  1.0000
  H   H38       1.0  0.44129  0.19703  0.05010  1.0000
  H   H39       1.0  0.32772  0.19396  0.98855  1.0000
  H   H40       1.0  0.38282  0.14656  0.19009  1.0000
  H   H41       1.0  0.33386  0.14808  0.19979  1.0000
  C   C37       1.0  0.32194  0.22288  0.05275  1.0000
  H   H42       1.0  0.26695  0.21860  0.18865  1.0000
  H   H43       1.0  0.28954  0.08118  0.08830  1.0000
  H   H44       1.0  0.31131  0.10183  0.04924  1.0000
  C   C38       1.0  0.34875  0.21966  0.03799  1.0000
  H   H45       1.0  0.34657  0.13999  0.98270  1.0000
  H   H46       1.0  0.27745  0.15928  0.18103  1.0000
  Fe  Fe9       1.0  0.29803  0.22196  0.15219  1.0000
  C   C39       1.0  0.42333  0.21778  0.08428  1.0000
  H   H47       1.0  0.39067  0.21763  0.01563  1.0000
  H   H48       1.0  0.31948  0.10063  0.08785  1.0000
  C   C40       1.0  0.38266  0.12570  0.18399  1.0000
  H   H49       1.0  0.29431  0.11947  0.06341  1.0000
  H   H50       1.0  0.31684  0.21465  0.20537  1.0000
  H   H51       1.0  0.32055  0.22618  0.99409  1.0000
  C   C41       1.0  0.43653  0.19166  0.04354  1.0000
  H   H52       1.0  0.30814  0.16842  0.99163  1.0000
  H   H53       1.0  0.29210  0.15438  0.19216  1.0000
  H   H54       1.0  0.39958  0.21668  0.12216  1.0000
  C   C42       1.0  0.38532  0.21801  0.98022  1.0000
  H   H55       1.0  0.36356  0.02547  0.18044  1.0000
  N   N3        1.0  0.35876  0.14361  0.19861  1.0000
  C   C43       1.0  0.29338  0.13782  0.98752  1.0000
  H   H56       1.0  0.27425  0.18308  0.20279  1.0000
  C   C44       1.0  0.39142  0.22105  0.00325  1.0000
  H   H57       1.0  0.29843  0.13048  0.97920  1.0000
  C   C45       1.0  0.27076  0.19357  0.19387  1.0000
  H   H58       1.0  0.42132  0.01986  0.21370  1.0000
  H   H59       1.0  0.48021  0.18452  0.00866  1.0000
  C   C46       1.0  0.42801  0.20798  0.09764  1.0000
  N   N4        1.0  0.32379  0.18639  0.10364  1.0000
  C   C47       1.0  0.33243  0.17151  0.11247  1.0000
  C   C48       1.0  0.32898  0.18624  0.08652  1.0000
  C   C49       1.0  0.30627  0.18773  0.10845  1.0000
  C   C50       1.0  0.32748  0.20001  0.10705  1.0000
  C   C51       1.0  0.32794  0.16903  0.13039  1.0000
  C   C52       1.0  0.44176  0.21706  0.99213  1.0000
  C   C53       1.0  0.30051  0.17335  0.10850  1.0000
  C   C54       1.0  0.33364  0.98741  0.15584  1.0000
  H   H60       1.0  0.33098  0.16114  0.10931  1.0000
  H   H61       1.0  0.34529  0.17090  0.10909  1.0000
  H   H62       1.0  0.32072  0.19497  0.07975  1.0000
  H   H63       1.0  0.32878  0.17484  0.08453  1.0000
  H   H64       1.0  0.30150  0.19048  0.12020  1.0000
  H   H65       1.0  0.30022  0.19778  0.10056  1.0000
  H   H66       1.0  0.32325  0.20016  0.11964  1.0000
  H   H67       1.0  0.34034  0.19904  0.10498  1.0000
  H   H68       1.0  0.35147  0.23291  0.00078  1.0000
  H   H69       1.0  0.33172  0.17742  0.13453  1.0000
  H   H70       1.0  0.31522  0.16968  0.13514  1.0000
  H   H71       1.0  0.39771  0.01937  0.18307  1.0000
  C   C55       1.0  0.35832  0.12945  0.21181  1.0000
  C   C56       1.0  0.29511  0.08723  0.05538  1.0000
  H   H72       1.0  0.30487  0.16981  0.09720  1.0000
  H   H73       1.0  0.28749  0.17625  0.11066  1.0000
  H   H74       1.0  0.30390  0.16325  0.11781  1.0000
  C   C57       1.0  0.32451  0.98471  0.13436  1.0000
  H   H75       1.0  0.34891  0.00088  0.18917  1.0000
  H   H76       1.0  0.38145  0.12950  0.21556  1.0000
  N   N5        1.0  0.29026  0.13110  0.16812  1.0000
  C   C58       1.0  0.29719  0.13959  0.17566  1.0000
  C   C59       1.0  0.30370  0.12049  0.15957  1.0000
  C   C60       1.0  0.27986  0.12158  0.18086  1.0000
  C   C61       1.0  0.28090  0.14320  0.15724  1.0000
  C   C62       1.0  0.47409  0.18404  0.02103  1.0000
  C   C63       1.0  0.31560  0.12844  0.14643  1.0000
  C   C64       1.0  0.27802  0.10642  0.17787  1.0000
  C   C65       1.0  0.27390  0.13705  0.14726  1.0000
  H   H77       1.0  0.30579  0.13121  0.18227  1.0000
  H   H78       1.0  0.30387  0.14781  0.16677  1.0000
  H   H79       1.0  0.29952  0.11340  0.15413  1.0000
  H   H80       1.0  0.31043  0.11190  0.16798  1.0000
  H   H81       1.0  0.28443  0.11763  0.19175  1.0000
  H   H82       1.0  0.27943  0.19237  0.18278  1.0000
  H   H83       1.0  0.27083  0.15061  0.16382  1.0000
  H   H84       1.0  0.28821  0.15130  0.14913  1.0000
  C   C66       1.0  0.46603  0.20051  0.02398  1.0000
  H   H85       1.0  0.30118  0.19552  0.99518  1.0000
  H   H86       1.0  0.26786  0.12880  0.18405  1.0000
  H   H87       1.0  0.31004  0.13655  0.13701  1.0000
  H   H88       1.0  0.32201  0.13438  0.15084  1.0000
  H   H89       1.0  0.32459  0.11929  0.14105  1.0000
  H   H90       1.0  0.27481  0.10790  0.16668  1.0000
  H   H91       1.0  0.26873  0.10175  0.18732  1.0000
  H   H92       1.0  0.28895  0.09729  0.17834  1.0000
  H   H93       1.0  0.28294  0.12951  0.14005  1.0000
  H   H94       1.0  0.26827  0.14708  0.13908  1.0000
  H   H95       1.0  0.26461  0.13082  0.15449  1.0000
  H   H96       1.0  0.26428  0.21758  0.11931  1.0000
  H   H97       1.0  0.40865  0.98396  0.16363  1.0000
  H   H98       1.0  0.26736  0.17179  0.99237  1.0000
  S   S18       1.0  0.37503  0.08594  0.20996  1.0000
  H   H99       1.0  0.31601  0.21849  0.17768  1.0000
  H   H100      1.0  0.28346  0.20850  0.19681  1.0000
  H   H101      1.0  0.30557  0.12218  0.00493  1.0000
  H   H102      1.0  0.26820  0.12188  0.07864  1.0000
  H   H103      1.0  0.29469  0.11744  0.08311  1.0000
  H   H104      1.0  0.42947  0.00480  0.19285  1.0000
  C   C67       1.0  0.28542  0.14936  0.18702  1.0000
  H   H105      1.0  0.47371  0.01670  0.21872  1.0000
  C   C68       1.0  0.43669  0.21266  0.10526  1.0000
  H   H106      1.0  0.33047  0.08906  0.07413  1.0000
  H   H107      1.0  0.28832  0.08037  0.06556  1.0000
  C   C69       1.0  0.29310  0.11127  0.07497  1.0000
  H   H108      1.0  0.47476  0.20802  0.01848  1.0000
  C   C70       1.0  0.35446  0.00553  0.19572  1.0000
  H   H109      1.0  0.42384  0.19274  0.04909  1.0000
  H   H110      1.0  0.32579  0.14272  0.98437  1.0000
  H   H111      1.0  0.44012  0.18909  0.02018  1.0000
  S   S19       1.0  0.31352  0.12714  0.21825  1.0000
  C   C71       1.0  0.33511  0.14844  0.98430  1.0000
  H   H112      1.0  0.38538  0.02622  0.15949  1.0000
  H   H113      1.0  0.27252  0.10338  0.07376  1.0000
  C   C72       1.0  0.30087  0.08364  0.08809  1.0000
  C   C73       1.0  0.24475  0.21126  0.21475  1.0000
  H   H114      1.0  0.32367  0.06852  0.09204  1.0000
  C   C74       1.0  0.32056  0.09921  0.07588  1.0000
  C   C75       1.0  0.43824  0.19894  0.02590  1.0000
  H   H115      1.0  0.37478  0.01372  0.19372  1.0000
  C   C76       1.0  0.39118  0.01394  0.16382  1.0000
  H   H116      1.0  0.32737  0.22461  0.09676  1.0000
  C   C77       1.0  0.27577  0.10995  0.08038  1.0000
  H   H117      1.0  0.46517  0.21432  0.99501  1.0000
  C   C78       1.0  0.37252  0.07772  0.19587  1.0000
  C   C79       1.0  0.31273  0.06783  0.08936  1.0000
  H   H118      1.0  0.39022  0.23027  0.10757  1.0000
  H   H119      1.0  0.30751  0.05927  0.09927  1.0000
  H   H120      1.0  0.29881  0.08748  0.09916  1.0000
  C   C80       1.0  0.34505  0.13360  0.18314  1.0000
  N   N6        1.0  0.30548  0.09636  0.07439  1.0000
  H   H121      1.0  0.34639  0.20110  0.07805  1.0000
  C   C81       1.0  0.42291  0.00018  0.20421  1.0000
  H   H122      1.0  0.32876  0.11275  0.05217  1.0000
  H   H123      1.0  0.38113  0.22953  0.12794  1.0000
  H   H124      1.0  0.42454  0.19691  0.10235  1.0000
  H   H125      1.0  0.45261  0.22158  0.04270  1.0000
  C   C82       1.0  0.32616  0.11355  0.06451  1.0000
  H   H126      1.0  0.46316  0.03457  0.22323  1.0000
  H   H127      1.0  0.35475  0.18049  0.08407  1.0000
  H   H128      1.0  0.35634  0.16656  0.98586  1.0000
  H   H129      1.0  0.31546  0.06309  0.07878  1.0000
  H   H130      1.0  0.33722  0.11435  0.06692  1.0000
  H   H131      1.0  0.39790  0.00955  0.15316  1.0000
  C   C83       1.0  0.34514  0.14634  0.19107  1.0000
  H   H132      1.0  0.31767  0.12459  0.06617  1.0000
  H   H133      1.0  0.36040  0.22170  0.03557  1.0000
  H   H134      1.0  0.43085  0.21270  0.99760  1.0000
  C   C84       1.0  0.30968  0.17775  0.98091  1.0000
  H   H135      1.0  0.46431  0.19950  0.03662  1.0000
  C   C85       1.0  0.32322  0.00189  0.15614  1.0000
  S   S20       1.0  0.27505  0.22289  0.14699  1.0000
  H   H136      1.0  0.35054  0.09365  0.19359  1.0000
  H   H137      1.0  0.42660  0.20644  0.02416  1.0000
  C   C86       1.0  0.41934  0.98552  0.20730  1.0000
  H   H138      1.0  0.48084  0.04450  0.22674  1.0000
  H   H139      1.0  0.30808  0.22044  0.10544  1.0000
  C   C87       1.0  0.34556  0.18911  0.07850  1.0000
  H   H140      1.0  0.25922  0.19390  0.19175  1.0000
  H   H141      1.0  0.41121  0.00327  0.17525  1.0000
  H   H142      1.0  0.30018  0.07945  0.04699  1.0000
  S   S21       1.0  0.41377  0.05257  0.21843  1.0000
  C   C88       1.0  0.45505  0.20860  0.00092  1.0000
  C   C89       1.0  0.29739  0.13312  0.00214  1.0000
  Fe  Fe10      1.0  0.39134  0.06977  0.22487  1.0000
  H   H143      1.0  0.34816  0.18795  0.06622  1.0000
  C   C90       1.0  0.31988  0.21625  0.09855  1.0000
  C   C91       1.0  0.37036  0.00273  0.16219  1.0000
  H   H144      1.0  0.29568  0.98793  0.20136  1.0000
  H   H145      1.0  0.44908  0.01641  0.21641  1.0000
  H   H146      1.0  0.27850  0.14224  0.19694  1.0000
  H   H147      1.0  0.43988  0.20524  0.11587  1.0000
  H   H148      1.0  0.35404  0.01500  0.14709  1.0000
  S   S22       1.0  0.41164  0.21182  0.07576  1.0000
  H   H149      1.0  0.31932  0.08256  0.05725  1.0000
  H   H150      1.0  0.32829  0.17472  0.99911  1.0000
  H   H151      1.0  0.33351  0.13617  0.17995  1.0000
  H   H152      1.0  0.34640  0.12187  0.19086  1.0000
  H   H153      1.0  0.37254  0.14984  0.17528  1.0000
  H   H154      1.0  0.25724  0.19676  0.11162  1.0000
  C   C92       1.0  0.40326  0.01474  0.17239  1.0000
  Fe  Fe11      1.0  0.39740  0.23094  0.06093  1.0000
  H   H155      1.0  0.35826  0.99612  0.20543  1.0000
  H   H156      1.0  0.27289  0.10472  0.09303  1.0000
  C   C93       1.0  0.35623  0.15752  0.20559  1.0000
  H   H157      1.0  0.34549  0.17761  0.18900  1.0000
  H   H158      1.0  0.24381  0.19979  0.21360  1.0000
  H   H159      1.0  0.41073  0.02280  0.16459  1.0000
  C   C94       1.0  0.35607  0.17345  0.19403  1.0000
  H   H160      1.0  0.32560  0.10939  0.19512  1.0000
  C   C95       1.0  0.27995  0.22568  0.08047  1.0000
  C   C96       1.0  0.27591  0.16108  0.99499  1.0000
  H   H161      1.0  0.45883  0.19668  0.99854  1.0000
  C   C97       1.0  0.30854  0.09190  0.05899  1.0000
  H   H162      1.0  0.28710  0.09771  0.05005  1.0000
  H   H163      1.0  0.33420  0.15723  0.13546  1.0000
  H   H164      1.0  0.28127  0.19515  0.22236  1.0000
  C   C98       1.0  0.35054  0.17908  0.98477  1.0000
  C   C99       1.0  0.28249  0.15174  0.98396  1.0000
  N   N7        1.0  0.37909  0.00454  0.17317  1.0000
  H   H165      1.0  0.37905  0.20409  0.00317  1.0000
  C   C100      1.0  0.26245  0.22731  0.21477  1.0000
  C   C101      1.0  0.29862  0.19285  0.98515  1.0000
  H   H166      1.0  0.43422  0.23008  0.01663  1.0000
  C   C102      1.0  0.26776  0.21647  0.10732  1.0000
  H   H167      1.0  0.43192  0.22272  0.04456  1.0000
  H   H168      1.0  0.34637  0.13027  0.21950  1.0000
  C   C103      1.0  0.44546  0.22448  0.02045  1.0000
  C   C104      1.0  0.29454  0.10598  0.22567  1.0000
  H   H169      1.0  0.28513  0.09153  0.98224  1.0000
  C   C105      1.0  0.26827  0.19839  0.22614  1.0000
  H   H170      1.0  0.34499  0.15867  0.21451  1.0000
  C   C106      1.0  0.29021  0.09353  0.22286  1.0000
  C   C107      1.0  0.27572  0.22708  0.09601  1.0000
  C   C108      1.0  0.27091  0.20876  0.19802  1.0000
  H   H171      1.0  0.34097  0.07437  0.22069  1.0000
  H   H172      1.0  0.36561  0.15608  0.21183  1.0000
  H   H173      1.0  0.36619  0.02686  0.14822  1.0000
  C   C109      1.0  0.33702  0.22548  0.04982  1.0000
  H   H174      1.0  0.24037  0.22004  0.20486  1.0000
  H   H175      1.0  0.34496  0.01461  0.20065  1.0000
  C   C110      1.0  0.36824  0.01300  0.18542  1.0000
  H   H176      1.0  0.28636  0.19119  0.98875  1.0000
  H   H177      1.0  0.36317  0.99380  0.16782  1.0000
  H   H178      1.0  0.35000  0.02241  0.16414  1.0000
  C   C111      1.0  0.39244  0.22868  0.11931  1.0000
  C   C112      1.0  0.35963  0.01772  0.15510  1.0000
  S   S23       1.0  0.38740  0.22283  0.04564  1.0000
  S   S24       1.0  0.45086  0.23298  0.10977  1.0000
  C   C113      1.0  0.37013  0.12645  0.22222  1.0000
  H   H179      1.0  0.35328  0.18314  0.99390  1.0000
  C   C114      1.0  0.44122  0.22691  0.09923  1.0000
  H   H180      1.0  0.25266  0.10338  0.98799  1.0000
  H   H181      1.0  0.33302  0.15092  0.99594  1.0000
  C   C115      1.0  0.41832  0.00869  0.21600  1.0000
  H   H182      1.0  0.25821  0.07732  0.98903  1.0000
  C   C116      1.0  0.27909  0.22954  0.21320  1.0000
  H   H183      1.0  0.31280  0.22763  0.06165  1.0000
  H   H184      1.0  0.28583  0.22001  0.22083  1.0000
  H   H185      1.0  0.44556  0.21508  0.98008  1.0000
  H   H186      1.0  0.23701  0.12852  0.98468  1.0000
  C   C117      1.0  0.33089  0.22869  0.98477  1.0000
  H   H187      1.0  0.28582  0.23065  0.20098  1.0000
  C   C118      1.0  0.42785  0.23209  0.07815  1.0000
  S   S25       1.0  0.44679  0.06775  0.22540  1.0000
  H   H188      1.0  0.38605  0.23262  0.15043  1.0000
  H   H189      1.0  0.33484  0.09264  0.22630  1.0000
  Fe  Fe12      1.0  0.28705  0.12576  0.44418  1.0000
  S   S26       1.0  0.30068  0.11808  0.42201  1.0000
  Fe  Fe13      1.0  0.25919  0.14430  0.42980  1.0000
  S   S27       1.0  0.27045  0.13852  0.40648  1.0000
  S   S28       1.0  0.23492  0.15886  0.43609  1.0000
  Fe  Fe14      1.0  0.27804  0.11445  0.42015  1.0000
  C   C119      1.0  0.20469  0.00974  0.39896  1.0000
  Fe  Fe15      1.0  0.29213  0.14279  0.41017  1.0000
  S   S29       1.0  0.30713  0.15479  0.38879  1.0000
  S   S30       1.0  0.26499  0.11974  0.44332  1.0000
  S   S31       1.0  0.28025  0.15095  0.43244  1.0000
  Fe  Fe16      1.0  0.38816  0.13106  0.32572  1.0000
  S   S32       1.0  0.38126  0.10969  0.34217  1.0000
  S   S33       1.0  0.37336  0.14717  0.30899  1.0000
  Fe  Fe17      1.0  0.41884  0.12515  0.33692  1.0000
  S   S34       1.0  0.41422  0.10325  0.35394  1.0000
  S   S35       1.0  0.44070  0.13419  0.33347  1.0000
  Fe  Fe18      1.0  0.40655  0.09830  0.33488  1.0000
  S   S36       1.0  0.41546  0.07528  0.32783  1.0000
  Fe  Fe19      1.0  0.38950  0.11694  0.35940  1.0000
  S   S37       1.0  0.37634  0.11546  0.38415  1.0000
  S   S38       1.0  0.41306  0.11919  0.31724  1.0000
  S   S39       1.0  0.39449  0.13938  0.34364  1.0000
  C   C120      1.0  0.22453  0.09887  0.45204  1.0000
  H   H190      1.0  0.23613  0.16323  0.34669  1.0000
  S   S40       1.0  0.48311  0.11097  0.38360  1.0000
  C   C121      1.0  0.47294  0.13336  0.29460  1.0000
  C   C122      1.0  0.47007  0.99995  0.25022  1.0000
  Fe  Fe20      1.0  0.31275  0.13655  0.27036  1.0000
  S   S41       1.0  0.29733  0.16026  0.27178  1.0000
  S   S42       1.0  0.32655  0.12089  0.28804  1.0000
  Fe  Fe21      1.0  0.28001  0.15102  0.26548  1.0000
  S   S43       1.0  0.25423  0.15808  0.27580  1.0000
  Fe  Fe22      1.0  0.30667  0.16653  0.24591  1.0000
  S   S44       1.0  0.29483  0.12682  0.26544  1.0000
  S   S45       1.0  0.32385  0.14382  0.24521  1.0000
  Fe  Fe23      1.0  0.39332  0.06350  0.25858  1.0000
  H   H191      1.0  0.05575  0.20282  0.43701  1.0000
  S   S46       1.0  0.37875  0.07181  0.28007  1.0000
  Fe  Fe24      1.0  0.40507  0.03711  0.24118  1.0000
  C   C123      1.0  0.34787  0.10032  0.24935  1.0000
  S   S47       1.0  0.40630  0.01139  0.24659  1.0000
  S   S48       1.0  0.40128  0.08111  0.23752  1.0000
  H   H192      1.0  0.16946  0.11160  0.43137  1.0000
  C   C124      1.0  0.16500  0.22077  0.37134  1.0000
  S   S49       1.0  0.41583  0.04568  0.25556  1.0000
  S   S50       1.0  0.38177  0.05339  0.24631  1.0000
  Fe  Fe25      1.0  0.17320  0.05831  0.43776  1.0000
  S   S51       1.0  0.18385  0.06513  0.41249  1.0000
  S   S52       1.0  0.14760  0.06464  0.44824  1.0000
  Fe  Fe26      1.0  0.19883  0.04098  0.41582  1.0000
  S   S53       1.0  0.20548  0.02940  0.39560  1.0000
  Fe  Fe27      1.0  0.20196  0.07141  0.42053  1.0000
  S   S54       1.0  0.20941  0.09411  0.40892  1.0000
  S   S55       1.0  0.18989  0.06683  0.44570  1.0000
  Fe  Fe28      1.0  0.10866  0.05428  0.38859  1.0000
  S   S56       1.0  0.13302  0.04370  0.37700  1.0000
  S   S57       1.0  0.10039  0.05663  0.41341  1.0000
  Fe  Fe29      1.0  0.09565  0.06151  0.35981  1.0000
  S   S58       1.0  0.11893  0.05207  0.34552  1.0000
  S   S59       1.0  0.07437  0.07105  0.34930  1.0000
  Fe  Fe30      1.0  0.12083  0.03228  0.36633  1.0000
  S   S60       1.0  0.13001  0.00808  0.36131  1.0000
  Fe  Fe31      1.0  0.12889  0.06435  0.35733  1.0000
  S   S61       1.0  0.14727  0.07828  0.34403  1.0000
  S   S62       1.0  0.09680  0.04095  0.37987  1.0000
  S   S63       1.0  0.10529  0.07571  0.36970  1.0000
  Fe  Fe32      1.0  0.16917  0.14156  0.36836  1.0000
  S   S64       1.0  0.18354  0.14606  0.34400  1.0000
  S   S65       1.0  0.14905  0.12937  0.37746  1.0000
  Fe  Fe33      1.0  0.18431  0.16070  0.37970  1.0000
  S   S66       1.0  0.20002  0.16704  0.35644  1.0000
  S   S67       1.0  0.18088  0.17118  0.40013  1.0000
  Fe  Fe34      1.0  0.17881  0.17063  0.34688  1.0000
  S   S68       1.0  0.17429  0.19115  0.32738  1.0000
  Fe  Fe35      1.0  0.20358  0.14204  0.35549  1.0000
  S   S69       1.0  0.22758  0.12836  0.34627  1.0000
  S   S70       1.0  0.16271  0.16653  0.37014  1.0000
  S   S71       1.0  0.18962  0.13527  0.37986  1.0000
  N   N8        1.0  0.40724  0.14903  0.38248  1.0000
  H   H193      1.0  0.02668  0.21187  0.42317  1.0000
  H   H194      1.0  0.47250  0.99010  0.23001  1.0000
  S   S72       1.0  0.01919  0.10812  0.39337  1.0000
  H   H195      1.0  0.27003  0.17826  0.34231  1.0000
  S   S73       1.0  0.01744  0.17261  0.33980  1.0000
  C   C125      1.0  0.09965  0.02196  0.33659  1.0000
  C   C126      1.0  0.19921  0.98542  0.41605  1.0000
  C   C127      1.0  0.03377  0.20700  0.35676  1.0000
  C   C128      1.0  0.03244  0.19633  0.33571  1.0000
  C   C129      1.0  0.02454  0.18524  0.34644  1.0000
  C   C130      1.0  0.02217  0.18458  0.36231  1.0000
  C   C131      1.0  0.02677  0.19536  0.36745  1.0000
  H   H196      1.0  0.46085  0.02824  0.31108  1.0000
  N   N9        1.0  0.46915  0.01707  0.24331  1.0000
  H   H197      1.0  0.02426  0.19505  0.37977  1.0000
  C   C132      1.0  0.15506  0.19877  0.32461  1.0000
  C   C133      1.0  0.15288  0.20552  0.30948  1.0000
  H   H198      1.0  0.04240  0.21625  0.33249  1.0000
  Fe  Fe36      1.0  0.00104  0.15798  0.35728  1.0000
  C   C134      1.0  0.12683  0.20536  0.33440  1.0000
  C   C135      1.0  0.14202  0.19854  0.33710  1.0000
  H   H199      1.0  0.45131  0.03188  0.27700  1.0000
  H   H200      1.0  0.39850  0.15323  0.25486  1.0000
  Fe  Fe37      1.0  0.42285  0.06244  0.23321  1.0000
  H   H201      1.0  0.14365  0.19327  0.34880  1.0000
  C   C136      1.0  0.05853  0.08033  0.36194  1.0000
  C   C137      1.0  0.04490  0.08891  0.35670  1.0000
  C   C138      1.0  0.03260  0.09727  0.36639  1.0000
  C   C139      1.0  0.03384  0.09691  0.38138  1.0000
  C   C140      1.0  0.04723  0.08782  0.38679  1.0000
  C   C141      1.0  0.05960  0.07960  0.37707  1.0000
  H   H202      1.0  0.04397  0.08937  0.34505  1.0000
  H   H203      1.0  0.02215  0.10389  0.36228  1.0000
  H   H204      1.0  0.04819  0.08738  0.39843  1.0000
  H   H205      1.0  0.07001  0.07286  0.38126  1.0000
  C   C142      1.0  0.14814  0.09216  0.35351  1.0000
  C   C143      1.0  0.13841  0.09348  0.36807  1.0000
  C   C144      1.0  0.13879  0.10498  0.37528  1.0000
  C   C145      1.0  0.14920  0.11491  0.36819  1.0000
  C   C146      1.0  0.15925  0.11338  0.35379  1.0000
  C   C147      1.0  0.15855  0.10215  0.34636  1.0000
  H   H206      1.0  0.13063  0.08560  0.37384  1.0000
  H   H207      1.0  0.13105  0.10606  0.38643  1.0000
  H   H208      1.0  0.16741  0.12091  0.34831  1.0000
  H   H209      1.0  0.16612  0.10110  0.33510  1.0000
  S   S74       1.0  0.18652  0.03348  0.44061  1.0000
  H   H210      1.0  0.14971  0.11324  0.45641  1.0000
  C   C148      1.0  0.11795  0.99440  0.36775  1.0000
  C   C149      1.0  0.10661  0.99409  0.38166  1.0000
  C   C150      1.0  0.15501  0.00463  0.42781  1.0000
  H   H211      1.0  0.26351  0.06861  0.41368  1.0000
  H   H212      1.0  0.10486  0.00261  0.38850  1.0000
  C   C151      1.0  0.13483  0.06310  0.43774  1.0000
  C   C152      1.0  0.14002  0.06127  0.42232  1.0000
  C   C153      1.0  0.12935  0.06005  0.41434  1.0000
  C   C154      1.0  0.11365  0.06027  0.42197  1.0000
  C   C155      1.0  0.10854  0.06229  0.43730  1.0000
  C   C156      1.0  0.11907  0.06380  0.44511  1.0000
  H   H213      1.0  0.15218  0.06076  0.41652  1.0000
  H   H214      1.0  0.13336  0.05853  0.40248  1.0000
  H   H215      1.0  0.09643  0.06240  0.44323  1.0000
  H   H216      1.0  0.11501  0.06522  0.45702  1.0000
  N   N10       1.0  0.21118  0.11274  0.45437  1.0000
  C   C157      1.0  0.44241  0.07052  0.25537  1.0000
  C   C158      1.0  0.44721  0.07273  0.26771  1.0000
  C   C159      1.0  0.46204  0.07573  0.26538  1.0000
  H   H217      1.0  0.08514  0.12832  0.35242  1.0000
  H   H218      1.0  0.22233  0.18715  0.35690  1.0000
  H   H219      1.0  0.43094  0.06821  0.25729  1.0000
  H   H220      1.0  0.43955  0.07189  0.27911  1.0000
  C   C160      1.0  0.24730  0.14978  0.29550  1.0000
  C   C161      1.0  0.25645  0.13683  0.30366  1.0000
  C   C162      1.0  0.25033  0.13020  0.31924  1.0000
  C   C163      1.0  0.23516  0.13665  0.32675  1.0000
  C   C164      1.0  0.22617  0.14975  0.31867  1.0000
  C   C165      1.0  0.23217  0.15621  0.30306  1.0000
  H   H221      1.0  0.26813  0.13180  0.29789  1.0000
  H   H222      1.0  0.25736  0.12007  0.32545  1.0000
  H   H223      1.0  0.21450  0.15488  0.32434  1.0000
  H   H224      1.0  0.22506  0.16624  0.29682  1.0000
  H   H225      1.0  0.12023  0.15365  0.35983  1.0000
  C   C166      1.0  0.40507  0.07349  0.31511  1.0000
  C   C167      1.0  0.41278  0.06504  0.30349  1.0000
  C   C168      1.0  0.40481  0.06438  0.29265  1.0000
  C   C169      1.0  0.38896  0.07172  0.29378  1.0000
  C   C170      1.0  0.38110  0.07954  0.30584  1.0000
  C   C171      1.0  0.38919  0.08067  0.31631  1.0000
  H   H226      1.0  0.42501  0.05932  0.30263  1.0000
  H   H227      1.0  0.41092  0.05819  0.28347  1.0000
  H   H228      1.0  0.36878  0.08502  0.30686  1.0000
  H   H229      1.0  0.38306  0.08691  0.32543  1.0000
  C   C172      1.0  0.35974  0.13997  0.30392  1.0000
  C   C173      1.0  0.35046  0.14986  0.29357  1.0000
  C   C174      1.0  0.34005  0.14423  0.28876  1.0000
  C   C175      1.0  0.33883  0.12866  0.29433  1.0000
  C   C176      1.0  0.34796  0.11883  0.30481  1.0000
  C   C177      1.0  0.35845  0.12442  0.30950  1.0000
  H   H230      1.0  0.35142  0.16189  0.28915  1.0000
  H   H231      1.0  0.33307  0.15190  0.28066  1.0000
  H   H232      1.0  0.34708  0.10678  0.30909  1.0000
  H   H233      1.0  0.36571  0.11659  0.31721  1.0000
  C   C178      1.0  0.45327  0.12658  0.34676  1.0000
  C   C179      1.0  0.45085  0.11400  0.35925  1.0000
  C   C180      1.0  0.46027  0.10909  0.37033  1.0000
  C   C181      1.0  0.47258  0.11629  0.36868  1.0000
  C   C182      1.0  0.47551  0.12836  0.35577  1.0000
  C   C183      1.0  0.46575  0.13362  0.34498  1.0000
  H   H234      1.0  0.44146  0.10833  0.36066  1.0000
  H   H235      1.0  0.45797  0.09973  0.38029  1.0000
  H   H236      1.0  0.99963  0.22755  0.36228  1.0000
  H   H237      1.0  0.46773  0.14337  0.33535  1.0000
  C   C184      1.0  0.25912  0.09349  0.41081  1.0000
  C   C185      1.0  0.24815  0.10759  0.40841  1.0000
  C   C186      1.0  0.23314  0.10770  0.40703  1.0000
  C   C187      1.0  0.22886  0.09371  0.40867  1.0000
  C   C188      1.0  0.23987  0.07964  0.41094  1.0000
  C   C189      1.0  0.25505  0.07954  0.41181  1.0000
  H   H238      1.0  0.25120  0.11838  0.40763  1.0000
  H   H239      1.0  0.22465  0.11858  0.40513  1.0000
  S   S75       1.0  0.46823  0.07775  0.28102  1.0000
  H   H240      1.0  0.04596  0.13402  0.39255  1.0000
  C   C190      1.0  0.19658  0.16746  0.40931  1.0000
  C   C191      1.0  0.21078  0.15694  0.40533  1.0000
  C   C192      1.0  0.22289  0.15421  0.41329  1.0000
  C   C193      1.0  0.22068  0.16199  0.42522  1.0000
  C   C194      1.0  0.20644  0.17238  0.42913  1.0000
  C   C195      1.0  0.19449  0.17513  0.42121  1.0000
  H   H241      1.0  0.21226  0.15082  0.39630  1.0000
  H   H242      1.0  0.23380  0.14600  0.41039  1.0000
  H   H243      1.0  0.20465  0.17838  0.43836  1.0000
  H   H244      1.0  0.18354  0.18321  0.42438  1.0000
  C   C196      1.0  0.32704  0.14599  0.38788  1.0000
  C   C197      1.0  0.33762  0.14692  0.37344  1.0000
  C   C198      1.0  0.35298  0.13785  0.37226  1.0000
  C   C199      1.0  0.35782  0.12810  0.38559  1.0000
  C   C200      1.0  0.34756  0.12794  0.40015  1.0000
  C   C201      1.0  0.33217  0.13687  0.40129  1.0000
  H   H245      1.0  0.33373  0.15409  0.36306  1.0000
  H   H246      1.0  0.36088  0.13811  0.36098  1.0000
  H   H247      1.0  0.35131  0.12052  0.41050  1.0000
  H   H248      1.0  0.32419  0.13648  0.41254  1.0000
  H   H249      1.0  0.14993  0.98612  0.45645  1.0000
  C   C202      1.0  0.46715  0.07467  0.23822  1.0000
  H   H250      1.0  0.25680  0.14165  0.34319  1.0000
  H   H251      1.0  0.12711  0.13693  0.31213  1.0000
  C   C203      1.0  0.14617  0.10303  0.45531  1.0000
  C   C204      1.0  0.24327  0.13884  0.37338  1.0000
  H   H252      1.0  0.42661  0.10941  0.38956  1.0000
  C   C205      1.0  0.23210  0.17890  0.36196  1.0000
  H   H253      1.0  0.32160  0.07936  0.23177  1.0000
  H   H254      1.0  0.26026  0.16402  0.32083  1.0000
  H   H255      1.0  0.03447  0.19689  0.32337  1.0000
  H   H256      1.0  0.42216  0.15584  0.39298  1.0000
  C   C206      1.0  0.24310  0.16983  0.34969  1.0000
  H   H257      1.0  0.15210  0.02771  0.44245  1.0000
  H   H258      1.0  0.32696  0.10032  0.26706  1.0000
  H   H259      1.0  0.27593  0.14745  0.31882  1.0000
  H   H260      1.0  0.37688  0.16990  0.37779  1.0000
  H   H261      1.0  0.40324  0.16760  0.39465  1.0000
  H   H262      1.0  0.27931  0.16341  0.32404  1.0000
  C   C207      1.0  0.41593  0.11881  0.39122  1.0000
  H   H263      1.0  0.45823  0.99734  0.25555  1.0000
  H   H264      1.0  0.14101  0.22896  0.40203  1.0000
  H   H265      1.0  0.45894  0.01160  0.27743  1.0000
  H   H266      1.0  0.23349  0.14411  0.36729  1.0000
  C   C208      1.0  0.16054  0.01866  0.41572  1.0000
  H   H267      1.0  0.47681  0.99285  0.33133  1.0000
  N   N11       1.0  0.13906  0.11572  0.42833  1.0000
  C   C209      1.0  0.12562  0.11852  0.42047  1.0000
  C   C210      1.0  0.14134  0.13153  0.42810  1.0000
  C   C211      1.0  0.15334  0.10588  0.41983  1.0000
  C   C212      1.0  0.12035  0.10390  0.42029  1.0000
  C   C213      1.0  0.14631  0.14170  0.41184  1.0000
  H   H268      1.0  0.11505  0.12643  0.42592  1.0000
  H   H269      1.0  0.12865  0.12451  0.40806  1.0000
  H   H270      1.0  0.15250  0.09342  0.42331  1.0000
  H   H271      1.0  0.15380  0.10923  0.40709  1.0000
  H   H272      1.0  0.11408  0.09860  0.43194  1.0000
  H   H273      1.0  0.11186  0.10734  0.41259  1.0000
  H   H274      1.0  0.13025  0.09503  0.41557  1.0000
  C   C214      1.0  0.18686  0.10002  0.46649  1.0000
  H   H275      1.0  0.15660  0.13542  0.40449  1.0000
  H   H276      1.0  0.13653  0.14626  0.40562  1.0000
  H   H277      1.0  0.19575  0.00663  0.42375  1.0000
  N   N12       1.0  0.21222  0.08165  0.36301  1.0000
  C   C215      1.0  0.22010  0.07720  0.37662  1.0000
  C   C216      1.0  0.20040  0.09678  0.36433  1.0000
  C   C217      1.0  0.22474  0.08398  0.34828  1.0000
  C   C218      1.0  0.20473  0.06853  0.36393  1.0000
  C   C219      1.0  0.23389  0.06281  0.37682  1.0000
  C   C220      1.0  0.18648  0.09596  0.37843  1.0000
  C   C221      1.0  0.21940  0.09417  0.33336  1.0000
  C   C222      1.0  0.19417  0.07128  0.35242  1.0000
  H   H278      1.0  0.22463  0.08711  0.37729  1.0000
  H   H279      1.0  0.21161  0.07454  0.38781  1.0000
  H   H280      1.0  0.19512  0.10184  0.35400  1.0000
  H   H281      1.0  0.20631  0.10580  0.36473  1.0000
  H   H282      1.0  0.23343  0.08965  0.34988  1.0000
  H   H283      1.0  0.23152  0.07254  0.34551  1.0000
  H   H284      1.0  0.21386  0.05786  0.36197  1.0000
  H   H285      1.0  0.19789  0.06469  0.37591  1.0000
  H   H286      1.0  0.23001  0.05197  0.37807  1.0000
  H   H287      1.0  0.24361  0.06431  0.36648  1.0000
  H   H288      1.0  0.23882  0.06114  0.38714  1.0000
  H   H289      1.0  0.19021  0.09308  0.38956  1.0000
  H   H290      1.0  0.17857  0.10763  0.37785  1.0000
  H   H291      1.0  0.17945  0.08778  0.37847  1.0000
  H   H292      1.0  0.22958  0.09342  0.32332  1.0000
  H   H293      1.0  0.21555  0.10666  0.33399  1.0000
  H   H294      1.0  0.21007  0.09041  0.33070  1.0000
  H   H295      1.0  0.20102  0.06722  0.34165  1.0000
  H   H296      1.0  0.18792  0.08349  0.34929  1.0000
  H   H297      1.0  0.18473  0.06467  0.35794  1.0000
  H   H298      1.0  0.44537  0.02343  0.25615  1.0000
  H   H299      1.0  0.48490  0.13407  0.35446  1.0000
  H   H300      1.0  0.20233  0.11098  0.43512  1.0000
  H   H301      1.0  0.05103  0.00572  0.34823  1.0000
  H   H302      1.0  0.25065  0.15675  0.37936  1.0000
  H   H303      1.0  0.20266  0.99244  0.45594  1.0000
  C   C223      1.0  0.20519  0.11969  0.43955  1.0000
  H   H304      1.0  0.24947  0.12750  0.37014  1.0000
  H   H305      1.0  0.16778  0.01476  0.40498  1.0000
  H   H306      1.0  0.44581  0.00784  0.23649  1.0000
  H   H307      1.0  0.23202  0.22569  0.23218  1.0000
  H   H308      1.0  0.12937  0.03163  0.43435  1.0000
  H   H309      1.0  0.45136  0.11582  0.30955  1.0000
  C   C224      1.0  0.04605  0.14413  0.38248  1.0000
  C   C225      1.0  0.20862  0.99906  0.46009  1.0000
  C   C226      1.0  0.40966  0.15525  0.39506  1.0000
  H   H310      1.0  0.04647  0.01032  0.36719  1.0000
  H   H311      1.0  0.42955  0.16954  0.36898  1.0000
  H   H312      1.0  0.11582  0.18154  0.30076  1.0000
  H   H313      1.0  0.11119  0.02435  0.33588  1.0000
  H   H314      1.0  0.32388  0.10297  0.24815  1.0000
  C   C227      1.0  0.21787  0.12500  0.45694  1.0000
  H   H315      1.0  0.17668  0.09453  0.42390  1.0000
  Fe  Fe38      1.0  0.08895  0.23226  0.33290  1.0000
  C   C228      1.0  0.22464  0.98985  0.46345  1.0000
  H   H316      1.0  0.05638  0.11522  0.35376  1.0000
  H   H317      1.0  0.41608  0.13714  0.41512  1.0000
  H   H318      1.0  0.48742  0.02749  0.34958  1.0000
  N   N13       1.0  0.32340  0.10752  0.36951  1.0000
  C   C229      1.0  0.30717  0.10753  0.37965  1.0000
  C   C230      1.0  0.32400  0.12335  0.35874  1.0000
  C   C231      1.0  0.33435  0.10503  0.38016  1.0000
  C   C232      1.0  0.32824  0.09456  0.36086  1.0000
  C   C233      1.0  0.29354  0.11263  0.37122  1.0000
  C   C234      1.0  0.32029  0.12606  0.34259  1.0000
  C   C235      1.0  0.33552  0.08975  0.39269  1.0000
  C   C236      1.0  0.34548  0.09176  0.35175  1.0000
  H   H319      1.0  0.30641  0.09569  0.38692  1.0000
  H   H320      1.0  0.30443  0.11529  0.38800  1.0000
  H   H321      1.0  0.33589  0.12588  0.35610  1.0000
  H   H322      1.0  0.31615  0.13280  0.36460  1.0000
  H   H323      1.0  0.34653  0.10562  0.37346  1.0000
  H   H324      1.0  0.33068  0.11467  0.38648  1.0000
  H   H325      1.0  0.32633  0.08335  0.36895  1.0000
  H   H326      1.0  0.32059  0.09624  0.35269  1.0000
  H   H327      1.0  0.29169  0.12522  0.36584  1.0000
  H   H328      1.0  0.29516  0.10563  0.36255  1.0000
  H   H329      1.0  0.28254  0.11088  0.37990  1.0000
  H   H330      1.0  0.32965  0.11904  0.33508  1.0000
  H   H331      1.0  0.30894  0.12358  0.34303  1.0000
  H   H332      1.0  0.31998  0.13845  0.33658  1.0000
  H   H333      1.0  0.33958  0.07927  0.38762  1.0000
  H   H334      1.0  0.32430  0.08925  0.40139  1.0000
  H   H335      1.0  0.34435  0.08933  0.39921  1.0000
  H   H336      1.0  0.35320  0.08289  0.35899  1.0000
  H   H337      1.0  0.35004  0.10257  0.34772  1.0000
  H   H338      1.0  0.34641  0.08778  0.34105  1.0000
  H   H339      1.0  0.47224  0.04312  0.30490  1.0000
  H   H340      1.0  0.22668  0.17103  0.37241  1.0000
  H   H341      1.0  0.10182  0.00933  0.33696  1.0000
  H   H342      1.0  0.15657  0.09419  0.45128  1.0000
  H   H343      1.0  0.41283  0.11925  0.40363  1.0000
  H   H344      1.0  0.21458  0.12410  0.43001  1.0000
  H   H345      1.0  0.22706  0.12856  0.44660  1.0000
  H   H346      1.0  0.14073  0.09740  0.46725  1.0000
  H   H347      1.0  0.46734  0.01840  0.33454  1.0000
  C   C237      1.0  0.47208  0.07660  0.25066  1.0000
  S   S76       1.0  0.28797  0.15944  0.23975  1.0000
  H   H348      1.0  0.11674  0.20532  0.34402  1.0000
  H   H349      1.0  0.18877  0.09780  0.45479  1.0000
  H   H350      1.0  0.23813  0.18590  0.36552  1.0000
  H   H351      1.0  0.21324  0.07887  0.46010  1.0000
  C   C238      1.0  0.45699  0.02623  0.25427  1.0000
  H   H352      1.0  0.01624  0.17621  0.37074  1.0000
  H   H353      1.0  0.06761  0.20383  0.41319  1.0000
  H   H354      1.0  0.99878  0.20663  0.39656  1.0000
  C   C239      1.0  0.04741  0.04194  0.34193  1.0000
  H   H355      1.0  0.12316  0.22648  0.35535  1.0000
  H   H356      1.0  0.27546  0.13972  0.34657  1.0000
  C   C240      1.0  0.13969  0.02032  0.46555  1.0000
  C   C241      1.0  0.28553  0.16087  0.35570  1.0000
  H   H357      1.0  0.06348  0.11259  0.38153  1.0000
  S   S77       1.0  0.00322  0.15168  0.38204  1.0000
  H   H358      1.0  0.24587  0.17869  0.33882  1.0000
  H   H359      1.0  0.13151  0.20754  0.40363  1.0000
  Fe  Fe39      1.0  0.30463  0.13628  0.24023  1.0000
  N   N14       1.0  0.40411  0.11890  0.26612  1.0000
  C   C242      1.0  0.39729  0.13247  0.27405  1.0000
  C   C243      1.0  0.41018  0.10488  0.27789  1.0000
  C   C244      1.0  0.39185  0.11524  0.26028  1.0000
  C   C245      1.0  0.41706  0.12302  0.25242  1.0000
  C   C246      1.0  0.38962  0.14784  0.26417  1.0000
  C   C247      1.0  0.42557  0.10491  0.28196  1.0000
  C   C248      1.0  0.37619  0.11406  0.27202  1.0000
  C   C249      1.0  0.42606  0.10992  0.24351  1.0000
  H   H360      1.0  0.38844  0.12939  0.28484  1.0000
  H   H361      1.0  0.40640  0.13531  0.27811  1.0000
  H   H362      1.0  0.41208  0.09382  0.27411  1.0000
  H   H363      1.0  0.40132  0.10363  0.28906  1.0000
  H   H364      1.0  0.38914  0.12398  0.24967  1.0000
  H   H365      1.0  0.39626  0.10393  0.25658  1.0000
  H   H366      1.0  0.41234  0.13312  0.24370  1.0000
  H   H367      1.0  0.42570  0.12714  0.25600  1.0000
  H   H368      1.0  0.47493  0.07535  0.22683  1.0000
  H   H369      1.0  0.38050  0.14645  0.25908  1.0000
  H   H370      1.0  0.38371  0.15627  0.27184  1.0000
  H   H371      1.0  0.43576  0.10319  0.27215  1.0000
  H   H372      1.0  0.42505  0.11572  0.28541  1.0000
  H   H373      1.0  0.42787  0.09505  0.29193  1.0000
  H   H374      1.0  0.36900  0.10909  0.26744  1.0000
  H   H375      1.0  0.36925  0.12567  0.27388  1.0000
  H   H376      1.0  0.37792  0.10637  0.28333  1.0000
  H   H377      1.0  0.16015  0.99742  0.39229  1.0000
  H   H378      1.0  0.42251  0.09869  0.24881  1.0000
  C   C250      1.0  0.49217  0.00043  0.30951  1.0000
  N   N15       1.0  0.13681  0.15513  0.32776  1.0000
  C   C251      1.0  0.14107  0.15832  0.34120  1.0000
  C   C252      1.0  0.15195  0.14991  0.31667  1.0000
  C   C253      1.0  0.12767  0.14230  0.33424  1.0000
  C   C254      1.0  0.12692  0.16999  0.32025  1.0000
  C   C255      1.0  0.12722  0.16273  0.35461  1.0000
  C   C256      1.0  0.16253  0.16183  0.30923  1.0000
  C   C257      1.0  0.12944  0.13097  0.32379  1.0000
  C   C258      1.0  0.12265  0.16977  0.30522  1.0000
  H   H379      1.0  0.14934  0.14800  0.34636  1.0000
  H   H380      1.0  0.14738  0.16796  0.33729  1.0000
  H   H381      1.0  0.14975  0.14667  0.30677  1.0000
  H   H382      1.0  0.15914  0.13912  0.32269  1.0000
  H   H383      1.0  0.13118  0.13451  0.34502  1.0000
  H   H384      1.0  0.11491  0.14726  0.33791  1.0000
  H   H385      1.0  0.13284  0.17984  0.31755  1.0000
  H   H386      1.0  0.13129  0.09619  0.44555  1.0000
  H   H387      1.0  0.13199  0.16392  0.36405  1.0000
  H   H388      1.0  0.17285  0.15677  0.30090  1.0000
  H   H389      1.0  0.15650  0.17282  0.30251  1.0000
  H   H390      1.0  0.16731  0.16446  0.31787  1.0000
  H   H391      1.0  0.12099  0.12325  0.32948  1.0000
  H   H392      1.0  0.14131  0.12318  0.32248  1.0000
  H   H393      1.0  0.13316  0.16730  0.29589  1.0000
  H   H394      1.0  0.11506  0.16148  0.30738  1.0000
  H   H395      1.0  0.13616  0.21684  0.29496  1.0000
  N   N16       1.0  0.45638  0.04191  0.33750  1.0000
  C   C259      1.0  0.45068  0.04842  0.32252  1.0000
  C   C260      1.0  0.44476  0.04968  0.34992  1.0000
  C   C261      1.0  0.45761  0.02458  0.34255  1.0000
  C   C262      1.0  0.47243  0.04498  0.33494  1.0000
  H   H396      1.0  0.46304  0.14108  0.30103  1.0000
  C   C263      1.0  0.44548  0.06656  0.34906  1.0000
  C   C264      1.0  0.44264  0.01903  0.34390  1.0000
  H   H397      1.0  0.20979  0.01020  0.45190  1.0000
  H   H398      1.0  0.45460  0.04643  0.29858  1.0000
  H   H399      1.0  0.45045  0.06111  0.31849  1.0000
  H   H400      1.0  0.44593  0.04286  0.36180  1.0000
  H   H401      1.0  0.43251  0.05005  0.34953  1.0000
  H   H402      1.0  0.37275  0.11389  0.22789  1.0000
  S   S78       1.0  0.03583  0.22223  0.36377  1.0000
  H   H403      1.0  0.48083  0.03882  0.32610  1.0000
  H   H404      1.0  0.47266  0.05747  0.32975  1.0000
  H   H405      1.0  0.28797  0.11114  0.23550  1.0000
  H   H406      1.0  0.46833  0.09748  0.32569  1.0000
  H   H407      1.0  0.15124  0.99815  0.42146  1.0000
  H   H408      1.0  0.45633  0.06708  0.35204  1.0000
  H   H409      1.0  0.44450  0.07419  0.33749  1.0000
  H   H410      1.0  0.43544  0.07145  0.35774  1.0000
  C   C265      1.0  0.41031  0.00244  0.23085  1.0000
  H   H411      1.0  0.35637  0.09428  0.25689  1.0000
  H   H412      1.0  0.43963  0.02126  0.33243  1.0000
  C   C266      1.0  0.22052  0.08463  0.44947  1.0000
  H   H413      1.0  0.15270  0.20284  0.39806  1.0000
  C   C267      1.0  0.48001  0.03946  0.34927  1.0000
  N   N17       1.0  0.33192  0.07880  0.25926  1.0000
  C   C268      1.0  0.34024  0.07219  0.24503  1.0000
  C   C269      1.0  0.34051  0.07025  0.27215  1.0000
  C   C270      1.0  0.33179  0.09590  0.25614  1.0000
  C   C271      1.0  0.31518  0.07692  0.26372  1.0000
  H   H414      1.0  0.49039  0.01467  0.25124  1.0000
  C   C272      1.0  0.34057  0.05271  0.27803  1.0000
  H   H415      1.0  0.03698  0.20617  0.44952  1.0000
  C   C273      1.0  0.30563  0.08063  0.27957  1.0000
  H   H416      1.0  0.35289  0.07237  0.24202  1.0000
  H   H417      1.0  0.33978  0.05974  0.24721  1.0000
  H   H418      1.0  0.33595  0.07590  0.28232  1.0000
  H   H419      1.0  0.35307  0.07084  0.26829  1.0000
  C   C274      1.0  0.29384  0.14311  0.47424  1.0000
  C   C275      1.0  0.04319  0.20378  0.43786  1.0000
  H   H420      1.0  0.30850  0.08471  0.25490  1.0000
  H   H421      1.0  0.31464  0.06490  0.26376  1.0000
  H   H422      1.0  0.47139  0.03948  0.36047  1.0000
  H   H423      1.0  0.46086  0.02003  0.35409  1.0000
  C   C276      1.0  0.12781  0.01946  0.43769  1.0000
  H   H424      1.0  0.32863  0.05035  0.28222  1.0000
  H   H425      1.0  0.34745  0.04599  0.26903  1.0000
  H   H426      1.0  0.34648  0.04811  0.28801  1.0000
  H   H427      1.0  0.18690  0.13666  0.42907  1.0000
  H   H428      1.0  0.45522  0.03893  0.24914  1.0000
  H   H429      1.0  0.16654  0.21879  0.38337  1.0000
  H   H430      1.0  0.31021  0.07228  0.28947  1.0000
  H   H431      1.0  0.29334  0.07969  0.28111  1.0000
  H   H432      1.0  0.30517  0.09263  0.28030  1.0000
  H   H433      1.0  0.05599  0.14942  0.38120  1.0000
  C   C277      1.0  0.40955  0.16106  0.36741  1.0000
  C   C278      1.0  0.39089  0.14637  0.38554  1.0000
  C   C279      1.0  0.41926  0.13421  0.38015  1.0000
  C   C280      1.0  0.42619  0.16439  0.36108  1.0000
  C   C281      1.0  0.37731  0.16047  0.38839  1.0000
  H   H434      1.0  0.40666  0.15755  0.35799  1.0000
  H   H435      1.0  0.40149  0.17250  0.36858  1.0000
  H   H436      1.0  0.38858  0.13671  0.39566  1.0000
  H   H437      1.0  0.38949  0.14253  0.37559  1.0000
  H   H438      1.0  0.42069  0.13242  0.36822  1.0000
  H   H439      1.0  0.43522  0.15389  0.35860  1.0000
  H   H440      1.0  0.42640  0.17302  0.34982  1.0000
  H   H441      1.0  0.37772  0.16504  0.39825  1.0000
  H   H442      1.0  0.36602  0.15665  0.39149  1.0000
  H   H443      1.0  0.40657  0.11519  0.38837  1.0000
  H   H444      1.0  0.25444  0.99476  0.43182  1.0000
  H   H445      1.0  0.39566  0.14041  0.41451  1.0000
  H   H446      1.0  0.44476  0.00621  0.34844  1.0000
  H   H447      1.0  0.07676  0.13657  0.36881  1.0000
  C   C282      1.0  0.16953  0.10655  0.42173  1.0000
  H   H448      1.0  0.16126  0.00913  0.45220  1.0000
  C   C283      1.0  0.23302  0.00486  0.42420  1.0000
  H   H449      1.0  0.12313  0.11445  0.45091  1.0000
  H   H450      1.0  0.40192  0.15422  0.41997  1.0000
  H   H451      1.0  0.17670  0.20806  0.35234  1.0000
  H   H452      1.0  0.17606  0.11278  0.41071  1.0000
  H   H453      1.0  0.23675  0.06881  0.41212  1.0000
  H   H454      1.0  0.06993  0.12334  0.33766  1.0000
  H   H455      1.0  0.04074  0.03263  0.34702  1.0000
  C   C284      1.0  0.19955  0.00116  0.41390  1.0000
  C   C285      1.0  0.06616  0.01968  0.38383  1.0000
  H   H456      1.0  0.23511  0.20466  0.23991  1.0000
  H   H457      1.0  0.23759  0.13669  0.38589  1.0000
  C   C286      1.0  0.25471  0.14957  0.37036  1.0000
  H   H458      1.0  0.43102  0.13502  0.38091  1.0000
  N   N18       1.0  0.07144  0.02511  0.35374  1.0000
  C   C287      1.0  0.08818  0.02639  0.35144  1.0000
  C   C288      1.0  0.06232  0.03053  0.36851  1.0000
  C   C289      1.0  0.06531  0.03572  0.33980  1.0000
  C   C290      1.0  0.07154  0.00836  0.35473  1.0000
  S   S79       1.0  0.00131  0.19572  0.43605  1.0000
  H   H459      1.0  0.47524  0.08432  0.31281  1.0000
  C   C291      1.0  0.19858  0.10848  0.46843  1.0000
  H   H460      1.0  0.18057  0.13013  0.44958  1.0000
  H   H461      1.0  0.08863  0.03849  0.35121  1.0000
  H   H462      1.0  0.09343  0.01895  0.36128  1.0000
  H   H463      1.0  0.29204  0.15418  0.34662  1.0000
  H   H464      1.0  0.06398  0.04229  0.36804  1.0000
  H   H465      1.0  0.07031  0.04638  0.33568  1.0000
  H   H466      1.0  0.06919  0.02988  0.32977  1.0000
  H   H467      1.0  0.07760  0.00499  0.34342  1.0000
  H   H468      1.0  0.26229  0.19094  0.25143  1.0000
  C   C292      1.0  0.14969  0.01640  0.44995  1.0000
  H   H469      1.0  0.47604  0.99624  0.26007  1.0000
  H   H470      1.0  0.48751  0.04748  0.34858  1.0000
  C   C293      1.0  0.03705  0.20723  0.34085  1.0000
  C   C294      1.0  0.26522  0.14858  0.34296  1.0000
  H   H471      1.0  0.05878  0.02501  0.39372  1.0000
  H   H472      1.0  0.25519  0.21129  0.24534  1.0000
  S   S80       1.0  0.00172  0.13343  0.35632  1.0000
  C   C295      1.0  0.14027  0.21078  0.37831  1.0000
  C   C296      1.0  0.05546  0.00397  0.35888  1.0000
  H   H473      1.0  0.26569  0.14164  0.37328  1.0000
  C   C297      1.0  0.40624  0.98812  0.23364  1.0000
  H   H474      1.0  0.13032  0.13842  0.43416  1.0000
  H   H475      1.0  0.11558  0.17341  0.32834  1.0000
  H   H476      1.0  0.07568  0.16081  0.35597  1.0000
  H   H477      1.0  0.19147  0.11910  0.47279  1.0000
  S   S81       1.0  0.21785  0.04778  0.42187  1.0000
  H   H478      1.0  0.48360  0.07883  0.24884  1.0000
  C   C298      1.0  0.13412  0.10741  0.44499  1.0000
  H   H479      1.0  0.06657  0.17516  0.34168  1.0000
  H   H480      1.0  0.10785  0.23180  0.40983  1.0000
  H   H481      1.0  0.11947  0.17415  0.35091  1.0000
  S   S82       1.0  0.29672  0.11531  0.46604  1.0000
  H   H482      1.0  0.03525  0.15291  0.38585  1.0000
  H   H483      1.0  0.26383  0.17639  0.36267  1.0000
  C   C299      1.0  0.47232  0.98603  0.31254  1.0000
  S   S83       1.0  0.27786  0.09313  0.41277  1.0000
  H   H484      1.0  0.03566  0.14821  0.36274  1.0000
  H   H485      1.0  0.03411  0.13715  0.34398  1.0000
  H   H486      1.0  0.05163  0.15816  0.33936  1.0000
  H   H487      1.0  0.04419  0.12306  0.33243  1.0000
  H   H488      1.0  0.04066  0.12842  0.37223  1.0000
  H   H489      1.0  0.05458  0.16884  0.35996  1.0000
  H   H490      1.0  0.04460  0.04785  0.33037  1.0000
  H   H491      1.0  0.14507  0.02806  0.46896  1.0000
  H   H492      1.0  0.03120  0.21952  0.39699  1.0000
  Fe  Fe40      1.0  0.49188  0.06209  0.28065  1.0000
  H   H493      1.0  0.46779  0.12861  0.28784  1.0000
  H   H494      1.0  0.16800  0.99125  0.37444  1.0000
  H   H495      1.0  0.17466  0.10682  0.46946  1.0000
  C   C300      1.0  0.47895  0.98889  0.23909  1.0000
  H   H496      1.0  0.16563  0.99651  0.43155  1.0000
  C   C301      1.0  0.05470  0.19567  0.40177  1.0000
  H   H497      1.0  0.04327  0.05091  0.34910  1.0000
  C   C302      1.0  0.20938  0.00258  0.38625  1.0000
  C   C303      1.0  0.47199  0.09691  0.31319  1.0000
  H   H498      1.0  0.27583  0.20323  0.24482  1.0000
  H   H499      1.0  0.04116  0.19229  0.43806  1.0000
  H   H500      1.0  0.09575  0.02895  0.32581  1.0000
  H   H501      1.0  0.05105  0.19918  0.39045  1.0000
  N   N19       1.0  0.04657  0.22200  0.41015  1.0000
  H   H502      1.0  0.05737  0.22734  0.43487  1.0000
  C   C304      1.0  0.48017  0.99304  0.31902  1.0000
  H   H503      1.0  0.48055  0.14110  0.28640  1.0000
  C   C305      1.0  0.47676  0.98602  0.29665  1.0000
  S   S84       1.0  0.31369  0.18869  0.23133  1.0000
  H   H504      1.0  0.28549  0.15325  0.36745  1.0000
  C   C306      1.0  0.49123  0.10223  0.28857  1.0000
  C   C307      1.0  0.26504  0.20151  0.24265  1.0000
  C   C308      1.0  0.13908  0.99374  0.45291  1.0000
  C   C309      1.0  0.19066  0.13330  0.44034  1.0000
  C   C310      1.0  0.48591  0.03764  0.23690  1.0000
  H   H505      1.0  0.28982  0.14897  0.46360  1.0000
  H   H506      1.0  0.07847  0.01811  0.38446  1.0000
  H   H507      1.0  0.10923  0.01947  0.42691  1.0000
  N   N20       1.0  0.14793  0.22447  0.37057  1.0000
  H   H508      1.0  0.23728  0.01535  0.41678  1.0000
  Fe  Fe41      1.0  0.00227  0.12771  0.38159  1.0000
  C   C311      1.0  0.48517  0.02033  0.24084  1.0000
  H   H509      1.0  0.06484  0.18558  0.40094  1.0000
  C   C312      1.0  0.45239  0.07142  0.24063  1.0000
  C   C313      1.0  0.46026  0.04092  0.30866  1.0000
  H   H510      1.0  0.13962  0.00971  0.47505  1.0000
  H   H511      1.0  0.34627  0.11296  0.24852  1.0000
  C   C314      1.0  0.48207  0.12117  0.30633  1.0000
  H   H512      1.0  0.00856  0.16934  0.42253  1.0000
  H   H513      1.0  0.16293  0.20576  0.29981  1.0000
  H   H514      1.0  0.06344  0.00810  0.38580  1.0000
  C   C315      1.0  0.45681  0.10410  0.30703  1.0000
  H   H515      1.0  0.35293  0.09816  0.23747  1.0000
  C   C316      1.0  0.05979  0.20909  0.40488  1.0000
  H   H516      1.0  0.11787  0.01912  0.44804  1.0000
  H   H517      1.0  0.04502  0.19169  0.41111  1.0000
  N   N21       1.0  0.48585  0.10435  0.30514  1.0000
  C   C317      1.0  0.12473  0.21195  0.31917  1.0000
  H   H518      1.0  0.14443  0.20170  0.37125  1.0000
  H   H519      1.0  0.21473  0.08729  0.43969  1.0000
  H   H520      1.0  0.49306  0.12505  0.30501  1.0000
  H   H521      1.0  0.07878  0.00020  0.36293  1.0000
  H   H522      1.0  0.15010  0.13074  0.43474  1.0000
  H   H523      1.0  0.06769  0.21389  0.39393  1.0000
  H   H524      1.0  0.14969  0.15198  0.41312  1.0000
  H   H525      1.0  0.07666  0.10419  0.36568  1.0000
  C   C318      1.0  0.27042  0.15656  0.32577  1.0000
  H   H526      1.0  0.21331  0.00918  0.37469  1.0000
  S   S85       1.0  0.21784  0.03092  0.46532  1.0000
  H   H527      1.0  0.48183  0.10715  0.28195  1.0000
  Fe  Fe42      1.0  0.20432  0.04260  0.44648  1.0000
  C   C319      1.0  0.48944  0.99249  0.28738  1.0000
  H   H528      1.0  0.48013  0.04306  0.24706  1.0000
  N   N22       1.0  0.25797  0.15934  0.35412  1.0000
  H   H529      1.0  0.20873  0.13579  0.45830  1.0000
  H   H530      1.0  0.26410  0.18765  0.22741  1.0000
  H   H531      1.0  0.17096  0.19569  0.37124  1.0000
  H   H532      1.0  0.43835  0.04748  0.32430  1.0000
  C   C320      1.0  0.40565  0.14604  0.41198  1.0000
  H   H533      1.0  0.23405  0.10236  0.44203  1.0000
  H   H534      1.0  0.07214  0.15031  0.33435  1.0000
  H   H535      1.0  0.04858  0.14196  0.32638  1.0000
  H   H536      1.0  0.08429  0.10964  0.37884  1.0000
  N   N23       1.0  0.06002  0.13707  0.35546  1.0000
  C   C321      1.0  0.05868  0.12645  0.34607  1.0000
  C   C322      1.0  0.07451  0.12945  0.36204  1.0000
  C   C323      1.0  0.06217  0.15235  0.34441  1.0000
  C   C324      1.0  0.04513  0.13937  0.36784  1.0000
  C   C325      1.0  0.04560  0.13271  0.33675  1.0000
  C   C326      1.0  0.07453  0.11307  0.37262  1.0000
  C   C327      1.0  0.06496  0.16474  0.35119  1.0000
  H   H537      1.0  0.43887  0.10778  0.24279  1.0000
  C   C328      1.0  0.26882  0.16946  0.35349  1.0000
  H   H538      1.0  0.22882  0.99759  0.46812  1.0000
  H   H539      1.0  0.12907  0.98330  0.34833  1.0000
  H   H540      1.0  0.43248  0.02442  0.35210  1.0000
  H   H541      1.0  0.44814  0.09672  0.31324  1.0000
  H   H542      1.0  0.29231  0.16964  0.35475  1.0000
  C   C329      1.0  0.03717  0.22836  0.39765  1.0000
  C   C330      1.0  0.14177  0.20260  0.39516  1.0000
  C   C331      1.0  0.46019  0.02342  0.27060  1.0000
  H   H543      1.0  0.04950  0.03211  0.37003  1.0000
  H   H544      1.0  0.47186  0.02512  0.27029  1.0000
  H   H545      1.0  0.18736  0.20429  0.36712  1.0000
  S   S86       1.0  0.10598  0.21957  0.31520  1.0000
  H   H546      1.0  0.22994  0.09418  0.46236  1.0000
  H   H547      1.0  0.14214  0.18999  0.39692  1.0000
  C   C332      1.0  0.03572  0.21663  0.42534  1.0000
  H   H548      1.0  0.23159  0.07592  0.44674  1.0000
  C   C333      1.0  0.33385  0.08030  0.23025  1.0000
  H   H549      1.0  0.24433  0.04191  0.46573  1.0000
  H   H550      1.0  0.12641  0.00531  0.42161  1.0000
  H   H551      1.0  0.47520  0.12238  0.31817  1.0000
  H   H552      1.0  0.19331  0.14382  0.44186  1.0000
  S   S87       1.0  0.08055  0.21967  0.35718  1.0000
  N   N24       1.0  0.14262  0.00858  0.44184  1.0000
  C   C334      1.0  0.17538  0.20638  0.36506  1.0000
  H   H553      1.0  0.13078  0.99621  0.46385  1.0000
  H   H554      1.0  0.15067  0.02816  0.41238  1.0000
  C   C335      1.0  0.13775  0.21182  0.30674  1.0000
  H   H555      1.0  0.16816  0.02342  0.41997  1.0000
  H   H556      1.0  0.45844  0.10461  0.29451  1.0000
  H   H557      1.0  0.20080  0.00213  0.47099  1.0000
  C   C336      1.0  0.24185  0.99796  0.43763  1.0000
  H   H558      1.0  0.22025  0.00859  0.42825  1.0000
  H   H559      1.0  0.12535  0.02585  0.41333  1.0000
  C   C337      1.0  0.99649  0.17519  0.42230  1.0000
  H   H560      1.0  0.02903  0.22673  0.43067  1.0000
  H   H561      1.0  0.23528  0.99668  0.41648  1.0000
  C   C338      1.0  0.12226  0.01707  0.42413  1.0000
  H   H562      1.0  0.05676  0.99147  0.36490  1.0000
  C   C339      1.0  0.46440  0.02180  0.22787  1.0000
  H   H563      1.0  0.24107  0.00779  0.44300  1.0000
  H   H564      1.0  0.42424  0.11336  0.23141  1.0000
  H   H565      1.0  0.12744  0.21435  0.37870  1.0000
  H   H566      1.0  0.28021  0.08914  0.23049  1.0000
  H   H567      1.0  0.07468  0.22195  0.41993  1.0000
  H   H568      1.0  0.23633  0.11159  0.46982  1.0000
  H   H569      1.0  0.12754  0.02670  0.46473  1.0000
  H   H570      1.0  0.48792  0.08678  0.33769  1.0000
  H   H571      1.0  0.22851  0.13098  0.47237  1.0000
  C   C340      1.0  0.13156  0.98384  0.44714  1.0000
  C   C341      1.0  0.23278  0.21426  0.22979  1.0000
  H   H572      1.0  0.15286  0.21849  0.34804  1.0000
  S   S88       1.0  0.00299  0.22376  0.45815  1.0000
  C   C342      1.0  0.22529  0.12053  0.47126  1.0000
  H   H573      1.0  0.49126  0.10632  0.33384  1.0000
  H   H574      1.0  0.43884  0.02840  0.23041  1.0000
  C   C343      1.0  0.23408  0.04769  0.47302  1.0000
  H   H575      1.0  0.49099  0.99069  0.23356  1.0000
  H   H576      1.0  0.11938  0.98979  0.44601  1.0000
  C   C344      1.0  0.16455  0.98692  0.38719  1.0000
  C   C345      1.0  0.14735  0.22869  0.35354  1.0000
  H   H577      1.0  0.39963  0.98343  0.24494  1.0000
  H   H578      1.0  0.99349  0.22178  0.40685  1.0000
  H   H579      1.0  0.36505  0.13313  0.23157  1.0000
  H   H580      1.0  0.99583  0.20307  0.37421  1.0000
  H   H581      1.0  0.17035  0.23094  0.36483  1.0000
  C   C346      1.0  0.20904  0.98691  0.38840  1.0000
  H   H582      1.0  0.25971  0.99354  0.45850  1.0000
  H   H583      1.0  0.14111  0.98606  0.38720  1.0000
  H   H584      1.0  0.22094  0.21448  0.22844  1.0000
  C   C347      1.0  0.44863  0.01842  0.22795  1.0000
  H   H585      1.0  0.00272  0.22568  0.38670  1.0000
  C   C348      1.0  0.21941  0.04455  0.47474  1.0000
  H   H586      1.0  0.18740  0.08855  0.47481  1.0000
  C   C349      1.0  0.99419  0.21937  0.39545  1.0000
  N   N25       1.0  0.23677  0.98433  0.44998  1.0000
  C   C350      1.0  0.06388  0.23085  0.42282  1.0000
  H   H587      1.0  0.04505  0.23102  0.38609  1.0000
  C   C351      1.0  0.12034  0.98311  0.35913  1.0000
  H   H588      1.0  0.03339  0.23197  0.47506  1.0000
  H   H589      1.0  0.09340  0.03638  0.59756  1.0000
  C   C352      1.0  0.33416  0.15858  0.51937  1.0000
  H   H590      1.0  0.24583  0.09149  0.52444  1.0000
  H   H591      1.0  0.05696  0.15726  0.58522  1.0000
  H   H592      1.0  0.07834  0.17837  0.70392  1.0000
  Fe  Fe43      1.0  0.18122  0.16565  0.66323  1.0000
  S   S89       1.0  0.16775  0.18842  0.65158  1.0000
  Fe  Fe44      1.0  0.21478  0.14655  0.66066  1.0000
  S   S90       1.0  0.20739  0.12662  0.67917  1.0000
  S   S91       1.0  0.24070  0.14429  0.65111  1.0000
  Fe  Fe45      1.0  0.18737  0.13065  0.66751  1.0000
  Fe  Fe46      1.0  0.19240  0.14516  0.69194  1.0000
  S   S92       1.0  0.19608  0.14929  0.64794  1.0000
  S   S93       1.0  0.20090  0.16491  0.67385  1.0000
  Fe  Fe47      1.0  0.10360  0.09776  0.62036  1.0000
  S   S94       1.0  0.10688  0.11570  0.59814  1.0000
  C   C353      1.0  0.22704  0.16636  0.72639  1.0000
  H   H593      1.0  0.08891  0.20743  0.64854  1.0000
  H   H594      1.0  0.35224  0.11272  0.52543  1.0000
  C   C354      1.0  0.38164  0.14454  0.69860  1.0000
  Fe  Fe48      1.0  0.48243  0.16016  0.69597  1.0000
  H   H595      1.0  0.46371  0.11872  0.69368  1.0000
  H   H596      1.0  0.05265  0.00077  0.67918  1.0000
  Fe  Fe49      1.0  0.35029  0.15808  0.65925  1.0000
  S   S95       1.0  0.34148  0.14827  0.64432  1.0000
  H   H597      1.0  0.38432  0.16659  0.50120  1.0000
  Fe  Fe50      1.0  0.38427  0.14148  0.64960  1.0000
  S   S96       1.0  0.37849  0.13021  0.63346  1.0000
  H   H598      1.0  0.43749  0.15357  0.71864  1.0000
  Fe  Fe51      1.0  0.36279  0.15343  0.62623  1.0000
  S   S97       1.0  0.35842  0.16430  0.60207  1.0000
  Fe  Fe52      1.0  0.35758  0.12596  0.65253  1.0000
  S   S98       1.0  0.35005  0.10324  0.65882  1.0000
  C   C355      1.0  0.15672  0.19796  0.70831  1.0000
  S   S99       1.0  0.36451  0.13517  0.66929  1.0000
  C   C356      1.0  0.01714  0.12944  0.66875  1.0000
  H   H599      1.0  0.15648  0.00907  0.60974  1.0000
  Fe  Fe53      1.0  0.29592  0.14538  0.53666  1.0000
  S   S100      1.0  0.30635  0.12105  0.54798  1.0000
  S   S101      1.0  0.30063  0.15554  0.51078  1.0000
  Fe  Fe54      1.0  0.27661  0.15308  0.56759  1.0000
  S   S102      1.0  0.28561  0.12942  0.58140  1.0000
  S   S103      1.0  0.25729  0.17055  0.57873  1.0000
  Fe  Fe55      1.0  0.30902  0.13216  0.56590  1.0000
  S   S104      1.0  0.33119  0.12294  0.57519  1.0000
  Fe  Fe56      1.0  0.28201  0.12074  0.56240  1.0000
  S   S105      1.0  0.27142  0.09975  0.56877  1.0000
  S   S106      1.0  0.30034  0.15668  0.55357  1.0000
  S   S107      1.0  0.27137  0.14420  0.54957  1.0000
  C   C357      1.0  0.07422  0.03169  0.62733  1.0000
  H   H600      1.0  0.03804  0.06427  0.65694  1.0000
  S   S108      1.0  0.19328  0.14241  0.71715  1.0000
  H   H601      1.0  0.29138  0.16442  0.48139  1.0000
  Fe  Fe57      1.0  0.17476  0.08449  0.54121  1.0000
  S   S109      1.0  0.18207  0.07988  0.56376  1.0000
  S   S110      1.0  0.14965  0.09052  0.53942  1.0000
  Fe  Fe58      1.0  0.20798  0.08032  0.52215  1.0000
  S   S111      1.0  0.21843  0.07537  0.54294  1.0000
  S   S112      1.0  0.22432  0.07997  0.49878  1.0000
  Fe  Fe59      1.0  0.20064  0.06075  0.55460  1.0000
  Fe  Fe60      1.0  0.19904  0.09501  0.55021  1.0000
  S   S113      1.0  0.20214  0.11387  0.55973  1.0000
  S   S114      1.0  0.19181  0.06393  0.53314  1.0000
  S   S115      1.0  0.19013  0.10139  0.52826  1.0000
  H   H602      1.0  0.43537  0.16073  0.69890  1.0000
  H   H603      1.0  0.08459  0.19635  0.70165  1.0000
  H   H604      1.0  0.36654  0.10756  0.69496  1.0000
  C   C358      1.0  0.22231  0.06610  0.48992  1.0000
  C   C359      1.0  0.20768  0.06268  0.49197  1.0000
  C   C360      1.0  0.20619  0.05206  0.48421  1.0000
  H   H605      1.0  0.16550  0.98326  0.62350  1.0000
  H   H606      1.0  0.25688  0.14453  0.67977  1.0000
  H   H607      1.0  0.19742  0.06858  0.49913  1.0000
  H   H608      1.0  0.19483  0.04963  0.48559  1.0000
  C   C361      1.0  0.25180  0.10378  0.56726  1.0000
  C   C362      1.0  0.24304  0.11911  0.56456  1.0000
  C   C363      1.0  0.22763  0.12214  0.56261  1.0000
  C   C364      1.0  0.22094  0.10984  0.56337  1.0000
  C   C365      1.0  0.22946  0.09448  0.56665  1.0000
  C   C366      1.0  0.24488  0.09146  0.56857  1.0000
  H   H609      1.0  0.24799  0.12863  0.56417  1.0000
  H   H610      1.0  0.22101  0.13404  0.56025  1.0000
  H   H611      1.0  0.22418  0.08490  0.56774  1.0000
  H   H612      1.0  0.25153  0.07956  0.57087  1.0000
  Fe  Fe61      1.0  0.00448  0.18968  0.63727  1.0000
  S   S116      1.0  0.15588  0.00055  0.57530  1.0000
  C   C367      1.0  0.29467  0.15183  0.48436  1.0000
  C   C368      1.0  0.29949  0.14433  0.49840  1.0000
  C   C369      1.0  0.30384  0.12807  0.50210  1.0000
  C   C370      1.0  0.30346  0.11938  0.49177  1.0000
  C   C371      1.0  0.23548  0.05866  0.48036  1.0000
  H   H613      1.0  0.43259  0.09384  0.70518  1.0000
  H   H614      1.0  0.30777  0.12219  0.51278  1.0000
  H   H615      1.0  0.22567  0.00941  0.55389  1.0000
  H   H616      1.0  0.34852  0.16709  0.70850  1.0000
  C   C372      1.0  0.21094  0.16453  0.70998  1.0000
  H   H617      1.0  0.36122  0.12732  0.54880  1.0000
  C   C373      1.0  0.43962  0.15334  0.66407  1.0000
  C   C374      1.0  0.33149  0.15203  0.69995  1.0000
  H   H618      1.0  0.32958  0.13622  0.62005  1.0000
  H   H619      1.0  0.33925  0.14401  0.69303  1.0000
  C   C375      1.0  0.35076  0.15290  0.59459  1.0000
  C   C376      1.0  0.35654  0.13678  0.59682  1.0000
  C   C377      1.0  0.35054  0.12781  0.59063  1.0000
  C   C378      1.0  0.33833  0.13476  0.58266  1.0000
  C   C379      1.0  0.33248  0.15088  0.58046  1.0000
  C   C380      1.0  0.33888  0.15996  0.58619  1.0000
  H   H620      1.0  0.36586  0.13128  0.60308  1.0000
  H   H621      1.0  0.35542  0.11542  0.59202  1.0000
  H   H622      1.0  0.32312  0.15638  0.57427  1.0000
  H   H623      1.0  0.33441  0.17244  0.58440  1.0000
  H   H624      1.0  0.27818  0.09805  0.64679  1.0000
  H   H625      1.0  0.27097  0.12788  0.50096  1.0000
  C   C381      1.0  0.23060  0.11288  0.51533  1.0000
  C   C382      1.0  0.37021  0.19127  0.66945  1.0000
  H   H626      1.0  0.24136  0.01434  0.50170  1.0000
  H   H627      1.0  0.05453  0.18737  0.70003  1.0000
  C   C383      1.0  0.29825  0.12684  0.47792  1.0000
  C   C384      1.0  0.46330  0.11774  0.70616  1.0000
  C   C385      1.0  0.07649  0.01540  0.63099  1.0000
  H   H628      1.0  0.07225  0.22220  0.67891  1.0000
  H   H629      1.0  0.03231  0.02098  0.69674  1.0000
  H   H630      1.0  0.09803  0.18006  0.69525  1.0000
  C   C386      1.0  0.16925  0.01102  0.57535  1.0000
  H   H631      1.0  0.30464  0.12878  0.69040  1.0000
  C   C387      1.0  0.33180  0.10607  0.70365  1.0000
  C   C388      1.0  0.33673  0.11007  0.68744  1.0000
  C   C389      1.0  0.34269  0.09841  0.67888  1.0000
  C   C390      1.0  0.34345  0.08278  0.68648  1.0000
  C   C391      1.0  0.33912  0.07874  0.70276  1.0000
  H   H632      1.0  0.44486  0.09681  0.72419  1.0000
  H   H633      1.0  0.33597  0.12216  0.68157  1.0000
  H   H634      1.0  0.34796  0.07375  0.67984  1.0000
  H   H635      1.0  0.31120  0.14034  0.67140  1.0000
  C   C392      1.0  0.11838  0.10800  0.58212  1.0000
  C   C393      1.0  0.12961  0.09402  0.58403  1.0000
  C   C394      1.0  0.13934  0.08857  0.57090  1.0000
  C   C395      1.0  0.13749  0.09690  0.55596  1.0000
  C   C396      1.0  0.12594  0.11061  0.55414  1.0000
  C   C397      1.0  0.11658  0.11629  0.56719  1.0000
  H   H636      1.0  0.13102  0.08759  0.59557  1.0000
  H   H637      1.0  0.14815  0.07786  0.57234  1.0000
  H   H638      1.0  0.12452  0.11706  0.54259  1.0000
  H   H639      1.0  0.10791  0.12712  0.56571  1.0000
  H   H640      1.0  0.26505  0.08110  0.53840  1.0000
  S   S117      1.0  0.20681  0.03726  0.56989  1.0000
  H   H641      1.0  0.37539  0.13921  0.53890  1.0000
  H   H642      1.0  0.17651  0.04739  0.56193  1.0000
  C   C398      1.0  0.24519  0.15257  0.63121  1.0000
  C   C399      1.0  0.23357  0.16241  0.62351  1.0000
  C   C400      1.0  0.23740  0.16825  0.60739  1.0000
  C   C401      1.0  0.25279  0.16412  0.59899  1.0000
  C   C402      1.0  0.26445  0.15463  0.60680  1.0000
  C   C403      1.0  0.26064  0.14894  0.62291  1.0000
  H   H643      1.0  0.22167  0.16554  0.62994  1.0000
  H   H644      1.0  0.22841  0.17575  0.60137  1.0000
  H   H645      1.0  0.27646  0.15195  0.60047  1.0000
  H   H646      1.0  0.26960  0.14170  0.62898  1.0000
  H   H647      1.0  0.17259  0.08959  0.64931  1.0000
  C   C404      1.0  0.01828  0.21898  0.61409  1.0000
  H   H648      1.0  0.37212  0.13994  0.70773  1.0000
  C   C405      1.0  0.14269  0.18964  0.67682  1.0000
  C   C406      1.0  0.14859  0.19568  0.66113  1.0000
  C   C407      1.0  0.13947  0.20862  0.65301  1.0000
  C   C408      1.0  0.08227  0.19250  0.67977  1.0000
  H   H649      1.0  0.03489  0.19860  0.67512  1.0000
  H   H650      1.0  0.33370  0.15819  0.50743  1.0000
  C   C409      1.0  0.34994  0.18312  0.72101  1.0000
  C   C410      1.0  0.43762  0.13561  0.70664  1.0000
  H   H651      1.0  0.48579  0.10123  0.70433  1.0000
  H   H652      1.0  0.24905  0.09923  0.49154  1.0000
  C   C411      1.0  0.04035  0.04285  0.68568  1.0000
  H   H653      1.0  0.02129  0.22227  0.64538  1.0000
  H   H654      1.0  0.17147  0.18574  0.68970  1.0000
  H   H655      1.0  0.35077  0.18996  0.68844  1.0000
  S   S118      1.0  0.37046  0.16529  0.64055  1.0000
  H   H656      1.0  0.31803  0.12172  0.65136  1.0000
  H   H657      1.0  0.06698  0.19349  0.65773  1.0000
  H   H658      1.0  0.05490  0.06509  0.64150  1.0000
  H   H659      1.0  0.45415  0.15070  0.70274  1.0000
  C   C412      1.0  0.20677  0.15125  0.72046  1.0000
  S   S119      1.0  0.01516  0.19113  0.61187  1.0000
  C   C413      1.0  0.10077  0.01365  0.63834  1.0000
  S   S120      1.0  0.06158  0.00692  0.63028  1.0000
  N   N26       1.0  0.26056  0.10830  0.51408  1.0000
  H   H660      1.0  0.30820  0.14791  0.68781  1.0000
  C   C414      1.0  0.26843  0.09928  0.50144  1.0000
  H   H661      1.0  0.06294  0.14688  0.64323  1.0000
  Fe  Fe62      1.0  0.46576  0.17706  0.66964  1.0000
  H   H662      1.0  0.04748  0.13213  0.68210  1.0000
  H   H663      1.0  0.05253  0.22498  0.67778  1.0000
  H   H664      1.0  0.19838  0.99556  0.53582  1.0000
  N   N27       1.0  0.37055  0.17406  0.69750  1.0000
  C   C415      1.0  0.25239  0.13617  0.51906  1.0000
  H   H665      1.0  0.26583  0.10958  0.53537  1.0000
  H   H666      1.0  0.24139  0.13355  0.52711  1.0000
  H   H667      1.0  0.26107  0.13540  0.52584  1.0000
  H   H668      1.0  0.24972  0.14849  0.51266  1.0000
  H   H669      1.0  0.42044  0.09885  0.68058  1.0000
  C   C416      1.0  0.32672  0.16775  0.69304  1.0000
  H   H670      1.0  0.30509  0.08989  0.64293  1.0000
  C   C417      1.0  0.30188  0.10157  0.63530  1.0000
  C   C418      1.0  0.27121  0.10369  0.52545  1.0000
  C   C419      1.0  0.39136  0.08730  0.65616  1.0000
  C   C420      1.0  0.28639  0.14775  0.68137  1.0000
  C   C421      1.0  0.22084  0.17211  0.71300  1.0000
  H   H671      1.0  0.26071  0.14934  0.71645  1.0000
  H   H672      1.0  0.07369  0.21709  0.63818  1.0000
  S   S121      1.0  0.40755  0.13401  0.65717  1.0000
  S   S122      1.0  0.09033  0.10797  0.64096  1.0000
  N   N28       1.0  0.39430  0.08464  0.68408  1.0000
  C   C422      1.0  0.39083  0.09440  0.69602  1.0000
  C   C423      1.0  0.38584  0.07136  0.69115  1.0000
  C   C424      1.0  0.38843  0.09495  0.66998  1.0000
  C   C425      1.0  0.37332  0.09979  0.70356  1.0000
  C   C426      1.0  0.39342  0.05580  0.68587  1.0000
  H   H673      1.0  0.39690  0.08790  0.70571  1.0000
  H   H674      1.0  0.38448  0.06810  0.70400  1.0000
  H   H675      1.0  0.37365  0.07501  0.68930  1.0000
  H   H676      1.0  0.37558  0.09947  0.67303  1.0000
  H   H677      1.0  0.18242  0.19266  0.69926  1.0000
  H   H678      1.0  0.36754  0.08996  0.70995  1.0000
  S   S123      1.0  0.48642  0.18747  0.65539  1.0000
  H   H679      1.0  0.38503  0.04794  0.69070  1.0000
  H   H680      1.0  0.40409  0.04977  0.69059  1.0000
  H   H681      1.0  0.39648  0.05710  0.67310  1.0000
  S   S124      1.0  0.47766  0.14767  0.72088  1.0000
  H   H682      1.0  0.40816  0.17841  0.69650  1.0000
  H   H683      1.0  0.38395  0.14664  0.50940  1.0000
  H   H684      1.0  0.31676  0.09334  0.66488  1.0000
  H   H685      1.0  0.06585  0.02528  0.69758  1.0000
  H   H686      1.0  0.33542  0.12725  0.52093  1.0000
  H   H687      1.0  0.43980  0.13524  0.69419  1.0000
  H   H688      1.0  0.29567  0.09919  0.66697  1.0000
  H   H689      1.0  0.20410  0.00590  0.58523  1.0000
  H   H690      1.0  0.40100  0.16802  0.64885  1.0000
  H   H691      1.0  0.36642  0.18345  0.66457  1.0000
  S   S125      1.0  0.48014  0.15279  0.67545  1.0000
  H   H692      1.0  0.26943  0.08655  0.50620  1.0000
  H   H693      1.0  0.29077  0.18967  0.68377  1.0000
  H   H694      1.0  0.28065  0.10093  0.49646  1.0000
  H   H695      1.0  0.26204  0.17101  0.67676  1.0000
  C   C427      1.0  0.19371  0.01177  0.58062  1.0000
  H   H696      1.0  0.31384  0.17781  0.52151  1.0000
  H   H697      1.0  0.34396  0.19389  0.71393  1.0000
  S   S126      1.0  0.33392  0.17510  0.67330  1.0000
  S   S127      1.0  0.44241  0.18322  0.66235  1.0000
  H   H698      1.0  0.09069  0.06590  0.59569  1.0000
  C   C428      1.0  0.09834  0.02995  0.63495  1.0000
  C   C429      1.0  0.08995  0.00636  0.63628  1.0000
  H   H699      1.0  0.11888  0.03253  0.59982  1.0000
  C   C430      1.0  0.25052  0.15215  0.68810  1.0000
  H   H700      1.0  0.24027  0.99414  0.50498  1.0000
  H   H701      1.0  0.02944  0.19077  0.69537  1.0000
  H   H702      1.0  0.23972  0.15908  0.68395  1.0000
  H   H703      1.0  0.04372  0.22204  0.70376  1.0000
  H   H704      1.0  0.15660  0.20897  0.71120  1.0000
  H   H705      1.0  0.14495  0.17417  0.71068  1.0000
  H   H706      1.0  0.05794  0.00711  0.69332  1.0000
  C   C431      1.0  0.18145  0.98550  0.49608  1.0000
  H   H707      1.0  0.46938  0.12677  0.70610  1.0000
  H   H708      1.0  0.31391  0.14968  0.61213  1.0000
  N   N29       1.0  0.05677  0.03757  0.67671  1.0000
  S   S128      1.0  0.01721  0.18828  0.65549  1.0000
  H   H709      1.0  0.36523  0.15996  0.68506  1.0000
  H   H710      1.0  0.10067  0.01418  0.58688  1.0000
  H   H711      1.0  0.38459  0.16292  0.67844  1.0000
  H   H712      1.0  0.23437  0.00811  0.48862  1.0000
  N   N30       1.0  0.16047  0.11476  0.60063  1.0000
  C   C432      1.0  0.16325  0.10853  0.58621  1.0000
  C   C433      1.0  0.17009  0.10277  0.61134  1.0000
  C   C434      1.0  0.16612  0.12981  0.59574  1.0000
  C   C435      1.0  0.14309  0.11743  0.60765  1.0000
  C   C436      1.0  0.15705  0.12008  0.57225  1.0000
  C   C437      1.0  0.16582  0.08666  0.61703  1.0000
  C   C438      1.0  0.16999  0.13543  0.60839  1.0000
  C   C439      1.0  0.13741  0.12216  0.62353  1.0000
  H   H713      1.0  0.17602  0.10415  0.58191  1.0000
  H   H714      1.0  0.15783  0.09834  0.58880  1.0000
  H   H715      1.0  0.16942  0.10671  0.62195  1.0000
  H   H716      1.0  0.18278  0.10093  0.60551  1.0000
  H   H717      1.0  0.17716  0.12881  0.58654  1.0000
  H   H718      1.0  0.15739  0.13952  0.59039  1.0000
  H   H719      1.0  0.13646  0.12676  0.59969  1.0000
  H   H720      1.0  0.13836  0.10710  0.60867  1.0000
  H   H721      1.0  0.16335  0.12974  0.56730  1.0000
  H   H722      1.0  0.15922  0.11380  0.56279  1.0000
  H   H723      1.0  0.14423  0.12481  0.57518  1.0000
  H   H724      1.0  0.17319  0.07914  0.62531  1.0000
  H   H725      1.0  0.15344  0.08750  0.62342  1.0000
  H   H726      1.0  0.16823  0.08059  0.60740  1.0000
  H   H727      1.0  0.17284  0.14710  0.60329  1.0000
  H   H728      1.0  0.18054  0.12767  0.61241  1.0000
  H   H729      1.0  0.16010  0.13677  0.61849  1.0000
  H   H730      1.0  0.13386  0.13504  0.62197  1.0000
  H   H731      1.0  0.14601  0.11765  0.63103  1.0000
  H   H732      1.0  0.12705  0.11718  0.63032  1.0000
  C   C440      1.0  0.19179  0.02751  0.57314  1.0000
  C   C441      1.0  0.43796  0.10412  0.70214  1.0000
  H   H733      1.0  0.11865  0.22656  0.65446  1.0000
  H   H734      1.0  0.32733  0.17713  0.53278  1.0000
  C   C442      1.0  0.08515  0.03893  0.62918  1.0000
  H   H735      1.0  0.24183  0.10654  0.53455  1.0000
  C   C443      1.0  0.27555  0.08613  0.53278  1.0000
  C   C444      1.0  0.41184  0.07849  0.68027  1.0000
  N   N31       1.0  0.11157  0.04363  0.57801  1.0000
  H   H736      1.0  0.03943  0.05367  0.68957  1.0000
  C   C445      1.0  0.11333  0.05734  0.56448  1.0000
  C   C446      1.0  0.09452  0.04492  0.58622  1.0000
  C   C447      1.0  0.12170  0.04172  0.58928  1.0000
  H   H737      1.0  0.33913  0.14922  0.54660  1.0000
  C   C448      1.0  0.13022  0.05764  0.55513  1.0000
  C   C449      1.0  0.08510  0.06097  0.58947  1.0000
  C   C450      1.0  0.12071  0.05610  0.59547  1.0000
  C   C451      1.0  0.43162  0.14263  0.66301  1.0000
  H   H738      1.0  0.07246  0.04804  0.65643  1.0000
  H   H739      1.0  0.10865  0.06866  0.56809  1.0000
  H   H740      1.0  0.10617  0.05784  0.55618  1.0000
  C   C452      1.0  0.33340  0.09040  0.71135  1.0000
  H   H741      1.0  0.03173  0.04598  0.67815  1.0000
  C   C453      1.0  0.34561  0.12473  0.52642  1.0000
  H   H742      1.0  0.12958  0.02676  0.56636  1.0000
  N   N32       1.0  0.44660  0.12088  0.71537  1.0000
  C   C454      1.0  0.02431  0.23001  0.65050  1.0000
  H   H743      1.0  0.18710  0.99093  0.51496  1.0000
  H   H744      1.0  0.13544  0.04778  0.54918  1.0000
  H   H745      1.0  0.12995  0.06842  0.54581  1.0000
  H   H746      1.0  0.13793  0.05803  0.56246  1.0000
  H   H747      1.0  0.21205  0.00061  0.50953  1.0000
  H   H748      1.0  0.07343  0.05965  0.59700  1.0000
  H   H749      1.0  0.08284  0.06942  0.57859  1.0000
  H   H750      1.0  0.11206  0.05622  0.60669  1.0000
  H   H751      1.0  0.11785  0.06736  0.58739  1.0000
  H   H752      1.0  0.13235  0.05563  0.59751  1.0000
  N   N33       1.0  0.21481  0.01086  0.52710  1.0000
  C   C455      1.0  0.19880  0.00771  0.53550  1.0000
  H   H753      1.0  0.16544  0.16659  0.70927  1.0000
  C   C456      1.0  0.21730  0.00993  0.51032  1.0000
  C   C457      1.0  0.21497  0.02697  0.52815  1.0000
  C   C458      1.0  0.18479  0.01869  0.52881  1.0000
  C   C459      1.0  0.11341  0.01395  0.58281  1.0000
  C   C460      1.0  0.23440  0.00647  0.50107  1.0000
  C   C461      1.0  0.23087  0.03186  0.52292  1.0000
  H   H754      1.0  0.01126  0.21197  0.58236  1.0000
  H   H755      1.0  0.19615  0.00861  0.54784  1.0000
  Fe  Fe63      1.0  0.00272  0.17103  0.67005  1.0000
  H   H756      1.0  0.35962  0.16439  0.49877  1.0000
  H   H757      1.0  0.36261  0.15976  0.72021  1.0000
  H   H758      1.0  0.21111  0.02089  0.50358  1.0000
  H   H759      1.0  0.20729  0.03589  0.52087  1.0000
  H   H760      1.0  0.20951  0.02904  0.54008  1.0000
  H   H761      1.0  0.18310  0.03080  0.53006  1.0000
  H   H762      1.0  0.18585  0.01856  0.51650  1.0000
  H   H763      1.0  0.17390  0.01466  0.53560  1.0000
  H   H764      1.0  0.02213  0.03688  0.70579  1.0000
  C   C462      1.0  0.26038  0.10292  0.48774  1.0000
  H   H765      1.0  0.05319  0.21122  0.65983  1.0000
  H   H766      1.0  0.35763  0.13757  0.50521  1.0000
  H   H767      1.0  0.04622  0.15769  0.65436  1.0000
  H   H768      1.0  0.38455  0.07816  0.65909  1.0000
  H   H769      1.0  0.23340  0.03694  0.51024  1.0000
  H   H770      1.0  0.24086  0.02244  0.52596  1.0000
  H   H771      1.0  0.23035  0.04090  0.52915  1.0000
  N   N34       1.0  0.22900  0.11387  0.61614  1.0000
  C   C463      1.0  0.21972  0.13037  0.61606  1.0000
  C   C464      1.0  0.22710  0.10499  0.63286  1.0000
  C   C465      1.0  0.22216  0.10689  0.60700  1.0000
  C   C466      1.0  0.24588  0.11457  0.60857  1.0000
  C   C467      1.0  0.21934  0.14121  0.59982  1.0000
  C   C468      1.0  0.23275  0.11130  0.64382  1.0000
  C   C469      1.0  0.22288  0.08918  0.61187  1.0000
  C   C470      1.0  0.25790  0.09893  0.60962  1.0000
  H   H772      1.0  0.20733  0.13040  0.62246  1.0000
  H   H773      1.0  0.22448  0.13626  0.62224  1.0000
  H   H774      1.0  0.23340  0.09262  0.63379  1.0000
  H   H775      1.0  0.21452  0.10468  0.63800  1.0000
  H   H776      1.0  0.20945  0.11226  0.60765  1.0000
  H   H777      1.0  0.22773  0.10949  0.59445  1.0000
  H   H778      1.0  0.24718  0.12000  0.59594  1.0000
  H   H779      1.0  0.24990  0.12225  0.61350  1.0000
  H   H780      1.0  0.23107  0.14365  0.59366  1.0000
  H   H781      1.0  0.21479  0.13662  0.59235  1.0000
  H   H782      1.0  0.21143  0.15264  0.60132  1.0000
  H   H783      1.0  0.24502  0.11272  0.63942  1.0000
  H   H784      1.0  0.22492  0.12245  0.64616  1.0000
  H   H785      1.0  0.23217  0.10295  0.65527  1.0000
  H   H786      1.0  0.21457  0.08622  0.62314  1.0000
  H   H787      1.0  0.23475  0.08209  0.61269  1.0000
  H   H788      1.0  0.21917  0.08561  0.60302  1.0000
  H   H789      1.0  0.25844  0.09283  0.62179  1.0000
  H   H790      1.0  0.26975  0.10120  0.60373  1.0000
  H   H791      1.0  0.25570  0.09129  0.60335  1.0000
  N   N35       1.0  0.04863  0.14887  0.61868  1.0000
  C   C471      1.0  0.04129  0.15367  0.63406  1.0000
  C   C472      1.0  0.03554  0.14798  0.61203  1.0000
  C   C473      1.0  0.05662  0.16156  0.60803  1.0000
  C   C474      1.0  0.06035  0.13353  0.62132  1.0000
  C   C475      1.0  0.05254  0.15663  0.64231  1.0000
  C   C476      1.0  0.02436  0.13755  0.62287  1.0000
  C   C477      1.0  0.06481  0.15930  0.59143  1.0000
  C   C478      1.0  0.06326  0.12274  0.61000  1.0000
  H   H792      1.0  0.03178  0.16437  0.63272  1.0000
  H   H793      1.0  0.03558  0.14454  0.64255  1.0000
  H   H794      1.0  0.04008  0.14381  0.60101  1.0000
  H   H795      1.0  0.02813  0.15980  0.60878  1.0000
  H   H796      1.0  0.04806  0.17302  0.60699  1.0000
  H   H797      1.0  0.06598  0.16296  0.61286  1.0000
  H   H798      1.0  0.07197  0.13552  0.62107  1.0000
  H   H799      1.0  0.05681  0.12635  0.63315  1.0000
  C   C479      1.0  0.30346  0.14077  0.68309  1.0000
  H   H800      1.0  0.37244  0.10660  0.71222  1.0000
  H   H801      1.0  0.20400  0.10093  0.47824  1.0000
  H   H802      1.0  0.01738  0.13506  0.61598  1.0000
  H   H803      1.0  0.03078  0.12627  0.62875  1.0000
  H   H804      1.0  0.01588  0.14358  0.63182  1.0000
  H   H805      1.0  0.21713  0.11663  0.48227  1.0000
  H   H806      1.0  0.07558  0.14987  0.59150  1.0000
  H   H807      1.0  0.06874  0.17013  0.58453  1.0000
  H   H808      1.0  0.05317  0.11734  0.61201  1.0000
  H   H809      1.0  0.07339  0.11302  0.61221  1.0000
  H   H810      1.0  0.06623  0.12854  0.59762  1.0000
  H   H811      1.0  0.24679  0.06131  0.47870  1.0000
  H   H812      1.0  0.20612  0.16936  0.69977  1.0000
  H   H813      1.0  0.38312  0.18942  0.66609  1.0000
  H   H814      1.0  0.09168  0.99379  0.63934  1.0000
  H   H815      1.0  0.34124  0.12482  0.53896  1.0000
  N   N36       1.0  0.06579  0.20129  0.67848  1.0000
  H   H816      1.0  0.15697  0.03265  0.56335  1.0000
  C   C480      1.0  0.39938  0.17708  0.69087  1.0000
  H   H817      1.0  0.09284  0.02488  0.68824  1.0000
  H   H818      1.0  0.22376  0.18251  0.70484  1.0000
  C   C481      1.0  0.15439  0.17089  0.71732  1.0000
  C   C482      1.0  0.03396  0.03110  0.70006  1.0000
  C   C483      1.0  0.36356  0.18900  0.68719  1.0000
  H   H819      1.0  0.28190  0.13781  0.68087  1.0000
  H   H820      1.0  0.13429  0.03715  0.58438  1.0000
  H   H821      1.0  0.38051  0.18688  0.70762  1.0000
  C   C484      1.0  0.36466  0.99678  0.71757  1.0000
  H   H822      1.0  0.32608  0.15126  0.52745  1.0000
  C   C485      1.0  0.31658  0.17802  0.70217  1.0000
  H   H823      1.0  0.35652  0.17493  0.51343  1.0000
  H   H824      1.0  0.31199  0.12415  0.61099  1.0000
  C   C486      1.0  0.06504  0.20456  0.66157  1.0000
  H   H825      1.0  0.45047  0.14924  0.66809  1.0000
  C   C487      1.0  0.44148  0.15091  0.70689  1.0000
  C   C488      1.0  0.38393  0.17611  0.70297  1.0000
  C   C489      1.0  0.41964  0.17456  0.65434  1.0000
  H   H826      1.0  0.36335  0.14172  0.55729  1.0000
  H   H827      1.0  0.05623  0.16780  0.63654  1.0000
  S   S129      1.0  0.01622  0.15092  0.68493  1.0000
  H   H828      1.0  0.33176  0.09421  0.64161  1.0000
  C   C490      1.0  0.35044  0.15153  0.53878  1.0000
  H   H829      1.0  0.16468  0.22366  0.63861  1.0000
  H   H830      1.0  0.06384  0.03873  0.62323  1.0000
  H   H831      1.0  0.43639  0.13026  0.66624  1.0000
  H   H832      1.0  0.39537  0.10525  0.69085  1.0000
  H   H833      1.0  0.38026  0.16045  0.52176  1.0000
  C   C491      1.0  0.18246  0.00350  0.58167  1.0000
  H   H834      1.0  0.12265  0.98948  0.62480  1.0000
  H   H835      1.0  0.39804  0.18743  0.68126  1.0000
  H   H836      1.0  0.41524  0.07062  0.67204  1.0000
  C   C492      1.0  0.06043  0.00742  0.68076  1.0000
  H   H837      1.0  0.23890  0.99901  0.52876  1.0000
  C   C493      1.0  0.22559  0.99795  0.55206  1.0000
  H   H838      1.0  0.41496  0.18694  0.65094  1.0000
  C   C494      1.0  0.05794  0.02386  0.66998  1.0000
  H   H839      1.0  0.18407  0.99130  0.58731  1.0000
  C   C495      1.0  0.14737  0.00219  0.61590  1.0000
  C   C496      1.0  0.06830  0.03432  0.68693  1.0000
  H   H840      1.0  0.32721  0.11508  0.71028  1.0000
  S   S130      1.0  0.99841  0.22571  0.67362  1.0000
  H   H841      1.0  0.44972  0.10110  0.69461  1.0000
  H   H842      1.0  0.36533  0.20337  0.66369  1.0000
  H   H843      1.0  0.06037  0.06123  0.66808  1.0000
  Fe  Fe64      1.0  0.99652  0.20610  0.66421  1.0000
  C   C497      1.0  0.35795  0.17018  0.71175  1.0000
  H   H844      1.0  0.23592  0.98949  0.55592  1.0000
  C   C498      1.0  0.30653  0.10333  0.66523  1.0000
  C   C499      1.0  0.04944  0.05720  0.65192  1.0000
  H   H845      1.0  0.36814  0.13058  0.52024  1.0000
  H   H846      1.0  0.21510  0.99383  0.55973  1.0000
  H   H847      1.0  0.46969  0.09189  0.71099  1.0000
  H   H848      1.0  0.13885  0.00522  0.60833  1.0000
  H   H849      1.0  0.14154  0.00607  0.62694  1.0000
  C   C500      1.0  0.31111  0.17260  0.71814  1.0000
  H   H850      1.0  0.38686  0.16638  0.71287  1.0000
  C   C501      1.0  0.11672  0.02917  0.57133  1.0000
  H   H851      1.0  0.06719  0.04489  0.69132  1.0000
  C   C502      1.0  0.35630  0.13638  0.51794  1.0000
  C   C503      1.0  0.05433  0.19106  0.68752  1.0000
  N   N37       1.0  0.27550  0.15602  0.69374  1.0000
  C   C504      1.0  0.26015  0.16345  0.68863  1.0000
  C   C505      1.0  0.28163  0.16893  0.69574  1.0000
  C   C506      1.0  0.27219  0.14465  0.70914  1.0000
  H   H852      1.0  0.27580  0.18787  0.67576  1.0000
  C   C507      1.0  0.08575  0.02916  0.67917  1.0000
  C   C508      1.0  0.28607  0.18112  0.68081  1.0000
  H   H853      1.0  0.17148  0.99524  0.49533  1.0000
  H   H854      1.0  0.04735  0.02541  0.66535  1.0000
  H   H855      1.0  0.25238  0.17129  0.69639  1.0000
  H   H856      1.0  0.13428  0.98701  0.64647  1.0000
  H   H857      1.0  0.29223  0.16440  0.70072  1.0000
  H   H858      1.0  0.27285  0.17524  0.70441  1.0000
  H   H859      1.0  0.07552  0.22532  0.65287  1.0000
  H   H860      1.0  0.22573  0.98659  0.53429  1.0000
  C   C509      1.0  0.12809  0.19722  0.68457  1.0000
  H   H861      1.0  0.09041  0.03902  0.67088  1.0000
  H   H862      1.0  0.05772  0.17990  0.68348  1.0000
  H   H863      1.0  0.33028  0.13463  0.72138  1.0000
  H   H864      1.0  0.39135  0.14442  0.70377  1.0000
  H   H865      1.0  0.29550  0.17577  0.67197  1.0000
  C   C510      1.0  0.31667  0.13995  0.62203  1.0000
  H   H866      1.0  0.19664  0.22442  0.64212  1.0000
  H   H867      1.0  0.36931  0.00188  0.70559  1.0000
  S   S131      1.0  0.10239  0.22158  0.68670  1.0000
  C   C511      1.0  0.12512  0.21627  0.66077  1.0000
  H   H868      1.0  0.00493  0.13480  0.66871  1.0000
  H   H869      1.0  0.14952  0.17935  0.68297  1.0000
  C   C512      1.0  0.11955  0.21090  0.67663  1.0000
  C   C513      1.0  0.07657  0.21412  0.64983  1.0000
  H   H870      1.0  0.31299  0.19022  0.69692  1.0000
  S   S132      1.0  0.46665  0.18369  0.69120  1.0000
  H   H871      1.0  0.41590  0.07120  0.69097  1.0000
  S   S133      1.0  0.08815  0.08110  0.62471  1.0000
  S   S134      1.0  0.17125  0.14726  0.68233  1.0000
  S   S135      1.0  0.12175  0.08045  0.63242  1.0000
  H   H872      1.0  0.28242  0.10759  0.51986  1.0000
  C   C514      1.0  0.01288  0.21841  0.58986  1.0000
  H   H873      1.0  0.08794  0.04175  0.57933  1.0000
  C   C515      1.0  0.05638  0.21642  0.70097  1.0000
  H   H874      1.0  0.40450  0.16631  0.68631  1.0000
  H   H875      1.0  0.03293  0.21007  0.68907  1.0000
  C   C516      1.0  0.06195  0.21664  0.68335  1.0000
  H   H876      1.0  0.28032  0.11673  0.64674  1.0000
  H   H877      1.0  0.36430  0.19941  0.69078  1.0000
  S   S136      1.0  0.18345  0.11137  0.65877  1.0000
  C   C517      1.0  0.30846  0.11666  0.65067  1.0000
  H   H878      1.0  0.22376  0.10434  0.51590  1.0000
  H   H879      1.0  0.08790  0.01961  0.67308  1.0000
  H   H880      1.0  0.06796  0.02335  0.65978  1.0000
  H   H881      1.0  0.38710  0.09623  0.64637  1.0000
  C   C518      1.0  0.04113  0.12790  0.67632  1.0000
  C   C519      1.0  0.37825  0.15862  0.51105  1.0000
  C   C520      1.0  0.36065  0.16304  0.51096  1.0000
  H   H882      1.0  0.33152  0.18412  0.51174  1.0000
  H   H883      1.0  0.04121  0.02723  0.70893  1.0000
  H   H884      1.0  0.02095  0.21289  0.62526  1.0000
  H   H885      1.0  0.30555  0.10772  0.67569  1.0000
  H   H886      1.0  0.28198  0.08454  0.54200  1.0000
  C   C521      1.0  0.02464  0.11670  0.66172  1.0000
  C   C522      1.0  0.03700  0.19823  0.68659  1.0000
  H   H887      1.0  0.19124  0.21569  0.62947  1.0000
  H   H888      1.0  0.34008  0.06663  0.70866  1.0000
  C   C523      1.0  0.16440  0.10827  0.66164  1.0000
  H   H889      1.0  0.28363  0.07943  0.52419  1.0000
  H   H890      1.0  0.25904  0.11527  0.48144  1.0000
  H   H891      1.0  0.30704  0.10680  0.49461  1.0000
  H   H892      1.0  0.41971  0.09760  0.66139  1.0000
  H   H893      1.0  0.29606  0.13208  0.62448  1.0000
  H   H894      1.0  0.30418  0.09909  0.62353  1.0000
  H   H895      1.0  0.33000  0.08603  0.61940  1.0000
  H   H896      1.0  0.33149  0.10482  0.60671  1.0000
  H   H897      1.0  0.31211  0.14483  0.63264  1.0000
  Fe  Fe65      1.0  0.10737  0.08962  0.65358  1.0000
  Fe  Fe66      1.0  0.10480  0.06446  0.63888  1.0000
  H   H898      1.0  0.01819  0.11229  0.65620  1.0000
  Fe  Fe67      1.0  0.07628  0.08990  0.64650  1.0000
  H   H899      1.0  0.42660  0.11005  0.72426  1.0000
  C   C524      1.0  0.16703  0.02689  0.56845  1.0000
  C   C525      1.0  0.36343  0.13922  0.54607  1.0000
  C   C526      1.0  0.16244  0.09663  0.65550  1.0000
  C   C527      1.0  0.13632  0.11406  0.67230  1.0000
  C   C528      1.0  0.15127  0.11706  0.66995  1.0000
  H   H900      1.0  0.15266  0.12599  0.67480  1.0000
  H   H901      1.0  0.11103  0.03076  0.56150  1.0000
  H   H902      1.0  0.22255  0.12131  0.52229  1.0000
  H   H903      1.0  0.04743  0.04781  0.64774  1.0000
  C   C529      1.0  0.42196  0.09082  0.67293  1.0000
  H   H904      1.0  0.39356  0.10547  0.66565  1.0000
  C   C530      1.0  0.33462  0.09663  0.61732  1.0000
  H   H905      1.0  0.34762  0.09289  0.61493  1.0000
  H   H906      1.0  0.27903  0.11285  0.62904  1.0000
  C   C531      1.0  0.17139  0.19516  0.69518  1.0000
  C   C532      1.0  0.17825  0.03516  0.56739  1.0000
  C   C533      1.0  0.41168  0.16386  0.65320  1.0000
  C   C534      1.0  0.37537  0.16082  0.68915  1.0000
  C   C535      1.0  0.06044  0.05110  0.66351  1.0000
  H   H907      1.0  0.12364  0.19279  0.69678  1.0000
  C   C536      1.0  0.14743  0.09381  0.65761  1.0000
  C   C537      1.0  0.13432  0.10248  0.66611  1.0000
  H   H908      1.0  0.12625  0.12068  0.67904  1.0000
  C   C538      1.0  0.25925  0.12551  0.50727  1.0000
  C   C539      1.0  0.24497  0.10422  0.52265  1.0000
  N   N38       1.0  0.31195  0.11223  0.63516  1.0000
  H   H909      1.0  0.05842  0.20488  0.70886  1.0000
  H   H910      1.0  0.35098  0.16306  0.54019  1.0000
  S   S137      1.0  0.11543  0.09862  0.67004  1.0000
  H   H911      1.0  0.11081  0.00668  0.64303  1.0000
  H   H912      1.0  0.38641  0.13630  0.69064  1.0000
  H   H913      1.0  0.29770  0.12610  0.65206  1.0000
  S   S138      1.0  0.11180  0.03869  0.63834  1.0000
  H   H914      1.0  0.14605  0.08463  0.65312  1.0000
  H   H915      1.0  0.25221  0.12996  0.49825  1.0000
  H   H916      1.0  0.23323  0.11890  0.50300  1.0000
  C   C540      1.0  0.32652  0.17539  0.52154  1.0000
  C   C541      1.0  0.32900  0.10396  0.63173  1.0000
  S   S139      1.0  0.04993  0.09478  0.65163  1.0000
  H   H917      1.0  0.40398  0.08261  0.65180  1.0000
  H   H918      1.0  0.43040  0.11393  0.69553  1.0000
  H   H919      1.0  0.08316  0.05146  0.62642  1.0000
  C   C542      1.0  0.04052  0.10990  0.66152  1.0000
  H   H920      1.0  0.14366  0.21297  0.64073  1.0000
  H   H921      1.0  0.33687  0.11177  0.63056  1.0000
  C   C543      1.0  0.02538  0.13501  0.67610  1.0000
  C   C544      1.0  0.04879  0.11552  0.66880  1.0000
  C   C545      1.0  0.41757  0.14785  0.65768  1.0000
  N   N39       1.0  0.35064  0.15218  0.52204  1.0000
  H   H922      1.0  0.06101  0.11022  0.66881  1.0000
  H   H923      1.0  0.43454  0.08477  0.67097  1.0000
  C   C546      1.0  0.30879  0.12678  0.62276  1.0000
  C   C547      1.0  0.28390  0.10777  0.63969  1.0000
  S   S140      1.0  0.09187  0.07220  0.66120  1.0000
  C   C548      1.0  0.01602  0.21069  0.60450  1.0000
  H   H924      1.0  0.07257  0.00071  0.67718  1.0000
  C   C549      1.0  0.43353  0.16936  0.65995  1.0000
  C   C550      1.0  0.17131  0.22929  0.64315  1.0000
  H   H925      1.0  0.28661  0.15533  0.66950  1.0000
  H   H926      1.0  0.17131  0.20587  0.68579  1.0000
  H   H927      1.0  0.26793  0.09597  0.47910  1.0000
  C   C551      1.0  0.08562  0.18659  0.69622  1.0000
  H   H928      1.0  0.24655  0.14499  0.69976  1.0000
  C   C552      1.0  0.18862  0.22629  0.63425  1.0000
  H   H929      1.0  0.27099  0.13353  0.70733  1.0000
  C   C553      1.0  0.32634  0.14671  0.71600  1.0000
  C   C554      1.0  0.28408  0.14037  0.71970  1.0000
  H   H930      1.0  0.17138  0.22217  0.65513  1.0000
  H   H931      1.0  0.35828  0.18591  0.72612  1.0000
  H   H932      1.0  0.14621  0.20075  0.70322  1.0000
  C   C555      1.0  0.22669  0.99829  0.53487  1.0000
  H   H933      1.0  0.48162  0.17830  0.72282  1.0000
  H   H934      1.0  0.29632  0.13631  0.71376  1.0000
  H   H935      1.0  0.09088  0.19990  0.67326  1.0000
  H   H936      1.0  0.08565  0.18218  0.67437  1.0000
  H   H937      1.0  0.14894  0.22616  0.67176  1.0000
  N   N40       1.0  0.15548  0.18481  0.72251  1.0000
  H   H938      1.0  0.11887  0.01123  0.59292  1.0000
  C   C556      1.0  0.43884  0.10771  0.71732  1.0000
  H   H939      1.0  0.11867  0.00412  0.57674  1.0000
  C   C557      1.0  0.47383  0.10185  0.71189  1.0000
  H   H940      1.0  0.06266  0.22365  0.70400  1.0000
  Fe  Fe68      1.0  0.48884  0.19141  0.67772  1.0000
  H   H941      1.0  0.42473  0.13673  0.71081  1.0000
  H   H942      1.0  0.15074  0.14723  0.72490  1.0000
  S   S141      1.0  0.40675  0.05214  0.72186  1.0000
  H   H943      1.0  0.18005  0.17425  0.72201  1.0000
  H   H944      1.0  0.47514  0.10036  0.72393  1.0000
  H   H945      1.0  0.28337  0.15034  0.72476  1.0000
  H   H946      1.0  0.30344  0.18065  0.72514  1.0000
  C   C558      1.0  0.31602  0.15695  0.72507  1.0000
  C   C559      1.0  0.15524  0.98467  0.61846  1.0000
  C   C560      1.0  0.49019  0.12954  0.72535  1.0000
  H   H947      1.0  0.12046  0.98375  0.60249  1.0000
  C   C561      1.0  0.19035  0.98311  0.50711  1.0000
  H   H948      1.0  0.43852  0.04569  0.72594  1.0000
  H   H949      1.0  0.17266  0.20441  0.72594  1.0000
  H   H950      1.0  0.36470  0.01637  0.72624  1.0000
  H   H951      1.0  0.13173  0.21428  0.72661  1.0000
  H   H952      1.0  0.30468  0.06880  0.80213  1.0000
  H   H953      1.0  0.26215  0.18907  0.80176  1.0000
  C   C562      1.0  0.29942  0.99829  0.80765  1.0000
  H   H954      1.0  0.37094  0.19254  0.92853  1.0000
  H   H955      1.0  0.29996  0.10654  0.74693  1.0000
  Fe  Fe69      1.0  0.28494  0.16192  0.75445  1.0000
  H   H956      1.0  0.39975  0.04027  0.79731  1.0000
  H   H957      1.0  0.30453  0.08863  0.76077  1.0000
  H   H958      1.0  0.28481  0.09917  0.76161  1.0000
  H   H959      1.0  0.29510  0.07869  0.78653  1.0000
  C   C563      1.0  0.39298  0.01228  0.80770  1.0000
  S   S142      1.0  0.35385  0.00777  0.75990  1.0000
  H   H960      1.0  0.34059  0.09617  0.83087  1.0000
  C   C564      1.0  0.43349  0.00064  0.80526  1.0000
  C   C565      1.0  0.48899  0.12181  0.74095  1.0000
  Fe  Fe70      1.0  0.36309  0.05529  0.76832  1.0000
  C   C566      1.0  0.41764  0.05063  0.78066  1.0000
  S   S143      1.0  0.36780  0.06061  0.78883  1.0000
  H   H961      1.0  0.32830  0.06871  0.85460  1.0000
  H   H962      1.0  0.45247  0.20293  0.91316  1.0000
  H   H963      1.0  0.32342  0.11498  0.78928  1.0000
  C   C567      1.0  0.29801  0.11058  0.76997  1.0000
  H   H964      1.0  0.42601  0.04962  0.76948  1.0000
  H   H965      1.0  0.28804  0.12991  0.79038  1.0000
  S   S144      1.0  0.37952  0.03520  0.75893  1.0000
  Fe  Fe71      1.0  0.45991  0.06957  0.76283  1.0000
  S   S145      1.0  0.43723  0.08302  0.75617  1.0000
  H   H966      1.0  0.34762  0.07147  0.85172  1.0000
  H   H967      1.0  0.32994  0.22505  0.97453  1.0000
  Fe  Fe72      1.0  0.38213  0.05216  0.73602  1.0000
  H   H968      1.0  0.30084  0.00588  0.76174  1.0000
  S   S146      1.0  0.47379  0.08341  0.76811  1.0000
  H   H969      1.0  0.32043  0.02361  0.78100  1.0000
  C   C568      1.0  0.44679  0.12233  0.73131  1.0000
  H   H970      1.0  0.39949  0.04114  0.77798  1.0000
  H   H971      1.0  0.43646  0.02395  0.79479  1.0000
  H   H972      1.0  0.41964  0.02291  0.80987  1.0000
  Fe  Fe73      1.0  0.25782  0.15691  0.78164  1.0000
  S   S147      1.0  0.25169  0.14360  0.80628  1.0000
  H   H973      1.0  0.49266  0.06763  0.83433  1.0000
  S   S148      1.0  0.24153  0.17852  0.77182  1.0000
  H   H974      1.0  0.34288  0.10419  0.74614  1.0000
  S   S149      1.0  0.47601  0.06572  0.81291  1.0000
  C   C569      1.0  0.32681  0.09882  0.76844  1.0000
  H   H975      1.0  0.33802  0.10290  0.88408  1.0000
  H   H976      1.0  0.22754  0.14864  0.74747  1.0000
  Fe  Fe74      1.0  0.27196  0.03718  0.87131  1.0000
  S   S150      1.0  0.28786  0.04450  0.88164  1.0000
  S   S151      1.0  0.25882  0.01831  0.88492  1.0000
  Fe  Fe75      1.0  0.27751  0.06076  0.84110  1.0000
  S   S152      1.0  0.29416  0.06996  0.84834  1.0000
  S   S153      1.0  0.27122  0.07017  0.81772  1.0000
  Fe  Fe76      1.0  0.30373  0.04487  0.85800  1.0000
  S   S154      1.0  0.32960  0.03602  0.85576  1.0000
  Fe  Fe77      1.0  0.27688  0.06904  0.87131  1.0000
  S   S155      1.0  0.26965  0.09052  0.88158  1.0000
  S   S156      1.0  0.28884  0.03557  0.84848  1.0000
  S   S157      1.0  0.25931  0.06177  0.86319  1.0000
  Fe  Fe78      1.0  0.32788  0.14455  0.92973  1.0000
  S   S158      1.0  0.30827  0.16574  0.92884  1.0000
  S   S159      1.0  0.34997  0.14679  0.93464  1.0000
  Fe  Fe79      1.0  0.30791  0.12396  0.92676  1.0000
  S   S160      1.0  0.28667  0.14360  0.92616  1.0000
  S   S161      1.0  0.30763  0.09947  0.92600  1.0000
  Fe  Fe80      1.0  0.30359  0.15772  0.90986  1.0000
  H   H977      1.0  0.46355  0.18033  0.73669  1.0000
  Fe  Fe81      1.0  0.29359  0.14947  0.94528  1.0000
  H   H978      1.0  0.34068  0.17891  0.73086  1.0000
  S   S162      1.0  0.32458  0.13771  0.90931  1.0000
  S   S163      1.0  0.31347  0.12866  0.94730  1.0000
  C   C570      1.0  0.47027  0.01453  0.75539  1.0000
  S   S164      1.0  0.48069  0.22904  0.92396  1.0000
  C   C571      1.0  0.25432  0.18510  0.81308  1.0000
  H   H979      1.0  0.41436  0.03589  0.75564  1.0000
  H   H980      1.0  0.40443  0.99535  0.75134  1.0000
  C   C572      1.0  0.33080  0.22978  0.87923  1.0000
  H   H981      1.0  0.31771  0.03749  0.80152  1.0000
  S   S165      1.0  0.30970  0.15010  0.74509  1.0000
  H   H982      1.0  0.33324  0.02056  0.80184  1.0000
  C   C573      1.0  0.34720  0.17376  0.91230  1.0000
  C   C574      1.0  0.35358  0.16534  0.92520  1.0000
  C   C575      1.0  0.27580  0.11484  0.96916  1.0000
  C   C576      1.0  0.25191  0.17580  0.84113  1.0000
  H   H983      1.0  0.32418  0.00067  0.77171  1.0000
  H   H984      1.0  0.34055  0.16860  0.90773  1.0000
  S   S166      1.0  0.34170  0.05044  0.76465  1.0000
  H   H985      1.0  0.46012  0.04560  0.84638  1.0000
  C   C577      1.0  0.27936  0.09263  0.89485  1.0000
  C   C578      1.0  0.28848  0.07979  0.90315  1.0000
  C   C579      1.0  0.29697  0.08203  0.91278  1.0000
  C   C580      1.0  0.29658  0.09709  0.91403  1.0000
  C   C581      1.0  0.28737  0.10991  0.90584  1.0000
  C   C582      1.0  0.27863  0.10767  0.89645  1.0000
  H   H986      1.0  0.28898  0.06816  0.90212  1.0000
  H   H987      1.0  0.30399  0.07205  0.91918  1.0000
  H   H988      1.0  0.28701  0.12158  0.90666  1.0000
  H   H989      1.0  0.27165  0.11766  0.89003  1.0000
  H   H990      1.0  0.31257  0.98696  0.78203  1.0000
  C   C583      1.0  0.48646  0.00938  0.81674  1.0000
  C   C584      1.0  0.25994  0.00483  0.86091  1.0000
  C   C585      1.0  0.25123  0.00939  0.87478  1.0000
  C   C586      1.0  0.23639  0.00600  0.88130  1.0000
  C   C587      1.0  0.23013  0.99836  0.87394  1.0000
  S   S167      1.0  0.45209  0.98354  0.74572  1.0000
  H   H991      1.0  0.27581  0.15683  0.81231  1.0000
  H   H992      1.0  0.22961  0.00946  0.89202  1.0000
  C   C588      1.0  0.40752  0.07474  0.73568  1.0000
  C   C589      1.0  0.25661  0.12321  0.80929  1.0000
  C   C590      1.0  0.25931  0.11439  0.82381  1.0000
  C   C591      1.0  0.26367  0.09810  0.82644  1.0000
  C   C592      1.0  0.26520  0.09054  0.81459  1.0000
  C   C593      1.0  0.26224  0.09932  0.80012  1.0000
  C   C594      1.0  0.25798  0.11567  0.79745  1.0000
  H   H993      1.0  0.25811  0.12017  0.83305  1.0000
  H   H994      1.0  0.26573  0.09144  0.83771  1.0000
  H   H995      1.0  0.26335  0.09351  0.79094  1.0000
  H   H996      1.0  0.25564  0.12244  0.78630  1.0000
  C   C595      1.0  0.35701  0.05322  0.80710  1.0000
  C   C596      1.0  0.34150  0.05207  0.80915  1.0000
  C   C597      1.0  0.33287  0.04692  0.82415  1.0000
  C   C598      1.0  0.34001  0.04238  0.83692  1.0000
  C   C599      1.0  0.35559  0.04327  0.83477  1.0000
  C   C600      1.0  0.36398  0.04897  0.81993  1.0000
  H   H997      1.0  0.33610  0.05549  0.79924  1.0000
  H   H998      1.0  0.32076  0.04634  0.82585  1.0000
  H   H999      1.0  0.36107  0.03985  0.84465  1.0000
  H   H1000     1.0  0.37591  0.05002  0.81839  1.0000
  C   C601      1.0  0.30766  0.09252  0.79295  1.0000
  H   H1001     1.0  0.30130  0.13668  0.79664  1.0000
  H   H1002     1.0  0.38991  0.00077  0.81321  1.0000
  C   C602      1.0  0.42971  0.07498  0.74530  1.0000
  C   C603      1.0  0.41431  0.08140  0.74346  1.0000
  H   H1003     1.0  0.21853  0.99601  0.87899  1.0000
  C   C604      1.0  0.33243  0.11043  0.75344  1.0000
  H   H1004     1.0  0.40981  0.06241  0.77886  1.0000
  H   H1005     1.0  0.40745  0.09126  0.74847  1.0000
  C   C605      1.0  0.13591  0.20593  0.73677  1.0000
  H   H1006     1.0  0.25302  0.02347  0.80922  1.0000
  S   S168      1.0  0.27636  0.15734  0.96615  1.0000
  C   C606      1.0  0.42017  0.02340  0.75807  1.0000
  H   H1007     1.0  0.28731  0.19969  0.77818  1.0000
  C   C607      1.0  0.16967  0.18014  0.72960  1.0000
  H   H1008     1.0  0.28932  0.19136  0.90932  1.0000
  C   C608      1.0  0.30594  0.07709  0.79065  1.0000
  S   S169      1.0  0.36068  0.21458  0.90192  1.0000
  C   C609      1.0  0.42708  0.19876  0.93495  1.0000
  C   C610      1.0  0.31315  0.11847  0.78369  1.0000
  C   C611      1.0  0.40501  0.01128  0.79213  1.0000
  H   H1009     1.0  0.29673  0.11833  0.80674  1.0000
  S   S170      1.0  0.25626  0.21369  0.77140  1.0000
  H   H1010     1.0  0.43328  0.00617  0.77341  1.0000
  H   H1011     1.0  0.41192  0.01608  0.75913  1.0000
  H   H1012     1.0  0.29216  0.01121  0.82637  1.0000
  C   C612      1.0  0.23805  0.19619  0.81289  1.0000
  H   H1013     1.0  0.22871  0.02401  0.84013  1.0000
  S   S171      1.0  0.36695  0.07256  0.74580  1.0000
  C   C613      1.0  0.40760  0.03828  0.78599  1.0000
  H   H1014     1.0  0.13032  0.18736  0.73116  1.0000
  C   C614      1.0  0.29888  0.12605  0.79502  1.0000
  H   H1015     1.0  0.32721  0.22183  0.89050  1.0000
  H   H1016     1.0  0.31689  0.08954  0.79982  1.0000
  H   H1017     1.0  0.34810  0.16316  0.96502  1.0000
  C   C615      1.0  0.49103  0.00251  0.84317  1.0000
  H   H1018     1.0  0.30254  0.20761  0.79234  1.0000
  N   N41       1.0  0.31126  0.10490  0.77850  1.0000
  H   H1019     1.0  0.25374  0.18157  0.86225  1.0000
  H   H1020     1.0  0.34126  0.11912  0.86849  1.0000
  C   C616      1.0  0.42639  0.01804  0.79950  1.0000
  H   H1021     1.0  0.12590  0.20682  0.74696  1.0000
  H   H1022     1.0  0.47615  0.16942  0.75870  1.0000
  H   H1023     1.0  0.29851  0.12238  0.76246  1.0000
  H   H1024     1.0  0.39742  0.01526  0.81634  1.0000
  H   H1025     1.0  0.38210  0.02112  0.80571  1.0000
  H   H1026     1.0  0.28658  0.11219  0.77835  1.0000
  H   H1027     1.0  0.29640  0.09682  0.80071  1.0000
  H   H1028     1.0  0.43745  0.02478  0.76936  1.0000
  H   H1029     1.0  0.42407  0.05006  0.78955  1.0000
  H   H1030     1.0  0.31564  0.12813  0.77356  1.0000
  H   H1031     1.0  0.42953  0.02145  0.74761  1.0000
  H   H1032     1.0  0.45283  0.11111  0.73782  1.0000
  Fe  Fe82      1.0  0.25185  0.17110  0.74900  1.0000
  C   C617      1.0  0.29708  0.10049  0.75934  1.0000
  C   C618      1.0  0.41766  0.19178  0.95097  1.0000
  H   H1033     1.0  0.39783  0.01429  0.78323  1.0000
  N   N42       1.0  0.41662  0.02160  0.78752  1.0000
  S   S172      1.0  0.36261  0.04704  0.72895  1.0000
  H   H1034     1.0  0.47843  0.09585  0.79245  1.0000
  H   H1035     1.0  0.30132  0.02666  0.79318  1.0000
  H   H1036     1.0  0.47096  0.02962  0.85787  1.0000
  N   N43       1.0  0.23137  0.04722  0.82692  1.0000
  C   C619      1.0  0.23412  0.05378  0.83915  1.0000
  C   C620      1.0  0.24064  0.05432  0.81143  1.0000
  C   C621      1.0  0.23741  0.02974  0.83075  1.0000
  C   C622      1.0  0.21398  0.05125  0.82758  1.0000
  C   C623      1.0  0.22647  0.04723  0.85617  1.0000
  C   C624      1.0  0.23537  0.07211  0.80578  1.0000
  C   C625      1.0  0.32026  0.02456  0.80396  1.0000
  C   C626      1.0  0.20852  0.04734  0.81487  1.0000
  H   H1037     1.0  0.24694  0.05183  0.83850  1.0000
  H   H1038     1.0  0.22962  0.06661  0.83723  1.0000
  H   H1039     1.0  0.24046  0.04913  0.80192  1.0000
  H   H1040     1.0  0.25329  0.05169  0.81176  1.0000
  H   H1041     1.0  0.24820  0.02683  0.83544  1.0000
  H   H1042     1.0  0.27553  0.11567  0.93997  1.0000
  H   H1043     1.0  0.20770  0.04498  0.83879  1.0000
  H   H1044     1.0  0.20882  0.06376  0.82786  1.0000
  H   H1045     1.0  0.21349  0.05069  0.85844  1.0000
  H   H1046     1.0  0.23023  0.03442  0.85959  1.0000
  H   H1047     1.0  0.23017  0.05213  0.86406  1.0000
  H   H1048     1.0  0.23723  0.07874  0.81333  1.0000
  H   H1049     1.0  0.24269  0.07574  0.79406  1.0000
  H   H1050     1.0  0.22299  0.07561  0.80461  1.0000
  H   H1051     1.0  0.28002  0.22003  0.90641  1.0000
  H   H1052     1.0  0.23264  0.02365  0.81087  1.0000
  C   C627      1.0  0.27328  0.20219  0.83541  1.0000
  H   H1053     1.0  0.20654  0.03528  0.81844  1.0000
  H   H1054     1.0  0.21655  0.04889  0.80333  1.0000
  H   H1055     1.0  0.19727  0.05556  0.81304  1.0000
  C   C628      1.0  0.47650  0.00572  0.76829  1.0000
  C   C629      1.0  0.48457  0.09397  0.80159  1.0000
  C   C630      1.0  0.24197  0.02104  0.81737  1.0000
  C   C631      1.0  0.32913  0.19115  0.96056  1.0000
  C   C632      1.0  0.15115  0.15654  0.73034  1.0000
  C   C633      1.0  0.26125  0.23220  0.78759  1.0000
  H   H1056     1.0  0.30935  0.99560  0.82822  1.0000
  Fe  Fe83      1.0  0.48254  0.03922  0.77093  1.0000
  H   H1057     1.0  0.47111  0.99301  0.83050  1.0000
  Fe  Fe84      1.0  0.34713  0.06595  0.74103  1.0000
  S   S173      1.0  0.38700  0.22233  0.92640  1.0000
  H   H1058     1.0  0.29927  0.02184  0.77008  1.0000
  C   C634      1.0  0.39952  0.99115  0.74386  1.0000
  C   C635      1.0  0.29942  0.00922  0.77292  1.0000
  N   N44       1.0  0.31368  0.00240  0.79570  1.0000
  C   C636      1.0  0.45870  0.18241  0.94128  1.0000
  H   H1059     1.0  0.14543  0.20962  0.73918  1.0000
  C   C637      1.0  0.25807  0.17172  0.85619  1.0000
  C   C638      1.0  0.29099  0.21446  0.79105  1.0000
  H   H1060     1.0  0.22903  0.19263  0.82326  1.0000
  H   H1061     1.0  0.28475  0.18081  0.81160  1.0000
  H   H1062     1.0  0.27469  0.15080  0.83309  1.0000
  H   H1063     1.0  0.24965  0.16502  0.83956  1.0000
  C   C639      1.0  0.43862  0.06234  0.73864  1.0000
  H   H1064     1.0  0.29495  0.09550  0.96168  1.0000
  C   C640      1.0  0.28467  0.22776  0.79744  1.0000
  H   H1065     1.0  0.35165  0.09411  0.85935  1.0000
  H   H1066     1.0  0.24938  0.20575  0.83351  1.0000
  C   C641      1.0  0.28341  0.21495  0.89629  1.0000
  C   C642      1.0  0.34963  0.18879  0.90506  1.0000
  H   H1067     1.0  0.39028  0.00102  0.73968  1.0000
  C   C643      1.0  0.43736  0.22527  0.90758  1.0000
  H   H1068     1.0  0.44108  0.99959  0.81330  1.0000
  H   H1069     1.0  0.47945  0.98362  0.78450  1.0000
  H   H1070     1.0  0.28120  0.12418  0.96054  1.0000
  H   H1071     1.0  0.26332  0.20774  0.81564  1.0000
  C   C644      1.0  0.33283  0.07626  0.87954  1.0000
  H   H1072     1.0  0.45708  0.21794  0.91852  1.0000
  H   H1073     1.0  0.27721  0.09612  0.94952  1.0000
  C   C645      1.0  0.42759  0.01875  0.77237  1.0000
  H   H1074     1.0  0.41096  0.99887  0.79215  1.0000
  H   H1075     1.0  0.23844  0.20851  0.81159  1.0000
  H   H1076     1.0  0.33623  0.09483  0.77520  1.0000
  S   S174      1.0  0.27768  0.16858  0.77759  1.0000
  H   H1077     1.0  0.42428  0.99404  0.81192  1.0000
  H   H1078     1.0  0.34250  0.22371  0.87354  1.0000
  H   H1079     1.0  0.31629  0.07137  0.78296  1.0000
  H   H1080     1.0  0.33900  0.99588  0.79089  1.0000
  H   H1081     1.0  0.49195  0.11583  0.79285  1.0000
  C   C646      1.0  0.26122  0.20020  0.82749  1.0000
  C   C647      1.0  0.22290  0.15311  0.73704  1.0000
  C   C648      1.0  0.33463  0.10968  0.87298  1.0000
  H   H1082     1.0  0.48611  0.00484  0.86737  1.0000
  H   H1083     1.0  0.31507  0.02058  0.81639  1.0000
  H   H1084     1.0  0.27147  0.00733  0.85589  1.0000
  H   H1085     1.0  0.44101  0.99508  0.79560  1.0000
  H   H1086     1.0  0.33966  0.07835  0.82739  1.0000
  H   H1087     1.0  0.32491  0.20286  0.96348  1.0000
  H   H1088     1.0  0.29700  0.10632  0.85040  1.0000
  H   H1089     1.0  0.34568  0.07284  0.87919  1.0000
  H   H1090     1.0  0.48068  0.15594  0.74669  1.0000
  Fe  Fe85      1.0  0.37067  0.22499  0.94925  1.0000
  H   H1091     1.0  0.32735  0.05548  0.89659  1.0000
  H   H1092     1.0  0.40930  0.20099  0.95667  1.0000
  N   N45       1.0  0.26244  0.11257  0.96384  1.0000
  H   H1093     1.0  0.24422  0.00828  0.82232  1.0000
  H   H1094     1.0  0.27274  0.08036  0.97168  1.0000
  H   H1095     1.0  0.44751  0.22792  0.94925  1.0000
  H   H1096     1.0  0.23413  0.19580  0.80256  1.0000
  H   H1097     1.0  0.41044  0.18462  0.94928  1.0000
  H   H1098     1.0  0.20928  0.13553  0.74245  1.0000
  H   H1099     1.0  0.46112  0.01121  0.81970  1.0000
  H   H1100     1.0  0.26206  0.09897  0.93176  1.0000
  C   C649      1.0  0.28870  0.19873  0.89795  1.0000
  H   H1101     1.0  0.30517  0.17438  0.97245  1.0000
  S   S175      1.0  0.26638  0.14831  0.75937  1.0000
  S   S176      1.0  0.29891  0.17184  0.88660  1.0000
  C   C650      1.0  0.24373  0.13600  0.97496  1.0000
  C   C651      1.0  0.47621  0.18015  0.73479  1.0000
  H   H1102     1.0  0.36746  0.16549  0.94077  1.0000
  H   H1103     1.0  0.16806  0.17102  0.74046  1.0000
  C   C652      1.0  0.48326  0.16692  0.74730  1.0000
  H   H1104     1.0  0.14125  0.18119  0.74599  1.0000
  C   C653      1.0  0.35604  0.99843  0.74479  1.0000
  H   H1105     1.0  0.23991  0.18316  0.84381  1.0000
  C   C654      1.0  0.49169  0.19913  0.92065  1.0000
  Fe  Fe86      1.0  0.35863  0.03183  0.75296  1.0000
  C   C655      1.0  0.36234  0.17205  0.93092  1.0000
  H   H1106     1.0  0.28795  0.00697  0.78013  1.0000
  H   H1107     1.0  0.28593  0.22521  0.85717  1.0000
  C   C656      1.0  0.25622  0.10600  0.94077  1.0000
  C   C657      1.0  0.32881  0.99256  0.80006  1.0000
  H   H1108     1.0  0.31472  0.06278  0.88311  1.0000
  H   H1109     1.0  0.29092  0.99100  0.83258  1.0000
  H   H1110     1.0  0.34186  0.19028  0.95527  1.0000
  H   H1111     1.0  0.32680  0.08835  0.76466  1.0000
  C   C658      1.0  0.36432  0.18732  0.92400  1.0000
  C   C659      1.0  0.47215  0.00217  0.81968  1.0000
  H   H1112     1.0  0.31018  0.22727  0.92152  1.0000
  C   C660      1.0  0.41607  0.06168  0.72965  1.0000
  C   C661      1.0  0.28916  0.10050  0.97211  1.0000
  H   H1113     1.0  0.48105  0.12737  0.75003  1.0000
  H   H1114     1.0  0.42143  0.13424  0.73587  1.0000
  C   C662      1.0  0.46762  0.98350  0.76724  1.0000
  C   C663      1.0  0.25390  0.99654  0.85387  1.0000
  C   C664      1.0  0.47234  0.02695  0.83425  1.0000
  H   H1115     1.0  0.47366  0.99647  0.80994  1.0000
  H   H1116     1.0  0.33611  0.11991  0.75592  1.0000
  H   H1117     1.0  0.33472  0.05244  0.87724  1.0000
  H   H1118     1.0  0.16846  0.19414  0.74608  1.0000
  H   H1119     1.0  0.28534  0.20009  0.82810  1.0000
  H   H1120     1.0  0.42334  0.21814  0.95444  1.0000
  C   C665      1.0  0.27827  0.17481  0.82288  1.0000
  C   C666      1.0  0.28660  0.21791  0.86857  1.0000
  H   H1121     1.0  0.46274  0.02051  0.83963  1.0000
  H   H1122     1.0  0.32177  0.09092  0.83399  1.0000
  H   H1123     1.0  0.45399  0.13061  0.73067  1.0000
  H   H1124     1.0  0.32255  0.23144  0.87168  1.0000
  H   H1125     1.0  0.18739  0.18963  0.73337  1.0000
  H   H1126     1.0  0.25059  0.11760  0.93464  1.0000
  C   C667      1.0  0.42904  0.22198  0.94205  1.0000
  C   C668      1.0  0.32137  0.19156  0.94740  1.0000
  S   S177      1.0  0.48047  0.05619  0.74822  1.0000
  C   C669      1.0  0.33887  0.09955  0.86078  1.0000
  H   H1127     1.0  0.47150  0.02644  0.75064  1.0000
  H   H1128     1.0  0.44434  0.19661  0.95756  1.0000
  C   C670      1.0  0.35805  0.19564  0.91098  1.0000
  S   S178      1.0  0.23058  0.98342  0.85188  1.0000
  C   C671      1.0  0.32696  0.06095  0.88422  1.0000
  C   C672      1.0  0.33517  0.07781  0.85199  1.0000
  H   H1129     1.0  0.34486  0.19512  0.89494  1.0000
  H   H1130     1.0  0.30044  0.11844  0.86071  1.0000
  H   H1131     1.0  0.32341  0.11545  0.74634  1.0000
  H   H1132     1.0  0.42739  0.22127  0.90640  1.0000
  C   C673      1.0  0.17452  0.19294  0.73401  1.0000
  H   H1133     1.0  0.25286  0.17354  0.81271  1.0000
  C   C674      1.0  0.26867  0.10744  0.94854  1.0000
  C   C675      1.0  0.33412  0.08665  0.83523  1.0000
  C   C676      1.0  0.29281  0.19210  0.88492  1.0000
  H   H1134     1.0  0.29302  0.15221  0.81980  1.0000
  H   H1135     1.0  0.32747  0.08211  0.88955  1.0000
  H   H1136     1.0  0.13969  0.15906  0.73851  1.0000
  S   S179      1.0  0.32877  0.08556  0.73169  1.0000
  C   C677      1.0  0.25145  0.12834  0.96080  1.0000
  H   H1137     1.0  0.24129  0.10394  0.97478  1.0000
  S   S180      1.0  0.37541  0.20963  0.97188  1.0000
  H   H1138     1.0  0.45928  0.20482  0.94359  1.0000
  H   H1139     1.0  0.28494  0.17438  0.83151  1.0000
  C   C678      1.0  0.46275  0.00773  0.74836  1.0000
  H   H1140     1.0  0.41822  0.20606  0.92818  1.0000
  H   H1141     1.0  0.46898  0.03530  0.82365  1.0000
  H   H1142     1.0  0.27056  0.21447  0.83659  1.0000
  C   C679      1.0  0.44999  0.19849  0.94494  1.0000
  H   H1143     1.0  0.27310  0.19479  0.84721  1.0000
  Fe  Fe87      1.0  0.26206  0.18971  0.76626  1.0000
  H   H1144     1.0  0.29512  0.19665  0.86013  1.0000
  C   C680      1.0  0.26750  0.21886  0.78129  1.0000
  C   C681      1.0  0.47135  0.03673  0.84590  1.0000
  H   H1145     1.0  0.41924  0.22863  0.93612  1.0000
  H   H1146     1.0  0.42525  0.18408  0.95892  1.0000
  H   H1147     1.0  0.29804  0.98652  0.80788  1.0000
  H   H1148     1.0  0.24151  0.12765  0.95635  1.0000
  H   H1149     1.0  0.43325  0.18911  0.92878  1.0000
  C   C682      1.0  0.28238  0.20994  0.78309  1.0000
  C   C683      1.0  0.29182  0.20173  0.87024  1.0000
  C   C684      1.0  0.47496  0.99032  0.77432  1.0000
  C   C685      1.0  0.48478  0.08036  0.81328  1.0000
  N   N46       1.0  0.43828  0.20809  0.93518  1.0000
  H   H1150     1.0  0.25333  0.07944  0.97104  1.0000
  H   H1151     1.0  0.39563  0.07976  0.73442  1.0000
  H   H1152     1.0  0.32478  0.20086  0.93724  1.0000
  H   H1153     1.0  0.25382  0.16140  0.86411  1.0000
  C   C686      1.0  0.28031  0.15773  0.82202  1.0000
  H   H1154     1.0  0.25762  0.13680  0.95156  1.0000
  H   H1155     1.0  0.30838  0.19432  0.95085  1.0000
  C   C687      1.0  0.36195  0.00503  0.72926  1.0000
  H   H1156     1.0  0.30576  0.08483  0.86743  1.0000
  C   C688      1.0  0.31319  0.99920  0.78053  1.0000
  H   H1157     1.0  0.27098  0.16819  0.85441  1.0000
  N   N47       1.0  0.32954  0.08718  0.86447  1.0000
  C   C689      1.0  0.31212  0.09384  0.86681  1.0000
  S   S181      1.0  0.24017  0.17613  0.72874  1.0000
  H   H1158     1.0  0.32540  0.18056  0.94322  1.0000
  C   C690      1.0  0.39318  0.22975  0.97115  1.0000
  N   N48       1.0  0.26156  0.18387  0.82650  1.0000
  H   H1159     1.0  0.45813  0.01444  0.73823  1.0000
  H   H1160     1.0  0.23530  0.14698  0.97134  1.0000
  H   H1161     1.0  0.30770  0.09710  0.87830  1.0000
  H   H1162     1.0  0.32200  0.11538  0.87535  1.0000
  Fe  Fe88      1.0  0.47673  0.06402  0.78885  1.0000
  H   H1163     1.0  0.46780  0.17710  0.94833  1.0000
  C   C691      1.0  0.43182  0.05577  0.73068  1.0000
  H   H1164     1.0  0.33785  0.10774  0.84952  1.0000
  C   C692      1.0  0.23894  0.99331  0.86040  1.0000
  C   C693      1.0  0.49043  0.20975  0.92960  1.0000
  S   S182      1.0  0.34883  0.22706  0.94130  1.0000
  H   H1165     1.0  0.48067  0.99712  0.84844  1.0000
  C   C694      1.0  0.44708  0.21310  0.91872  1.0000
  Fe  Fe89      1.0  0.36496  0.22679  0.91790  1.0000
  H   H1166     1.0  0.40877  0.98880  0.73353  1.0000
  H   H1167     1.0  0.26065  0.99298  0.84324  1.0000
  S   S183      1.0  0.46073  0.05147  0.78498  1.0000
  C   C695      1.0  0.43060  0.12677  0.74211  1.0000
  H   H1168     1.0  0.46487  0.18329  0.92892  1.0000
  H   H1169     1.0  0.45058  0.05742  0.73993  1.0000
  C   C696      1.0  0.30622  0.10851  0.85486  1.0000
  H   H1170     1.0  0.42638  0.11619  0.74932  1.0000
  H   H1171     1.0  0.33050  0.99470  0.81075  1.0000
  S   S184      1.0  0.27116  0.18416  0.74256  1.0000
  H   H1172     1.0  0.48612  0.01864  0.80590  1.0000
  H   H1173     1.0  0.31517  0.11238  0.84469  1.0000
  H   H1174     1.0  0.28852  0.00607  0.80433  1.0000
  C   C697      1.0  0.31349  0.01953  0.79289  1.0000
  N   N49       1.0  0.32674  0.17837  0.97494  1.0000
  H   H1175     1.0  0.24712  0.10014  0.94911  1.0000
  H   H1176     1.0  0.28103  0.13077  0.72967  1.0000
  S   S185      1.0  0.48727  0.01323  0.77643  1.0000
  C   C698      1.0  0.14062  0.18907  0.73437  1.0000
  H   H1177     1.0  0.44502  0.22750  0.89580  1.0000
  H   H1178     1.0  0.43164  0.13359  0.74996  1.0000
  C   C699      1.0  0.46148  0.99218  0.75428  1.0000
  C   C700      1.0  0.49247  0.07813  0.82525  1.0000
  H   H1179     1.0  0.29842  0.10415  0.97515  1.0000
  H   H1180     1.0  0.45074  0.17426  0.94441  1.0000
  C   C701      1.0  0.21261  0.14567  0.73414  1.0000
  C   C702      1.0  0.28223  0.22453  0.88161  1.0000
  H   H1181     1.0  0.48476  0.15018  0.77780  1.0000
  C   C703      1.0  0.33563  0.16298  0.97081  1.0000
  H   H1182     1.0  0.29901  0.20297  0.97517  1.0000
  N   N50       1.0  0.48773  0.01589  0.82972  1.0000
  H   H1183     1.0  0.16068  0.15153  0.73684  1.0000
  C   C704      1.0  0.29805  0.99927  0.82453  1.0000
  H   H1184     1.0  0.47703  0.19179  0.73550  1.0000
  H   H1185     1.0  0.48674  0.20292  0.91041  1.0000
  H   H1186     1.0  0.33096  0.16064  0.96187  1.0000
  H   H1187     1.0  0.35572  0.18588  0.97338  1.0000
  H   H1188     1.0  0.48069  0.04339  0.84243  1.0000
  C   C705      1.0  0.49214  0.10531  0.80187  1.0000
  C   C706      1.0  0.35267  0.98363  0.74856  1.0000
  S   S186      1.0  0.29557  0.23303  0.80757  1.0000
  C   C707      1.0  0.25359  0.10146  0.97624  1.0000
  H   H1189     1.0  0.49342  0.18338  0.75922  1.0000
  C   C708      1.0  0.26009  0.08382  0.97671  1.0000
  Fe  Fe90      1.0  0.38217  0.26489  0.05043  1.0000
  H   H1190     1.0  0.02101  0.40134  0.21931  1.0000
  S   S187      1.0  0.37637  0.28985  0.05217  1.0000
  H   H1191     1.0  0.44322  0.31747  0.03826  1.0000
  H   H1192     1.0  0.39781  0.24485  0.15191  1.0000
  H   H1193     1.0  0.13543  0.42975  0.04781  1.0000
  C   C709      1.0  0.08541  0.42311  0.97886  1.0000
  H   H1194     1.0  0.43295  0.31134  0.00150  1.0000
  C   C710      1.0  0.40172  0.24054  0.11921  1.0000
  C   C711      1.0  0.18269  0.45262  0.98974  1.0000
  S   S188      1.0  0.37119  0.25973  0.03393  1.0000
  H   H1195     1.0  0.30180  0.47733  0.14881  1.0000
  Fe  Fe91      1.0  0.29480  0.25709  0.14181  1.0000
  S   S189      1.0  0.28872  0.24131  0.16526  1.0000
  S   S190      1.0  0.30416  0.27907  0.13425  1.0000
  H   H1196     1.0  0.47598  0.31938  0.14594  1.0000
  H   H1197     1.0  0.15527  0.40410  0.00440  1.0000
  H   H1198     1.0  0.08383  0.41612  0.99059  1.0000
  Fe  Fe92      1.0  0.26619  0.24338  0.15843  1.0000
  S   S191      1.0  0.24338  0.24342  0.17605  1.0000
  C   C712      1.0  0.25468  0.46615  0.03786  1.0000
  S   S192      1.0  0.27128  0.26082  0.13621  1.0000
  C   C713      1.0  0.10176  0.35505  0.02653  1.0000
  H   H1199     1.0  0.42442  0.26556  0.01624  1.0000
  C   C714      1.0  0.33104  0.24625  0.98022  1.0000
  H   H1200     1.0  0.38916  0.28945  0.99826  1.0000
  H   H1201     1.0  0.36950  0.25585  0.99459  1.0000
  S   S193      1.0  0.02162  0.39975  0.14496  1.0000
  H   H1202     1.0  0.21132  0.42662  0.01589  1.0000
  Fe  Fe93      1.0  0.19705  0.41750  0.05880  1.0000
  S   S194      1.0  0.22089  0.42132  0.04592  1.0000
  S   S195      1.0  0.18975  0.39562  0.06051  1.0000
  Fe  Fe94      1.0  0.20844  0.44592  0.03811  1.0000
  H   H1203     1.0  0.08896  0.34103  0.02155  1.0000
  Fe  Fe95      1.0  0.22109  0.42937  0.06683  1.0000
  S   S196      1.0  0.24221  0.41834  0.07723  1.0000
  S   S197      1.0  0.19815  0.42342  0.08046  1.0000
  Fe  Fe96      1.0  0.11272  0.36575  0.05754  1.0000
  S   S198      1.0  0.09475  0.38381  0.06907  1.0000
  S   S199      1.0  0.11972  0.37223  0.03133  1.0000
  Fe  Fe97      1.0  0.11899  0.34521  0.08878  1.0000
  S   S200      1.0  0.10128  0.36170  0.10247  1.0000
  S   S201      1.0  0.13225  0.32471  0.10363  1.0000
  Fe  Fe98      1.0  0.08633  0.36345  0.08603  1.0000
  S   S202      1.0  0.06086  0.36251  0.09296  1.0000
  Fe  Fe99      1.0  0.11167  0.38013  0.08415  1.0000
  S   S203      1.0  0.11772  0.40009  0.08941  1.0000
  S   S204      1.0  0.10320  0.34539  0.07358  1.0000
  S   S205      1.0  0.13036  0.36357  0.07131  1.0000
  Fe  Fe100     1.0  0.19677  0.32790  0.17115  1.0000
  S   S206      1.0  0.21298  0.33124  0.14772  1.0000
  S   S207      1.0  0.19600  0.30590  0.18953  1.0000
  Fe  Fe101     1.0  0.17771  0.36072  0.16552  1.0000
  S   S208      1.0  0.19199  0.36713  0.14141  1.0000
  S   S209      1.0  0.15854  0.37792  0.17732  1.0000
  Fe  Fe102     1.0  0.19114  0.34370  0.13896  1.0000
  S   S210      1.0  0.19070  0.34056  0.11567  1.0000
  Fe  Fe103     1.0  0.21279  0.35436  0.15182  1.0000
  S   S211      1.0  0.23501  0.36338  0.14203  1.0000
  S   S212      1.0  0.17476  0.33851  0.16202  1.0000
  S   S213      1.0  0.19866  0.34981  0.17630  1.0000
  H   H1204     1.0  0.05952  0.36509  0.03066  1.0000
  S   S214      1.0  0.08962  0.36638  0.19792  1.0000
  Fe  Fe104     1.0  0.27936  0.44933  0.11970  1.0000
  S   S215      1.0  0.25788  0.45835  0.13638  1.0000
  S   S216      1.0  0.27717  0.45943  0.09490  1.0000
  Fe  Fe105     1.0  0.29546  0.42917  0.14548  1.0000
  S   S217      1.0  0.27504  0.43674  0.16423  1.0000
  S   S218      1.0  0.31582  0.41123  0.15379  1.0000
  Fe  Fe106     1.0  0.26032  0.43366  0.14973  1.0000
  S   S219      1.0  0.23882  0.42350  0.16073  1.0000
  Fe  Fe107     1.0  0.27455  0.46072  0.14910  1.0000
  S   S220      1.0  0.28071  0.42425  0.13213  1.0000
  S   S221      1.0  0.29612  0.45354  0.13134  1.0000
  S   S222      1.0  0.45409  0.37942  0.13037  1.0000
  Fe  Fe108     1.0  0.39471  0.32757  0.14107  1.0000
  S   S223      1.0  0.39503  0.33878  0.11594  1.0000
  S   S224      1.0  0.40900  0.33192  0.15553  1.0000
  Fe  Fe109     1.0  0.37153  0.30794  0.14286  1.0000
  S   S225      1.0  0.37016  0.31761  0.11789  1.0000
  S   S226      1.0  0.35956  0.28853  0.15775  1.0000
  Fe  Fe110     1.0  0.39615  0.31480  0.11336  1.0000
  S   S227      1.0  0.41288  0.30296  0.09481  1.0000
  Fe  Fe111     1.0  0.36894  0.34065  0.12293  1.0000
  S   S228      1.0  0.35255  0.36196  0.11240  1.0000
  S   S229      1.0  0.39780  0.30333  0.13799  1.0000
  S   S230      1.0  0.36838  0.33120  0.14844  1.0000
  C   C715      1.0  0.44319  0.36476  0.13654  1.0000
  C   C716      1.0  0.43477  0.36289  0.12668  1.0000
  C   C717      1.0  0.42464  0.35243  0.13213  1.0000
  C   C718      1.0  0.42261  0.34408  0.14761  1.0000
  C   C719      1.0  0.43113  0.34590  0.15738  1.0000
  C   C720      1.0  0.44148  0.35609  0.15184  1.0000
  H   H1205     1.0  0.43597  0.36968  0.11486  1.0000
  H   H1206     1.0  0.41816  0.35109  0.12449  1.0000
  H   H1207     1.0  0.42950  0.33959  0.16938  1.0000
  H   H1208     1.0  0.44763  0.35777  0.15961  1.0000
  C   C721      1.0  0.32574  0.39763  0.14216  1.0000
  C   C722      1.0  0.33543  0.38381  0.14843  1.0000
  C   C723      1.0  0.34324  0.37258  0.13951  1.0000
  C   C724      1.0  0.34191  0.37536  0.12410  1.0000
  C   C725      1.0  0.33221  0.38919  0.11783  1.0000
  C   C726      1.0  0.32402  0.40026  0.12689  1.0000
  H   H1209     1.0  0.33670  0.38167  0.16029  1.0000
  H   H1210     1.0  0.35035  0.36181  0.14452  1.0000
  H   H1211     1.0  0.33109  0.39137  0.10591  1.0000
  H   H1212     1.0  0.31660  0.41094  0.12196  1.0000
  C   C727      1.0  0.13965  0.37408  0.18330  1.0000
  C   C728      1.0  0.12886  0.38059  0.19530  1.0000
  C   C729      1.0  0.11359  0.37792  0.20014  1.0000
  C   C730      1.0  0.10891  0.36915  0.19263  1.0000
  C   C731      1.0  0.11965  0.36278  0.18051  1.0000
  C   C732      1.0  0.13509  0.36500  0.17603  1.0000
  H   H1213     1.0  0.13233  0.38768  0.20090  1.0000
  H   H1214     1.0  0.10532  0.38298  0.20941  1.0000
  H   H1215     1.0  0.11604  0.35603  0.17464  1.0000
  H   H1216     1.0  0.14330  0.36007  0.16668  1.0000
  C   C733      1.0  0.23471  0.38110  0.14619  1.0000
  C   C734      1.0  0.24586  0.38976  0.13703  1.0000
  C   C735      1.0  0.24706  0.40297  0.14121  1.0000
  C   C736      1.0  0.23710  0.40756  0.15459  1.0000
  C   C737      1.0  0.22544  0.39935  0.16329  1.0000
  C   C738      1.0  0.22423  0.38614  0.15911  1.0000
  H   H1217     1.0  0.25379  0.38606  0.12684  1.0000
  H   H1218     1.0  0.25575  0.40949  0.13413  1.0000
  H   H1219     1.0  0.21758  0.40297  0.17354  1.0000
  H   H1220     1.0  0.21557  0.37954  0.16621  1.0000
  C   C739      1.0  0.14799  0.32973  0.10728  1.0000
  C   C740      1.0  0.14991  0.32703  0.12256  1.0000
  C   C741      1.0  0.16268  0.33087  0.12539  1.0000
  C   C742      1.0  0.17383  0.33686  0.11287  1.0000
  C   C743      1.0  0.17196  0.33936  0.09764  1.0000
  C   C744      1.0  0.15894  0.33608  0.09487  1.0000
  H   H1221     1.0  0.14142  0.32213  0.13218  1.0000
  H   H1222     1.0  0.16406  0.32888  0.13717  1.0000
  H   H1223     1.0  0.18057  0.34386  0.08791  1.0000
  H   H1224     1.0  0.15761  0.33804  0.08306  1.0000
  C   C745      1.0  0.10773  0.36855  0.02129  1.0000
  H   H1225     1.0  0.07167  0.41153  0.02477  1.0000
  H   H1226     1.0  0.19247  0.47285  0.12452  1.0000
  C   C746      1.0  0.10466  0.37897  0.00749  1.0000
  H   H1227     1.0  0.41471  0.29339  0.98612  1.0000
  H   H1228     1.0  0.17456  0.45988  0.98262  1.0000
  H   H1229     1.0  0.27296  0.43098  0.02832  1.0000
  C   C747      1.0  0.25171  0.43014  0.08182  1.0000
  C   C748      1.0  0.26348  0.42298  0.09022  1.0000
  C   C749      1.0  0.27134  0.43200  0.09414  1.0000
  C   C750      1.0  0.26759  0.44822  0.08954  1.0000
  C   C751      1.0  0.25587  0.45545  0.08101  1.0000
  C   C752      1.0  0.24777  0.44640  0.07732  1.0000
  H   H1230     1.0  0.26653  0.41040  0.09375  1.0000
  H   H1231     1.0  0.28061  0.42636  0.10041  1.0000
  C   C753      1.0  0.17005  0.39684  0.07010  1.0000
  C   C754      1.0  0.15995  0.41132  0.07131  1.0000
  C   C755      1.0  0.14390  0.41228  0.07776  1.0000
  C   C756      1.0  0.13799  0.39873  0.08316  1.0000
  C   C757      1.0  0.14829  0.38421  0.08297  1.0000
  C   C758      1.0  0.16425  0.38327  0.07616  1.0000
  H   H1232     1.0  0.16436  0.42183  0.06692  1.0000
  H   H1233     1.0  0.13601  0.42353  0.07814  1.0000
  H   H1234     1.0  0.14404  0.37365  0.08831  1.0000
  H   H1235     1.0  0.17208  0.37202  0.07561  1.0000
  C   C759      1.0  0.03187  0.39036  0.12960  1.0000
  C   C760      1.0  0.04698  0.39256  0.12180  1.0000
  C   C761      1.0  0.05598  0.38404  0.11051  1.0000
  C   C762      1.0  0.04974  0.37352  0.10679  1.0000
  C   C763      1.0  0.03445  0.37173  0.11418  1.0000
  C   C764      1.0  0.02555  0.38007  0.12564  1.0000
  H   H1236     1.0  0.05186  0.40063  0.12472  1.0000
  H   H1237     1.0  0.06772  0.38559  0.10472  1.0000
  H   H1238     1.0  0.02957  0.36366  0.11124  1.0000
  H   H1239     1.0  0.01386  0.37844  0.13146  1.0000
  H   H1240     1.0  0.18870  0.30575  0.12465  1.0000
  C   C765      1.0  0.00579  0.36223  0.21252  1.0000
  H   H1241     1.0  0.23399  0.28919  0.11288  1.0000
  H   H1242     1.0  0.07835  0.37945  0.04755  1.0000
  H   H1243     1.0  0.23736  0.45858  0.11464  1.0000
  H   H1244     1.0  0.44010  0.23956  0.03662  1.0000
  H   H1245     1.0  0.11119  0.41188  0.05574  1.0000
  H   H1246     1.0  0.15119  0.43161  0.09654  1.0000
  H   H1247     1.0  0.17214  0.35713  0.20421  1.0000
  H   H1248     1.0  0.16197  0.42717  0.11126  1.0000
  C   C766      1.0  0.04651  0.39662  0.02004  1.0000
  C   C767      1.0  0.23085  0.26121  0.17935  1.0000
  C   C768      1.0  0.21722  0.26072  0.19105  1.0000
  C   C769      1.0  0.20677  0.27453  0.19410  1.0000
  C   C770      1.0  0.20973  0.28897  0.18534  1.0000
  C   C771      1.0  0.22334  0.28955  0.17352  1.0000
  C   C772      1.0  0.23397  0.27564  0.17056  1.0000
  H   H1249     1.0  0.21474  0.24962  0.19785  1.0000
  H   H1250     1.0  0.19630  0.27401  0.20324  1.0000
  H   H1251     1.0  0.22584  0.30068  0.16688  1.0000
  H   H1252     1.0  0.24457  0.27608  0.16158  1.0000
  C   C773      1.0  0.48876  0.28763  0.18573  1.0000
  C   C774      1.0  0.34439  0.28569  0.15101  1.0000
  C   C775      1.0  0.33908  0.27173  0.15699  1.0000
  C   C776      1.0  0.32686  0.26937  0.15183  1.0000
  C   C777      1.0  0.31984  0.28107  0.14077  1.0000
  C   C778      1.0  0.32529  0.29491  0.13468  1.0000
  C   C779      1.0  0.33751  0.29722  0.13977  1.0000
  H   H1253     1.0  0.34432  0.26280  0.16575  1.0000
  H   H1254     1.0  0.32269  0.25868  0.15660  1.0000
  H   H1255     1.0  0.31985  0.30402  0.12617  1.0000
  H   H1256     1.0  0.34129  0.30811  0.13530  1.0000
  H   H1257     1.0  0.36257  0.42221  0.13364  1.0000
  H   H1258     1.0  0.47569  0.29870  0.13653  1.0000
  C   C780      1.0  0.38288  0.26258  0.10821  1.0000
  H   H1259     1.0  0.19485  0.27844  0.10879  1.0000
  H   H1260     1.0  0.42255  0.32182  0.04518  1.0000
  C   C781      1.0  0.38690  0.29359  0.06359  1.0000
  C   C782      1.0  0.38145  0.30723  0.06937  1.0000
  C   C783      1.0  0.38953  0.31026  0.07882  1.0000
  C   C784      1.0  0.40326  0.29982  0.08221  1.0000
  C   C785      1.0  0.40905  0.28647  0.07593  1.0000
  C   C786      1.0  0.40067  0.28317  0.06691  1.0000
  H   H1261     1.0  0.37081  0.31533  0.06678  1.0000
  H   H1262     1.0  0.38512  0.32067  0.08350  1.0000
  H   H1263     1.0  0.41980  0.27848  0.07836  1.0000
  H   H1264     1.0  0.40497  0.27266  0.06242  1.0000
  H   H1265     1.0  0.14771  0.30551  0.19658  1.0000
  H   H1266     1.0  0.18967  0.47202  0.99299  1.0000
  C   C787      1.0  0.19128  0.45948  0.99555  1.0000
  S   S231      1.0  0.48044  0.24683  0.07162  1.0000
  C   C788      1.0  0.09574  0.37583  0.99889  1.0000
  H   H1267     1.0  0.25096  0.44537  0.01371  1.0000
  H   H1268     1.0  0.16758  0.37916  0.02374  1.0000
  S   S232      1.0  0.46977  0.29780  0.10721  1.0000
  H   H1269     1.0  0.18021  0.29128  0.17059  1.0000
  H   H1270     1.0  0.45064  0.31491  0.15371  1.0000
  C   C789      1.0  0.30222  0.36813  0.17360  1.0000
  C   C790      1.0  0.12499  0.33640  0.97700  1.0000
  H   H1271     1.0  0.16349  0.41268  0.10080  1.0000
  H   H1272     1.0  0.23335  0.25035  0.13387  1.0000
  H   H1273     1.0  0.44808  0.29421  0.00105  1.0000
  H   H1274     1.0  0.42261  0.27118  0.12441  1.0000
  H   H1275     1.0  0.28896  0.39568  0.15826  1.0000
  S   S233      1.0  0.28024  0.24249  0.10072  1.0000
  S   S234      1.0  0.18448  0.44134  0.04902  1.0000
  S   S235      1.0  0.49083  0.34608  0.13475  1.0000
  C   C791      1.0  0.15875  0.39796  0.13484  1.0000
  H   H1276     1.0  0.47844  0.32956  0.17017  1.0000
  H   H1277     1.0  0.07052  0.35649  0.04576  1.0000
  H   H1278     1.0  0.45906  0.29630  0.17910  1.0000
  C   C792      1.0  0.47609  0.27724  0.01143  1.0000
  C   C793      1.0  0.38613  0.24463  0.15069  1.0000
  H   H1279     1.0  0.20639  0.43063  0.11490  1.0000
  S   S236      1.0  0.21147  0.45859  0.01325  1.0000
  H   H1280     1.0  0.27244  0.39093  0.15595  1.0000
  H   H1281     1.0  0.26456  0.40350  0.17730  1.0000
  H   H1282     1.0  0.14072  0.47333  0.01952  1.0000
  H   H1283     1.0  0.31036  0.25273  0.00480  1.0000
  H   H1284     1.0  0.46296  0.28075  0.16988  1.0000
  H   H1285     1.0  0.13193  0.41789  0.11164  1.0000
  H   H1286     1.0  0.02532  0.40535  0.06550  1.0000
  N   N51       1.0  0.21372  0.45521  0.12608  1.0000
  H   H1287     1.0  0.11905  0.41167  0.01406  1.0000
  C   C794      1.0  0.27146  0.39130  0.17938  1.0000
  C   C795      1.0  0.28092  0.38746  0.16360  1.0000
  N   N52       1.0  0.05580  0.36320  0.17176  1.0000
  C   C796      1.0  0.03825  0.36521  0.17687  1.0000
  C   C797      1.0  0.06035  0.37687  0.17419  1.0000
  C   C798      1.0  0.06413  0.34846  0.18109  1.0000
  C   C799      1.0  0.06056  0.36225  0.15486  1.0000
  C   C800      1.0  0.03156  0.35181  0.17592  1.0000
  C   C801      1.0  0.05375  0.39301  0.16471  1.0000
  C   C802      1.0  0.05832  0.34580  0.19896  1.0000
  C   C803      1.0  0.07775  0.36289  0.14678  1.0000
  H   H1288     1.0  0.03412  0.36721  0.18889  1.0000
  H   H1289     1.0  0.03225  0.37583  0.16959  1.0000
  H   H1290     1.0  0.07334  0.37523  0.17169  1.0000
  H   H1291     1.0  0.05637  0.37777  0.18659  1.0000
  H   H1292     1.0  0.06349  0.33798  0.17756  1.0000
  H   H1293     1.0  0.07689  0.34820  0.17872  1.0000
  H   H1294     1.0  0.05874  0.35125  0.15339  1.0000
  H   H1295     1.0  0.05293  0.37165  0.14797  1.0000
  H   H1296     1.0  0.03669  0.34037  0.18265  1.0000
  H   H1297     1.0  0.01871  0.35420  0.18084  1.0000
  H   H1298     1.0  0.03305  0.35111  0.16366  1.0000
  H   H1299     1.0  0.05897  0.40182  0.16652  1.0000
  H   H1300     1.0  0.05666  0.39355  0.15204  1.0000
  H   H1301     1.0  0.04085  0.39668  0.16870  1.0000
  H   H1302     1.0  0.04626  0.34368  0.20281  1.0000
  H   H1303     1.0  0.05887  0.35554  0.20361  1.0000
  H   H1304     1.0  0.06607  0.33521  0.20444  1.0000
  H   H1305     1.0  0.08020  0.37443  0.14558  1.0000
  H   H1306     1.0  0.07994  0.36107  0.13480  1.0000
  H   H1307     1.0  0.08619  0.35361  0.15282  1.0000
  H   H1308     1.0  0.47698  0.28665  0.19304  1.0000
  H   H1309     1.0  0.03875  0.40582  0.01307  1.0000
  H   H1310     1.0  0.39652  0.27936  0.11846  1.0000
  N   N53       1.0  0.14410  0.40127  0.12875  1.0000
  H   H1311     1.0  0.00682  0.37068  0.20161  1.0000
  C   C804      1.0  0.47951  0.26718  0.00126  1.0000
  H   H1312     1.0  0.15208  0.42180  0.14022  1.0000
  H   H1313     1.0  0.11494  0.40725  0.16238  1.0000
  H   H1314     1.0  0.18087  0.28881  0.13136  1.0000
  C   C805      1.0  0.04949  0.37400  0.05255  1.0000
  H   H1315     1.0  0.18081  0.44750  0.12295  1.0000
  H   H1316     1.0  0.13077  0.40561  0.99693  1.0000
  C   C806      1.0  0.19519  0.42707  0.00238  1.0000
  H   H1317     1.0  0.32445  0.23638  0.01190  1.0000
  H   H1318     1.0  0.47429  0.23380  0.02781  1.0000
  H   H1319     1.0  0.46041  0.32949  0.16640  1.0000
  H   H1320     1.0  0.14861  0.32855  0.00163  1.0000
  H   H1321     1.0  0.03674  0.37530  0.05341  1.0000
  H   H1322     1.0  0.05132  0.36858  0.06457  1.0000
  H   H1323     1.0  0.03421  0.40264  0.08143  1.0000
  C   C807      1.0  0.19764  0.46089  0.12240  1.0000
  C   C808      1.0  0.14329  0.42616  0.02367  1.0000
  S   S237      1.0  0.13425  0.45699  0.99063  1.0000
  H   H1324     1.0  0.23514  0.26726  0.13866  1.0000
  H   H1325     1.0  0.32280  0.35210  0.18100  1.0000
  C   C809      1.0  0.26026  0.43314  0.03374  1.0000
  H   H1326     1.0  0.13392  0.34681  0.20770  1.0000
  H   H1327     1.0  0.23351  0.30724  0.11696  1.0000
  N   N54       1.0  0.14943  0.32870  0.22047  1.0000
  H   H1328     1.0  0.10908  0.38956  0.00348  1.0000
  S   S238      1.0  0.30610  0.23749  0.12935  1.0000
  H   H1329     1.0  0.23826  0.44923  0.03137  1.0000
  Fe  Fe112     1.0  0.36540  0.23982  0.05341  1.0000
  H   H1330     1.0  0.48048  0.31965  0.06925  1.0000
  N   N55       1.0  0.29008  0.37088  0.16414  1.0000
  H   H1331     1.0  0.15241  0.47521  0.00027  1.0000
  C   C810      1.0  0.09034  0.36199  0.00376  1.0000
  S   S239      1.0  0.17468  0.42763  0.98533  1.0000
  H   H1332     1.0  0.48791  0.45857  0.18818  1.0000
  C   C811      1.0  0.22659  0.26045  0.13918  1.0000
  C   C812      1.0  0.16905  0.47390  0.09213  1.0000
  C   C813      1.0  0.18557  0.29554  0.15818  1.0000
  C   C814      1.0  0.43817  0.26668  0.99287  1.0000
  H   H1333     1.0  0.42151  0.25126  0.13006  1.0000
  Fe  Fe113     1.0  0.99754  0.39509  0.15660  1.0000
  C   C815      1.0  0.13374  0.33984  0.21976  1.0000
  H   H1334     1.0  0.14892  0.47137  0.11092  1.0000
  H   H1335     1.0  0.15449  0.35593  0.99268  1.0000
  C   C816      1.0  0.18477  0.43640  0.99303  1.0000
  C   C817      1.0  0.48362  0.29104  0.14425  1.0000
  C   C818      1.0  0.49100  0.28533  0.16918  1.0000
  H   H1336     1.0  0.49152  0.29881  0.18544  1.0000
  H   H1337     1.0  0.11011  0.40390  0.04032  1.0000
  C   C819      1.0  0.11646  0.41093  0.04346  1.0000
  H   H1338     1.0  0.15244  0.47175  0.04354  1.0000
  C   C820      1.0  0.14958  0.31637  0.19826  1.0000
  H   H1339     1.0  0.46618  0.32770  0.11295  1.0000
  C   C821      1.0  0.19522  0.29050  0.10866  1.0000
  N   N56       1.0  0.33430  0.25283  0.99216  1.0000
  H   H1340     1.0  0.31273  0.25234  0.03068  1.0000
  H   H1341     1.0  0.45026  0.26822  0.98724  1.0000
  S   S240      1.0  0.08034  0.35705  0.99254  1.0000
  H   H1342     1.0  0.35112  0.26379  0.00589  1.0000
  N   N57       1.0  0.44842  0.32717  0.06467  1.0000
  C   C822      1.0  0.43513  0.32194  0.06206  1.0000
  C   C823      1.0  0.44742  0.32295  0.08200  1.0000
  C   C824      1.0  0.46351  0.31787  0.05672  1.0000
  C   C825      1.0  0.44676  0.34441  0.05794  1.0000
  C   C826      1.0  0.43355  0.32496  0.04506  1.0000
  C   C827      1.0  0.43368  0.33280  0.09182  1.0000
  C   C828      1.0  0.47898  0.32131  0.05729  1.0000
  C   C829      1.0  0.45625  0.35304  0.06313  1.0000
  H   H1343     1.0  0.43612  0.30918  0.06689  1.0000
  H   H1344     1.0  0.42359  0.32771  0.06831  1.0000
  H   H1345     1.0  0.45814  0.32365  0.08494  1.0000
  H   H1346     1.0  0.44663  0.31051  0.08677  1.0000
  S   S241      1.0  0.40588  0.25046  0.04251  1.0000
  H   H1347     1.0  0.46397  0.31962  0.04413  1.0000
  H   H1348     1.0  0.45013  0.34662  0.04500  1.0000
  H   H1349     1.0  0.43419  0.35052  0.06071  1.0000
  Fe  Fe114     1.0  0.47216  0.27261  0.06376  1.0000
  H   H1350     1.0  0.43256  0.33738  0.03906  1.0000
  C   C830      1.0  0.48869  0.33382  0.10366  1.0000
  H   H1351     1.0  0.43389  0.32786  0.10432  1.0000
  H   H1352     1.0  0.43469  0.34506  0.08937  1.0000
  H   H1353     1.0  0.42212  0.33246  0.09039  1.0000
  H   H1354     1.0  0.39050  0.29008  0.01711  1.0000
  H   H1355     1.0  0.16265  0.30604  0.21630  1.0000
  C   C831      1.0  0.15231  0.47535  0.01238  1.0000
  H   H1356     1.0  0.46433  0.35849  0.05285  1.0000
  H   H1357     1.0  0.46339  0.34572  0.07160  1.0000
  H   H1358     1.0  0.44819  0.36271  0.06845  1.0000
  N   N58       1.0  0.38139  0.39036  0.14039  1.0000
  C   C832      1.0  0.37526  0.39378  0.12575  1.0000
  C   C833      1.0  0.37018  0.40087  0.15068  1.0000
  C   C834      1.0  0.38167  0.37347  0.14836  1.0000
  C   C835      1.0  0.39772  0.39342  0.13559  1.0000
  C   C836      1.0  0.38279  0.38204  0.11504  1.0000
  C   C837      1.0  0.36826  0.41852  0.14374  1.0000
  C   C838      1.0  0.38112  0.36880  0.16600  1.0000
  C   C839      1.0  0.40600  0.39202  0.14864  1.0000
  H   H1359     1.0  0.37349  0.39879  0.16196  1.0000
  H   H1360     1.0  0.35826  0.39827  0.15384  1.0000
  H   H1361     1.0  0.37140  0.36994  0.14714  1.0000
  H   H1362     1.0  0.39214  0.36568  0.14267  1.0000
  H   H1363     1.0  0.40570  0.38512  0.12847  1.0000
  H   H1364     1.0  0.39820  0.40496  0.12751  1.0000
  H   H1365     1.0  0.39568  0.38068  0.11119  1.0000
  H   H1366     1.0  0.37988  0.37051  0.12065  1.0000
  H   H1367     1.0  0.36036  0.42494  0.15267  1.0000
  H   H1368     1.0  0.37958  0.42221  0.14048  1.0000
  H   H1369     1.0  0.36945  0.37372  0.17273  1.0000
  H   H1370     1.0  0.39043  0.37203  0.16923  1.0000
  H   H1371     1.0  0.38284  0.35591  0.16977  1.0000
  H   H1372     1.0  0.41189  0.37975  0.15272  1.0000
  H   H1373     1.0  0.39820  0.39676  0.15864  1.0000
  H   H1374     1.0  0.41513  0.39908  0.14404  1.0000
  C   C840      1.0  0.25072  0.44805  0.02489  1.0000
  C   C841      1.0  0.47196  0.27167  0.02751  1.0000
  H   H1375     1.0  0.22157  0.25552  0.15149  1.0000
  H   H1376     1.0  0.19196  0.30430  0.15802  1.0000
  C   C842      1.0  0.21517  0.29611  0.13257  1.0000
  H   H1377     1.0  0.21468  0.43075  0.13787  1.0000
  C   C843      1.0  0.35841  0.25300  0.00234  1.0000
  H   H1378     1.0  0.37680  0.40540  0.11838  1.0000
  C   C844      1.0  0.15103  0.31400  0.21519  1.0000
  H   H1379     1.0  0.26292  0.38378  0.18534  1.0000
  H   H1380     1.0  0.31842  0.26924  0.01794  1.0000
  H   H1381     1.0  0.30944  0.37349  0.14422  1.0000
  C   C845      1.0  0.14451  0.40315  0.01380  1.0000
  Fe  Fe115     1.0  0.47451  0.27957  0.09344  1.0000
  H   H1382     1.0  0.21962  0.27172  0.11763  1.0000
  H   H1383     1.0  0.12426  0.42198  0.14916  1.0000
  H   H1384     1.0  0.13461  0.39026  0.04323  1.0000
  Fe  Fe116     1.0  0.47950  0.37135  0.13225  1.0000
  H   H1385     1.0  0.25846  0.43317  0.04620  1.0000
  C   C846      1.0  0.16708  0.38400  0.03375  1.0000
  H   H1386     1.0  0.15574  0.43082  0.03890  1.0000
  C   C847      1.0  0.16138  0.41104  0.14093  1.0000
  H   H1387     1.0  0.23847  0.45197  0.07110  1.0000
  H   H1388     1.0  0.36239  0.39443  0.12864  1.0000
  H   H1389     1.0  0.29660  0.36813  0.18604  1.0000
  H   H1390     1.0  0.13510  0.40550  0.16121  1.0000
  H   H1391     1.0  0.36545  0.28163  0.09852  1.0000
  H   H1392     1.0  0.18949  0.44032  0.13962  1.0000
  C   C848      1.0  0.37205  0.27895  0.10783  1.0000
  C   C849      1.0  0.22011  0.43796  0.12696  1.0000
  H   H1393     1.0  0.22618  0.41979  0.11394  1.0000
  H   H1394     1.0  0.23279  0.43483  0.12737  1.0000
  N   N59       1.0  0.47942  0.29588  0.15965  1.0000
  C   C850      1.0  0.47475  0.24592  0.02320  1.0000
  H   H1395     1.0  0.40865  0.23516  0.12835  1.0000
  C   C851      1.0  0.16385  0.35131  0.21392  1.0000
  C   C852      1.0  0.48047  0.31265  0.15658  1.0000
  C   C853      1.0  0.13987  0.33929  0.00386  1.0000
  H   H1396     1.0  0.20554  0.27663  0.15903  1.0000
  C   C854      1.0  0.47134  0.32172  0.16951  1.0000
  H   H1397     1.0  0.16064  0.31856  0.19002  1.0000
  H   H1398     1.0  0.09315  0.38408  0.98846  1.0000
  C   C855      1.0  0.27280  0.46105  0.01293  1.0000
  S   S242      1.0  0.49274  0.37563  0.14773  1.0000
  H   H1399     1.0  0.13396  0.36364  0.99570  1.0000
  H   H1400     1.0  0.42424  0.23972  0.06784  1.0000
  H   H1401     1.0  0.45078  0.29714  0.14863  1.0000
  H   H1402     1.0  0.17725  0.47170  0.02702  1.0000
  H   H1403     1.0  0.20518  0.45524  0.16598  1.0000
  H   H1404     1.0  0.33297  0.25227  0.02477  1.0000
  H   H1405     1.0  0.00739  0.41959  0.21931  1.0000
  H   H1406     1.0  0.15257  0.35997  0.21551  1.0000
  N   N60       1.0  0.25608  0.46302  0.02214  1.0000
  H   H1407     1.0  0.13150  0.42373  0.99974  1.0000
  C   C856      1.0  0.39891  0.23307  0.99424  1.0000
  H   H1408     1.0  0.12779  0.33797  0.00509  1.0000
  C   C857      1.0  0.46309  0.29334  0.16751  1.0000
  Fe  Fe117     1.0  0.07786  0.36524  0.22321  1.0000
  H   H1409     1.0  0.44045  0.24767  0.08091  1.0000
  C   C858      1.0  0.05857  0.36120  0.04336  1.0000
  C   C859      1.0  0.38089  0.25660  0.13648  1.0000
  C   C860      1.0  0.13401  0.40283  0.04198  1.0000
  C   C861      1.0  0.05114  0.39670  0.06079  1.0000
  C   C862      1.0  0.21372  0.26998  0.13013  1.0000
  H   H1410     1.0  0.20554  0.26230  0.13168  1.0000
  C   C863      1.0  0.14328  0.35399  0.99162  1.0000
  H   H1411     1.0  0.36165  0.24468  0.01293  1.0000
  H   H1412     1.0  0.16328  0.40545  0.04047  1.0000
  H   H1413     1.0  0.25730  0.23641  0.20549  1.0000
  S   S243      1.0  0.49116  0.27894  0.07041  1.0000
  C   C864      1.0  0.47867  0.25155  0.00710  1.0000
  Fe  Fe118     1.0  0.46471  0.25036  0.09456  1.0000
  C   C865      1.0  0.22505  0.46342  0.11310  1.0000
  H   H1414     1.0  0.13745  0.40307  0.05263  1.0000
  H   H1415     1.0  0.15955  0.37841  0.04440  1.0000
  C   C866      1.0  0.16186  0.40194  0.03036  1.0000
  H   H1416     1.0  0.17914  0.38066  0.03593  1.0000
  H   H1417     1.0  0.14035  0.34067  0.01539  1.0000
  H   H1418     1.0  0.25603  0.42293  0.03354  1.0000
  C   C867      1.0  0.19674  0.28158  0.15160  1.0000
  H   H1419     1.0  0.10413  0.34694  0.03716  1.0000
  H   H1420     1.0  0.32222  0.35215  0.16173  1.0000
  H   H1421     1.0  0.37499  0.25481  0.10931  1.0000
  C   C868      1.0  0.20342  0.43392  0.00853  1.0000
  H   H1422     1.0  0.27641  0.35818  0.18481  1.0000
  H   H1423     1.0  0.48194  0.27902  0.14592  1.0000
  C   C869      1.0  0.22597  0.29978  0.11645  1.0000
  C   C870      1.0  0.43217  0.27299  0.00785  1.0000
  Fe  Fe119     1.0  0.18759  0.44779  0.06962  1.0000
  H   H1424     1.0  0.25910  0.37332  0.16278  1.0000
  N   N61       1.0  0.42456  0.29007  0.00633  1.0000
  C   C871      1.0  0.41813  0.29313  0.02254  1.0000
  N   N62       1.0  0.39212  0.25655  0.12088  1.0000
  H   H1425     1.0  0.22276  0.29152  0.14122  1.0000
  H   H1426     1.0  0.40586  0.30762  0.99734  1.0000
  C   C872      1.0  0.43041  0.29041  0.03232  1.0000
  H   H1427     1.0  0.09023  0.39993  0.02785  1.0000
  C   C873      1.0  0.19192  0.29296  0.12538  1.0000
  H   H1428     1.0  0.41123  0.30535  0.02210  1.0000
  H   H1429     1.0  0.40981  0.28558  0.02958  1.0000
  H   H1430     1.0  0.30957  0.34235  0.17833  1.0000
  H   H1431     1.0  0.20652  0.29302  0.10140  1.0000
  Fe  Fe120     1.0  0.28219  0.24019  0.12526  1.0000
  H   H1432     1.0  0.99976  0.43974  0.18988  1.0000
  H   H1433     1.0  0.44258  0.27007  0.01310  1.0000
  H   H1434     1.0  0.31953  0.25260  0.97717  1.0000
  H   H1435     1.0  0.43592  0.27787  0.03562  1.0000
  H   H1436     1.0  0.43958  0.29719  0.02643  1.0000
  H   H1437     1.0  0.42449  0.29433  0.04334  1.0000
  H   H1438     1.0  0.05296  0.40882  0.05718  1.0000
  H   H1439     1.0  0.17582  0.30125  0.15206  1.0000
  C   C874      1.0  0.21384  0.45909  0.14101  1.0000
  C   C875      1.0  0.47814  0.32420  0.10672  1.0000
  S   S244      1.0  0.45463  0.27561  0.08600  1.0000
  H   H1440     1.0  0.27919  0.39069  0.18710  1.0000
  H   H1441     1.0  0.31995  0.27516  0.98355  1.0000
  N   N63       1.0  0.22836  0.37054  0.09220  1.0000
  C   C876      1.0  0.22646  0.38636  0.09541  1.0000
  C   C877      1.0  0.24216  0.36863  0.07867  1.0000
  C   C878      1.0  0.23207  0.35857  0.10648  1.0000
  C   C879      1.0  0.21322  0.36971  0.08897  1.0000
  C   C880      1.0  0.21339  0.39060  0.10939  1.0000
  C   C881      1.0  0.24080  0.38114  0.06354  1.0000
  C   C882      1.0  0.23545  0.34135  0.10569  1.0000
  C   C883      1.0  0.21434  0.35827  0.07884  1.0000
  H   H1442     1.0  0.23765  0.38764  0.09724  1.0000
  H   H1443     1.0  0.22367  0.39570  0.08524  1.0000
  H   H1444     1.0  0.24451  0.35721  0.07558  1.0000
  H   H1445     1.0  0.25311  0.36871  0.08189  1.0000
  H   H1446     1.0  0.24240  0.36033  0.10959  1.0000
  H   H1447     1.0  0.22217  0.35989  0.11669  1.0000
  H   H1448     1.0  0.20457  0.36692  0.10004  1.0000
  H   H1449     1.0  0.20769  0.38135  0.08279  1.0000
  H   H1450     1.0  0.21182  0.40312  0.10914  1.0000
  H   H1451     1.0  0.20192  0.38886  0.10904  1.0000
  H   H1452     1.0  0.21667  0.38412  0.12057  1.0000
  H   H1453     1.0  0.24369  0.39194  0.06414  1.0000
  H   H1454     1.0  0.24945  0.37684  0.05358  1.0000
  H   H1455     1.0  0.22900  0.38407  0.06091  1.0000
  H   H1456     1.0  0.23878  0.33406  0.11668  1.0000
  H   H1457     1.0  0.24542  0.33821  0.09613  1.0000
  H   H1458     1.0  0.22481  0.33812  0.10504  1.0000
  H   H1459     1.0  0.20317  0.35426  0.08233  1.0000
  H   H1460     1.0  0.22380  0.34769  0.07992  1.0000
  H   H1461     1.0  0.21505  0.36435  0.06644  1.0000
  H   H1462     1.0  0.30856  0.37783  0.16960  1.0000
  H   H1463     1.0  0.07716  0.40813  0.04329  1.0000
  C   C884      1.0  0.12607  0.40929  0.15411  1.0000
  H   H1464     1.0  0.27824  0.37356  0.13718  1.0000
  C   C885      1.0  0.15862  0.47715  0.10582  1.0000
  C   C886      1.0  0.09320  0.35171  0.01769  1.0000
  C   C887      1.0  0.39739  0.28641  0.00617  1.0000
  H   H1465     1.0  0.21913  0.30654  0.10752  1.0000
  N   N64       1.0  0.14545  0.40868  0.02753  1.0000
  H   H1466     1.0  0.25635  0.35575  0.17559  1.0000
  H   H1467     1.0  0.37806  0.26832  0.13917  1.0000
  C   C888      1.0  0.31479  0.35275  0.17351  1.0000
  H   H1468     1.0  0.28693  0.34713  0.17094  1.0000
  C   C889      1.0  0.45017  0.30248  0.15836  1.0000
  C   C890      1.0  0.07125  0.38779  0.03934  1.0000
  C   C891      1.0  0.41097  0.29490  0.99831  1.0000
  H   H1469     1.0  0.36332  0.27970  0.11893  1.0000
  H   H1470     1.0  0.18582  0.29848  0.10283  1.0000
  C   C892      1.0  0.28002  0.35906  0.17200  1.0000
  C   C893      1.0  0.29865  0.36874  0.14792  1.0000
  H   H1471     1.0  0.40776  0.26562  0.14067  1.0000
  C   C894      1.0  0.03459  0.39762  0.07154  1.0000
  H   H1472     1.0  0.19685  0.41451  0.00494  1.0000
  H   H1473     1.0  0.20811  0.30759  0.13491  1.0000
  C   C895      1.0  0.28976  0.37655  0.13468  1.0000
  C   C896      1.0  0.40312  0.26726  0.11791  1.0000
  H   H1474     1.0  0.05971  0.39001  0.06821  1.0000
  H   H1475     1.0  0.39090  0.26264  0.09653  1.0000
  C   C897      1.0  0.26515  0.36107  0.16604  1.0000
  N   N65       1.0  0.32196  0.27666  0.08519  1.0000
  C   C898      1.0  0.30782  0.27009  0.09465  1.0000
  C   C899      1.0  0.33623  0.26484  0.08951  1.0000
  C   C900      1.0  0.32227  0.27820  0.06828  1.0000
  C   C901      1.0  0.32031  0.29229  0.08871  1.0000
  C   C902      1.0  0.29174  0.27958  0.09124  1.0000
  C   C903      1.0  0.33778  0.26215  0.10646  1.0000
  C   C904      1.0  0.33627  0.28375  0.05620  1.0000
  C   C905      1.0  0.33535  0.29881  0.08453  1.0000
  H   H1476     1.0  0.30911  0.25805  0.09316  1.0000
  H   H1477     1.0  0.30668  0.26897  0.10724  1.0000
  H   H1478     1.0  0.34725  0.26792  0.08216  1.0000
  H   H1479     1.0  0.33655  0.25333  0.08733  1.0000
  H   H1480     1.0  0.32186  0.26684  0.06628  1.0000
  H   H1481     1.0  0.31171  0.28668  0.06490  1.0000
  H   H1482     1.0  0.31155  0.30131  0.08276  1.0000
  H   H1483     1.0  0.31539  0.29188  0.10136  1.0000
  H   H1484     1.0  0.28236  0.27466  0.10030  1.0000
  H   H1485     1.0  0.28959  0.29197  0.09175  1.0000
  H   H1486     1.0  0.29028  0.27856  0.07996  1.0000
  H   H1487     1.0  0.33763  0.27305  0.10961  1.0000
  H   H1488     1.0  0.32857  0.25658  0.11491  1.0000
  H   H1489     1.0  0.34913  0.25402  0.10790  1.0000
  H   H1490     1.0  0.33633  0.29590  0.05594  1.0000
  H   H1491     1.0  0.33516  0.28365  0.04445  1.0000
  H   H1492     1.0  0.34768  0.27592  0.05778  1.0000
  H   H1493     1.0  0.33324  0.31085  0.07734  1.0000
  H   H1494     1.0  0.34597  0.29217  0.07796  1.0000
  H   H1495     1.0  0.33812  0.29979  0.09527  1.0000
  H   H1496     1.0  0.03176  0.38599  0.07679  1.0000
  C   C906      1.0  0.14600  0.38954  0.11915  1.0000
  H   H1497     1.0  0.05868  0.39637  0.01313  1.0000
  C   C907      1.0  0.12987  0.39947  0.14179  1.0000
  H   H1498     1.0  0.14013  0.44629  0.03329  1.0000
  C   C908      1.0  0.15070  0.37213  0.12687  1.0000
  H   H1499     1.0  0.27817  0.24060  0.21655  1.0000
  C   C909      1.0  0.41425  0.26327  0.12908  1.0000
  C   C910      1.0  0.43967  0.30416  0.97996  1.0000
  H   H1500     1.0  0.13492  0.39105  0.11536  1.0000
  H   H1501     1.0  0.15510  0.39138  0.10829  1.0000
  H   H1502     1.0  0.11398  0.42291  0.03653  1.0000
  N   N66       1.0  0.05400  0.38970  0.04684  1.0000
  H   H1503     1.0  0.11920  0.40206  0.13693  1.0000
  H   H1504     1.0  0.13102  0.38728  0.14855  1.0000
  H   H1505     1.0  0.15906  0.38739  0.14445  1.0000
  H   H1506     1.0  0.43834  0.25406  0.99584  1.0000
  H   H1507     1.0  0.16227  0.36910  0.13004  1.0000
  H   H1508     1.0  0.14170  0.36817  0.13705  1.0000
  H   H1509     1.0  0.15186  0.36518  0.11824  1.0000
  C   C911      1.0  0.18158  0.48144  0.08553  1.0000
  C   C912      1.0  0.21856  0.43167  0.11360  1.0000
  C   C913      1.0  0.33187  0.27026  0.98616  1.0000
  H   H1510     1.0  0.13547  0.42656  0.12472  1.0000
  H   H1511     1.0  0.26772  0.35525  0.15618  1.0000
  H   H1512     1.0  0.30276  0.35613  0.14765  1.0000
  H   H1513     1.0  0.16034  0.34056  0.19763  1.0000
  H   H1514     1.0  0.18985  0.27251  0.15392  1.0000
  S   S245      1.0  0.37475  0.24606  0.07051  1.0000
  H   H1515     1.0  0.16933  0.39498  0.12562  1.0000
  C   C914      1.0  0.07765  0.40284  0.03360  1.0000
  S   S246      1.0  0.21070  0.45457  0.05793  1.0000
  H   H1516     1.0  0.15246  0.42983  0.01342  1.0000
  C   C915      1.0  0.32189  0.25636  0.02062  1.0000
  H   H1517     1.0  0.37782  0.38629  0.10444  1.0000
  H   H1518     1.0  0.03130  0.40136  0.04137  1.0000
  H   H1519     1.0  0.05253  0.35132  0.04745  1.0000
  H   H1520     1.0  0.17271  0.41425  0.13438  1.0000
  C   C916      1.0  0.04397  0.40065  0.03594  1.0000
  H   H1521     1.0  0.41064  0.26787  0.10597  1.0000
  S   S247      1.0  0.46753  0.28454  0.03998  1.0000
  H   H1522     1.0  0.22232  0.43879  0.10196  1.0000
  H   H1523     1.0  0.04320  0.38551  0.02130  1.0000
  N   N67       1.0  0.20463  0.28522  0.13458  1.0000
  H   H1524     1.0  0.36940  0.25459  0.13630  1.0000
  H   H1525     1.0  0.04569  0.41274  0.03360  1.0000
  C   C917      1.0  0.47123  0.25599  0.03339  1.0000
  H   H1526     1.0  0.11854  0.36013  0.97988  1.0000
  H   H1527     1.0  0.07425  0.38247  0.02911  1.0000
  H   H1528     1.0  0.29684  0.37254  0.12394  1.0000
  H   H1529     1.0  0.19031  0.45790  0.15577  1.0000
  H   H1530     1.0  0.16233  0.40676  0.15330  1.0000
  H   H1531     1.0  0.46416  0.30518  0.06166  1.0000
  C   C918      1.0  0.15530  0.42219  0.10611  1.0000
  H   H1532     1.0  0.28830  0.38940  0.13193  1.0000
  H   H1533     1.0  0.37869  0.28819  0.10489  1.0000
  H   H1534     1.0  0.26131  0.45610  0.04515  1.0000
  C   C919      1.0  0.43652  0.29995  0.99789  1.0000
  C   C920      1.0  0.24564  0.47528  0.99685  1.0000
  C   C921      1.0  0.13057  0.41168  0.00595  1.0000
  Fe  Fe121     1.0  0.39422  0.24344  0.02775  1.0000
  H   H1535     1.0  0.46842  0.31461  0.18134  1.0000
  H   H1536     1.0  0.17497  0.45813  0.13795  1.0000
  C   C922      1.0  0.14091  0.41718  0.11818  1.0000
  S   S248      1.0  0.34086  0.23625  0.06092  1.0000
  C   C923      1.0  0.14372  0.43344  0.03682  1.0000
  H   H1537     1.0  0.41059  0.24141  0.10808  1.0000
  C   C924      1.0  0.01683  0.35904  0.22187  1.0000
  H   H1538     1.0  0.17990  0.47578  0.05032  1.0000
  H   H1539     1.0  0.11531  0.33267  0.21381  1.0000
  H   H1540     1.0  0.48037  0.33306  0.05042  1.0000
  C   C925      1.0  0.48302  0.31007  0.10188  1.0000
  H   H1541     1.0  0.16165  0.46552  0.01632  1.0000
  H   H1542     1.0  0.14409  0.39060  0.01715  1.0000
  H   H1543     1.0  0.28578  0.23406  0.07164  1.0000
  C   C926      1.0  0.20161  0.45011  0.00499  1.0000
  H   H1544     1.0  0.17068  0.40659  0.02022  1.0000
  H   H1545     1.0  0.13213  0.43217  0.01997  1.0000
  C   C927      1.0  0.18528  0.45099  0.13134  1.0000
  H   H1546     1.0  0.24265  0.46468  0.99595  1.0000
  H   H1547     1.0  0.28091  0.45357  0.02057  1.0000
  H   H1548     1.0  0.22502  0.46148  0.10167  1.0000
  C   C928      1.0  0.35082  0.24518  0.99420  1.0000
  S   S249      1.0  0.16603  0.46035  0.08365  1.0000
  S   S250      1.0  0.10023  0.43949  0.98901  1.0000
  H   H1549     1.0  0.25722  0.47650  0.98920  1.0000
  H   H1550     1.0  0.02640  0.36502  0.21816  1.0000
  H   H1551     1.0  0.43046  0.27162  0.98447  1.0000
  H   H1552     1.0  0.48467  0.34488  0.10710  1.0000
  H   H1553     1.0  0.49093  0.46496  0.20344  1.0000
  H   H1554     1.0  0.20467  0.43953  0.15856  1.0000
  H   H1555     1.0  0.37761  0.24741  0.16142  1.0000
  H   H1556     1.0  0.25280  0.46803  0.07766  1.0000
  H   H1557     1.0  0.43843  0.30212  0.16618  1.0000
  C   C929      1.0  0.32243  0.24914  0.00709  1.0000
  H   H1558     1.0  0.48319  0.27148  0.98894  1.0000
  Fe  Fe122     1.0  0.12031  0.45128  0.97705  1.0000
  C   C930      1.0  0.27918  0.47603  0.00478  1.0000
  H   H1559     1.0  0.22591  0.45522  0.14324  1.0000
  C   C931      1.0  0.20278  0.45238  0.15595  1.0000
  C   C932      1.0  0.22215  0.48126  0.11091  1.0000
  H   H1560     1.0  0.13967  0.32598  0.19517  1.0000
  H   H1561     1.0  0.40154  0.27361  0.00846  1.0000
  H   H1562     1.0  0.14236  0.30713  0.22262  1.0000
  S   S251      1.0  0.40650  0.24334  0.00292  1.0000
  S   S252      1.0  0.48312  0.25451  0.10389  1.0000
  H   H1563     1.0  0.33204  0.27638  0.99492  1.0000
  H   H1564     1.0  0.17390  0.32842  0.20905  1.0000
  H   H1565     1.0  0.47686  0.28931  0.00682  1.0000
  H   H1566     1.0  0.46757  0.25170  0.04574  1.0000
  C   C933      1.0  0.24473  0.47574  0.01380  1.0000
  H   H1567     1.0  0.24218  0.46786  0.04429  1.0000
  H   H1568     1.0  0.13892  0.38641  0.98057  1.0000
  H   H1569     1.0  0.49111  0.27288  0.17016  1.0000
  H   H1570     1.0  0.48890  0.31296  0.05174  1.0000
  H   H1571     1.0  0.18961  0.47904  0.07488  1.0000
  C   C934      1.0  0.26090  0.48011  0.03807  1.0000
  C   C935      1.0  0.43708  0.23655  0.08549  1.0000
  H   H1572     1.0  0.35887  0.24419  0.98270  1.0000
  S   S253      1.0  0.48230  0.23889  0.99455  1.0000
  H   H1573     1.0  0.21043  0.47188  0.14020  1.0000
  C   C936      1.0  0.16222  0.33667  0.20975  1.0000
  H   H1574     1.0  0.03337  0.42116  0.22012  1.0000
  H   H1575     1.0  0.19851  0.46206  0.10977  1.0000
  H   H1576     1.0  0.27446  0.45455  0.00372  1.0000
  H   H1577     1.0  0.23240  0.47556  0.02031  1.0000
  H   H1578     1.0  0.11274  0.33678  0.98385  1.0000
  H   H1579     1.0  0.13257  0.32715  0.98393  1.0000
  C   C937      1.0  0.40014  0.23714  0.97813  1.0000
  H   H1580     1.0  0.27390  0.47756  0.03521  1.0000
  H   H1581     1.0  0.49294  0.31350  0.15399  1.0000
  H   H1582     1.0  0.13905  0.48157  0.06624  1.0000
  C   C938      1.0  0.11909  0.33269  0.22434  1.0000
  H   H1583     1.0  0.28918  0.47601  0.00954  1.0000
  H   H1584     1.0  0.16897  0.34830  0.22433  1.0000
  H   H1585     1.0  0.28380  0.47629  0.99216  1.0000
  H   H1586     1.0  0.19583  0.48257  0.03569  1.0000
  S   S254      1.0  0.26763  0.48289  0.15798  1.0000
  H   H1587     1.0  0.25718  0.48228  0.05005  1.0000
  H   H1588     1.0  0.49291  0.48208  0.17407  1.0000
  Fe  Fe123     1.0  0.04386  0.32548  0.43696  1.0000
  S   S255      1.0  0.05769  0.30594  0.45169  1.0000
  S   S256      1.0  0.01839  0.32428  0.44308  1.0000
  Fe  Fe124     1.0  0.07193  0.33968  0.42108  1.0000
  S   S257      1.0  0.08781  0.32104  0.43508  1.0000
  S   S258      1.0  0.08304  0.35781  0.40235  1.0000
  Fe  Fe125     1.0  0.07648  0.30449  0.43016  1.0000
  S   S259      1.0  0.09046  0.28015  0.42798  1.0000
  Fe  Fe126     1.0  0.06759  0.32404  0.45548  1.0000
  S   S260      1.0  0.06195  0.32286  0.41479  1.0000
  S   S261      1.0  0.05250  0.34397  0.44196  1.0000
  Fe  Fe127     1.0  0.06870  0.43742  0.32051  1.0000
  S   S262      1.0  0.04371  0.43681  0.33183  1.0000
  S   S263      1.0  0.08265  0.42171  0.30381  1.0000
  Fe  Fe128     1.0  0.06888  0.46192  0.33783  1.0000
  S   S264      1.0  0.04379  0.46301  0.35042  1.0000
  Fe  Fe129     1.0  0.05011  0.43687  0.35368  1.0000
  S   S265      1.0  0.03974  0.42142  0.37576  1.0000
  Fe  Fe130     1.0  0.03981  0.46279  0.32743  1.0000
  H   H1589     1.0  0.04354  0.44259  0.27687  1.0000
  S   S266      1.0  0.07568  0.43563  0.34281  1.0000
  S   S267      1.0  0.06447  0.46357  0.31441  1.0000
  H   H1590     1.0  0.08229  0.38077  0.35233  1.0000
  H   H1591     1.0  0.14518  0.31268  0.26067  1.0000
  Fe  Fe131     1.0  0.06123  0.37860  0.25197  1.0000
  H   H1592     1.0  0.05595  0.45059  0.29214  1.0000
  S   S268      1.0  0.04992  0.39900  0.26376  1.0000
  Fe  Fe132     1.0  0.04903  0.35429  0.24450  1.0000
  H   H1593     1.0  0.99475  0.42730  0.26467  1.0000
  Fe  Fe133     1.0  0.07997  0.34524  0.25529  1.0000
  S   S269      1.0  0.09609  0.32459  0.26697  1.0000
  H   H1594     1.0  0.08313  0.46478  0.40550  1.0000
  S   S270      1.0  0.05533  0.35584  0.26590  1.0000
  H   H1595     1.0  0.07182  0.36170  0.31025  1.0000
  H   H1596     1.0  0.05790  0.23876  0.45804  1.0000
  S   S271      1.0  0.09343  0.25197  0.34000  1.0000
  H   H1597     1.0  0.06344  0.46592  0.24750  1.0000
  H   H1598     1.0  0.01884  0.42703  0.23615  1.0000
  H   H1599     1.0  0.07001  0.43621  0.41537  1.0000
  C   C939      1.0  0.07826  0.24981  0.46607  1.0000
  Fe  Fe134     1.0  0.06851  0.26332  0.33818  1.0000
  S   S272      1.0  0.05927  0.28894  0.32966  1.0000
  C   C940      1.0  0.06583  0.37134  0.31646  1.0000
  S   S273      1.0  0.05819  0.25326  0.36300  1.0000
  H   H1600     1.0  0.09498  0.37050  0.32098  1.0000
  H   H1601     1.0  0.12014  0.32097  0.23204  1.0000
  C   C941      1.0  0.08681  0.31493  0.28517  1.0000
  C   C942      1.0  0.09238  0.29893  0.29055  1.0000
  C   C943      1.0  0.08430  0.29086  0.30451  1.0000
  C   C944      1.0  0.07071  0.29882  0.31312  1.0000
  C   C945      1.0  0.06545  0.31488  0.30797  1.0000
  C   C946      1.0  0.07349  0.32292  0.29404  1.0000
  H   H1602     1.0  0.10272  0.29271  0.28375  1.0000
  H   H1603     1.0  0.08839  0.27844  0.30842  1.0000
  H   H1604     1.0  0.05500  0.32108  0.31466  1.0000
  H   H1605     1.0  0.06938  0.33530  0.29022  1.0000
  C   C947      1.0  0.00271  0.34073  0.24098  1.0000
  C   C948      1.0  0.01077  0.47048  0.30932  1.0000
  S   S274      1.0  0.01671  0.25969  0.43218  1.0000
  H   H1606     1.0  0.01194  0.41265  0.26130  1.0000
  H   H1607     1.0  0.02604  0.46338  0.24306  1.0000
  H   H1608     1.0  0.15431  0.24161  0.39081  1.0000
  C   C949      1.0  0.00974  0.45499  0.31588  1.0000
  C   C950      1.0  0.04876  0.45220  0.39137  1.0000
  H   H1609     1.0  0.07389  0.35335  0.37292  1.0000
  H   H1610     1.0  0.05792  0.42822  0.39903  1.0000
  H   H1611     1.0  0.01435  0.44882  0.32607  1.0000
  C   C951      1.0  0.07334  0.41416  0.29381  1.0000
  C   C952      1.0  0.05699  0.41689  0.29645  1.0000
  C   C953      1.0  0.04995  0.41153  0.28765  1.0000
  C   C954      1.0  0.05917  0.40331  0.27619  1.0000
  C   C955      1.0  0.07552  0.39991  0.27404  1.0000
  C   C956      1.0  0.08256  0.40536  0.28279  1.0000
  H   H1612     1.0  0.04972  0.42353  0.30495  1.0000
  H   H1613     1.0  0.03729  0.41415  0.28944  1.0000
  H   H1614     1.0  0.08275  0.39359  0.26522  1.0000
  H   H1615     1.0  0.09522  0.40307  0.28075  1.0000
  C   C957      1.0  0.01600  0.27820  0.43467  1.0000
  H   H1616     1.0  0.01609  0.24166  0.41089  1.0000
  C   C958      1.0  0.14244  0.23941  0.39269  1.0000
  C   C959      1.0  0.01694  0.30701  0.43927  1.0000
  C   C960      1.0  0.02916  0.29950  0.42896  1.0000
  C   C961      1.0  0.02869  0.28516  0.42666  1.0000
  H   H1617     1.0  0.02307  0.31857  0.31169  1.0000
  H   H1618     1.0  0.03910  0.30464  0.42283  1.0000
  H   H1619     1.0  0.03832  0.27938  0.41876  1.0000
  C   C962      1.0  0.09045  0.26852  0.41543  1.0000
  C   C963      1.0  0.08182  0.27361  0.40369  1.0000
  C   C964      1.0  0.08280  0.26357  0.39394  1.0000
  C   C965      1.0  0.09231  0.24846  0.39608  1.0000
  C   C966      1.0  0.10063  0.24346  0.40797  1.0000
  C   C967      1.0  0.09974  0.25340  0.41750  1.0000
  H   H1620     1.0  0.07455  0.28527  0.40203  1.0000
  H   H1621     1.0  0.07622  0.26752  0.38485  1.0000
  H   H1622     1.0  0.06084  0.43510  0.25792  1.0000
  H   H1623     1.0  0.10641  0.24935  0.42653  1.0000
  C   C968      1.0  0.07078  0.37532  0.39508  1.0000
  C   C969      1.0  0.05474  0.37885  0.40169  1.0000
  C   C970      1.0  0.04530  0.39306  0.39568  1.0000
  C   C971      1.0  0.05181  0.40366  0.38292  1.0000
  C   C972      1.0  0.06782  0.40002  0.37620  1.0000
  C   C973      1.0  0.07729  0.38594  0.38235  1.0000
  H   H1624     1.0  0.04963  0.37068  0.41149  1.0000
  H   H1625     1.0  0.03291  0.39581  0.40092  1.0000
  H   H1626     1.0  0.07293  0.40804  0.36633  1.0000
  H   H1627     1.0  0.08971  0.38322  0.37723  1.0000
  H   H1628     1.0  0.02560  0.34659  0.46992  1.0000
  C   C974      1.0  0.02525  0.41679  0.23100  1.0000
  S   S275      1.0  0.02805  0.34397  0.24882  1.0000
  C   C975      1.0  0.05421  0.46040  0.24689  1.0000
  H   H1629     1.0  0.01612  0.29995  0.28224  1.0000
  H   H1630     1.0  0.05312  0.47030  0.28168  1.0000
  H   H1631     1.0  0.13395  0.24948  0.39699  1.0000
  H   H1632     1.0  0.06426  0.29303  0.25528  1.0000
  H   H1633     1.0  0.99706  0.37042  0.25828  1.0000
  H   H1634     1.0  0.01757  0.30375  0.25417  1.0000
  H   H1635     1.0  0.01000  0.36913  0.27027  1.0000
  N   N68       1.0  0.04809  0.25871  0.46893  1.0000
  H   H1636     1.0  0.03833  0.30042  0.24985  1.0000
  S   S276      1.0  0.09409  0.23493  0.38479  1.0000
  H   H1637     1.0  0.05910  0.27481  0.30229  1.0000
  H   H1638     1.0  0.02034  0.39051  0.25442  1.0000
  C   C976      1.0  0.03567  0.27342  0.46614  1.0000
  H   H1639     1.0  0.04583  0.45448  0.40323  1.0000
  H   H1640     1.0  0.01705  0.24540  0.39048  1.0000
  H   H1641     1.0  0.12491  0.24622  0.35325  1.0000
  H   H1642     1.0  0.00125  0.43562  0.31485  1.0000
  H   H1643     1.0  0.15185  0.33504  0.24070  1.0000
  H   H1644     1.0  0.03917  0.28045  0.45424  1.0000
  H   H1645     1.0  0.06280  0.43482  0.37852  1.0000
  H   H1646     1.0  0.03283  0.39574  0.35089  1.0000
  H   H1647     1.0  0.01565  0.32234  0.29459  1.0000
  Fe  Fe135     1.0  0.05675  0.23343  0.35374  1.0000
  H   H1648     1.0  0.03323  0.32590  0.47453  1.0000
  H   H1649     1.0  0.10453  0.37791  0.33096  1.0000
  C   C977      1.0  0.06392  0.36466  0.33423  1.0000
  C   C978      1.0  0.06388  0.26306  0.46315  1.0000
  H   H1650     1.0  0.03068  0.45833  0.28403  1.0000
  C   C979      1.0  0.07275  0.46008  0.40657  1.0000
  H   H1651     1.0  0.06022  0.23971  0.39941  1.0000
  H   H1652     1.0  0.10262  0.46356  0.36587  1.0000
  H   H1653     1.0  0.03264  0.40828  0.23868  1.0000
  C   C980      1.0  0.01200  0.38760  0.24942  1.0000
  C   C981      1.0  0.04745  0.24852  0.45872  1.0000
  C   C982      1.0  0.06257  0.30498  0.25676  1.0000
  H   H1654     1.0  0.16455  0.31718  0.23676  1.0000
  S   S277      1.0  0.06487  0.24464  0.32881  1.0000
  H   H1655     1.0  0.03475  0.43442  0.25694  1.0000
  C   C983      1.0  0.14104  0.31578  0.24964  1.0000
  S   S278      1.0  0.08663  0.36814  0.24274  1.0000
  H   H1656     1.0  0.02658  0.29367  0.30485  1.0000
  H   H1657     1.0  0.99419  0.40805  0.27471  1.0000
  H   H1658     1.0  0.08889  0.39078  0.32276  1.0000
  C   C984      1.0  0.08179  0.37375  0.34436  1.0000
  H   H1659     1.0  0.05733  0.31341  0.24724  1.0000
  H   H1660     1.0  0.07151  0.28024  0.28331  1.0000
  C   C985      1.0  0.99507  0.45581  0.29712  1.0000
  N   N69       1.0  0.06496  0.37512  0.34395  1.0000
  C   C986      1.0  0.00358  0.28574  0.44486  1.0000
  C   C987      1.0  0.05278  0.30800  0.27276  1.0000
  H   H1661     1.0  0.08974  0.43842  0.40827  1.0000
  H   H1662     1.0  0.04728  0.32066  0.27069  1.0000
  C   C988      1.0  0.00218  0.37751  0.26282  1.0000
  S   S279      1.0  0.07313  0.34161  0.23513  1.0000
  H   H1663     1.0  0.01452  0.44175  0.25653  1.0000
  H   H1664     1.0  0.05421  0.37586  0.31325  1.0000
  N   N70       1.0  0.00274  0.40182  0.24031  1.0000
  H   H1665     1.0  0.03385  0.23422  0.45503  1.0000
  C   C989      1.0  0.03325  0.24066  0.46389  1.0000
  H   H1666     1.0  0.05115  0.46268  0.38244  1.0000
  H   H1667     1.0  0.02058  0.43940  0.27404  1.0000
  C   C990      1.0  0.00403  0.30021  0.44712  1.0000
  N   N71       1.0  0.07816  0.43893  0.39044  1.0000
  C   C991      1.0  0.08906  0.42325  0.38926  1.0000
  C   C992      1.0  0.00368  0.47873  0.29681  1.0000
  H   H1668     1.0  0.12616  0.23961  0.37950  1.0000
  C   C993      1.0  0.08533  0.40932  0.40269  1.0000
  H   H1669     1.0  0.06539  0.46104  0.41833  1.0000
  C   C994      1.0  0.02413  0.24312  0.39932  1.0000
  H   H1670     1.0  0.08947  0.42014  0.37817  1.0000
  H   H1671     1.0  0.15427  0.23771  0.34696  1.0000
  H   H1672     1.0  0.08876  0.25499  0.46274  1.0000
  H   H1673     1.0  0.12919  0.32342  0.25188  1.0000
  H   H1674     1.0  0.04768  0.25530  0.44650  1.0000
  H   H1675     1.0  0.02838  0.28510  0.26191  1.0000
  N   N72       1.0  0.03950  0.46377  0.25916  1.0000
  H   H1676     1.0  0.08080  0.24133  0.45862  1.0000
  C   C995      1.0  0.15246  0.32444  0.23668  1.0000
  C   C996      1.0  0.06217  0.43776  0.38971  1.0000
  C   C997      1.0  0.07782  0.44267  0.40560  1.0000
  H   H1677     1.0  0.05024  0.27783  0.27136  1.0000
  H   H1678     1.0  0.10286  0.45378  0.38567  1.0000
  H   H1679     1.0  0.10130  0.42354  0.38891  1.0000
  H   H1680     1.0  0.07460  0.44188  0.24167  1.0000
  C   C998      1.0  0.00202  0.44763  0.30971  1.0000
  C   C999      1.0  0.06177  0.44315  0.24640  1.0000
  C   C1000     1.0  0.02584  0.45990  0.25577  1.0000
  S   S280      1.0  0.05303  0.37782  0.23111  1.0000
  H   H1681     1.0  0.00131  0.33248  0.25203  1.0000
  H   H1682     1.0  0.07284  0.38037  0.31152  1.0000
  H   H1683     1.0  0.04389  0.37013  0.36088  1.0000
  H   H1684     1.0  0.08406  0.44742  0.36547  1.0000
  C   C1001     1.0  0.03481  0.30130  0.29765  1.0000
  C   C1002     1.0  0.13905  0.23853  0.37740  1.0000
  C   C1003     1.0  0.06171  0.27439  0.28984  1.0000
  H   H1685     1.0  0.04464  0.29815  0.30365  1.0000
  C   C1004     1.0  0.10081  0.45272  0.37469  1.0000
  H   H1686     1.0  0.09471  0.39880  0.40081  1.0000
  C   C1005     1.0  0.99902  0.41507  0.26328  1.0000
  H   H1687     1.0  0.07425  0.40626  0.40306  1.0000
  C   C1006     1.0  0.06306  0.35362  0.36938  1.0000
  H   H1688     1.0  0.03444  0.32642  0.29348  1.0000
  H   H1689     1.0  0.06332  0.39692  0.32643  1.0000
  H   H1690     1.0  0.05446  0.35047  0.38037  1.0000
  C   C1007     1.0  0.02653  0.31820  0.29914  1.0000
  S   S281      1.0  0.08391  0.47717  0.33963  1.0000
  C   C1008     1.0  0.09292  0.37861  0.32873  1.0000
  H   H1691     1.0  0.05227  0.36143  0.33821  1.0000
  C   C1009     1.0  0.03982  0.39550  0.33887  1.0000
  Fe  Fe136     1.0  0.08282  0.24050  0.36422  1.0000
  N   N73       1.0  0.04058  0.29850  0.28130  1.0000
  H   H1692     1.0  0.10983  0.44302  0.37028  1.0000
  H   H1693     1.0  0.06597  0.26188  0.28933  1.0000
  H   H1694     1.0  0.07629  0.46235  0.37568  1.0000
  H   H1695     1.0  0.08512  0.41121  0.41420  1.0000
  H   H1696     1.0  0.03627  0.40723  0.33156  1.0000
  H   H1697     1.0  0.02323  0.31659  0.27060  1.0000
  H   H1698     1.0  0.02899  0.25361  0.39702  1.0000
  H   H1699     1.0  0.06532  0.34455  0.36266  1.0000
  C   C1010     1.0  0.02413  0.44282  0.26117  1.0000
  H   H1700     1.0  0.01455  0.46668  0.26148  1.0000
  C   C1011     1.0  0.02658  0.30367  0.27381  1.0000
  H   H1701     1.0  0.07273  0.35345  0.33597  1.0000
  H   H1702     1.0  0.08739  0.36152  0.34907  1.0000
  H   H1703     1.0  0.06115  0.30680  0.28008  1.0000
  H   H1704     1.0  0.05915  0.39934  0.34556  1.0000
  C   C1012     1.0  0.05336  0.23493  0.41106  1.0000
  C   C1013     1.0  0.13083  0.23492  0.34986  1.0000
  C   C1014     1.0  0.05519  0.45813  0.28045  1.0000
  C   C1015     1.0  0.08411  0.45064  0.37633  1.0000
  C   C1016     1.0  0.01521  0.34828  0.23617  1.0000
  H   H1705     1.0  0.07460  0.30666  0.25528  1.0000
  H   H1706     1.0  0.03787  0.27465  0.28989  1.0000
  H   H1707     1.0  0.06589  0.26795  0.45036  1.0000
  C   C1017     1.0  0.04705  0.28121  0.28272  1.0000
  C   C1018     1.0  0.05626  0.37004  0.36050  1.0000
  H   H1708     1.0  0.06437  0.27272  0.46797  1.0000
  H   H1709     1.0  0.05552  0.37838  0.36765  1.0000
  H   H1710     1.0  0.06768  0.24151  0.42242  1.0000
  H   H1711     1.0  0.03665  0.38706  0.33429  1.0000
  C   C1019     1.0  0.05755  0.39203  0.33842  1.0000
  H   H1712     1.0  0.06577  0.46786  0.39816  1.0000
  H   H1713     1.0  0.14144  0.24947  0.36897  1.0000
  H   H1714     1.0  0.02437  0.27098  0.46634  1.0000
  H   H1715     1.0  0.06922  0.35277  0.47155  1.0000
  C   C1020     1.0  0.04163  0.45530  0.27532  1.0000
  H   H1716     1.0  0.06670  0.45483  0.27261  1.0000
  H   H1717     1.0  0.14041  0.30471  0.24740  1.0000
  H   H1718     1.0  0.03803  0.44985  0.38969  1.0000
  H   H1719     1.0  0.02411  0.29545  0.47277  1.0000
  H   H1720     1.0  0.04395  0.24489  0.41434  1.0000
  C   C1021     1.0  0.02812  0.29776  0.25912  1.0000
  H   H1721     1.0  0.13200  0.23700  0.33708  1.0000
  H   H1722     1.0  0.01958  0.37981  0.24155  1.0000
  S   S282      1.0  0.02040  0.47979  0.31696  1.0000
  H   H1723     1.0  0.02182  0.24908  0.46475  1.0000
  H   H1724     1.0  0.05684  0.43908  0.23878  1.0000
  H   H1725     1.0  0.05188  0.46601  0.23508  1.0000
  H   H1726     1.0  0.10914  0.34036  0.23070  1.0000
  H   H1727     1.0  0.99378  0.28038  0.45111  1.0000
  H   H1728     1.0  0.10598  0.34068  0.47210  1.0000
  H   H1729     1.0  0.99458  0.30597  0.45514  1.0000
  C   C1022     1.0  0.99582  0.47141  0.29066  1.0000
  Fe  Fe137     1.0  0.99666  0.24788  0.44404  1.0000
  C   C1023     1.0  0.03552  0.48102  0.25886  1.0000
  H   H1730     1.0  0.99958  0.38675  0.22740  1.0000
  C   C1024     1.0  0.01389  0.40964  0.22687  1.0000
  H   H1731     1.0  0.13152  0.34847  0.22708  1.0000
  Fe  Fe138     1.0  0.10138  0.27151  0.64512  1.0000
  S   S283      1.0  0.07665  0.28545  0.64802  1.0000
  S   S284      1.0  0.12199  0.27784  0.62641  1.0000
  Fe  Fe139     1.0  0.07698  0.27918  0.67348  1.0000
  S   S285      1.0  0.10231  0.26666  0.67026  1.0000
  H   H1732     1.0  0.07001  0.43314  0.72373  1.0000
  H   H1733     1.0  0.05975  0.35362  0.64855  1.0000
  H   H1734     1.0  0.13290  0.46999  0.61652  1.0000
  H   H1735     1.0  0.03856  0.31007  0.49744  1.0000
  H   H1736     1.0  0.04612  0.36847  0.71080  1.0000
  H   H1737     1.0  0.03510  0.29136  0.50796  1.0000
  H   H1738     1.0  0.07743  0.46573  0.71596  1.0000
  H   H1739     1.0  0.03907  0.26047  0.50607  1.0000
  H   H1740     1.0  0.03280  0.30580  0.51850  1.0000
  C   C1025     1.0  0.04125  0.41859  0.64471  1.0000
  H   H1741     1.0  0.07612  0.34795  0.66571  1.0000
  C   C1026     1.0  0.03295  0.40282  0.61812  1.0000
  C   C1027     1.0  0.04118  0.46251  0.66526  1.0000
  H   H1742     1.0  0.13978  0.25907  0.65135  1.0000
  H   H1743     1.0  0.05545  0.30737  0.58342  1.0000
  H   H1744     1.0  0.09298  0.33230  0.66760  1.0000
  Fe  Fe140     1.0  0.09088  0.44394  0.60690  1.0000
  S   S286      1.0  0.11124  0.44972  0.61186  1.0000
  S   S287      1.0  0.09259  0.43558  0.58533  1.0000
  Fe  Fe141     1.0  0.06823  0.45479  0.63486  1.0000
  S   S288      1.0  0.08648  0.46148  0.64236  1.0000
  C   C1028     1.0  0.04071  0.24743  0.64926  1.0000
  Fe  Fe142     1.0  0.09435  0.47171  0.61710  1.0000
  H   H1745     1.0  0.01710  0.41738  0.63363  1.0000
  Fe  Fe143     1.0  0.10183  0.43911  0.63675  1.0000
  S   S289      1.0  0.11777  0.42335  0.65230  1.0000
  C   C1029     1.0  0.01247  0.24304  0.59532  1.0000
  S   S290      1.0  0.08294  0.43137  0.63145  1.0000
  C   C1030     1.0  0.01916  0.24331  0.67141  1.0000
  H   H1746     1.0  0.08957  0.44909  0.70775  1.0000
  H   H1747     1.0  0.04310  0.39458  0.70061  1.0000
  S   S291      1.0  0.04330  0.45607  0.64830  1.0000
  H   H1748     1.0  0.14124  0.28598  0.59604  1.0000
  Fe  Fe144     1.0  0.06090  0.35957  0.54609  1.0000
  S   S292      1.0  0.04316  0.36687  0.56699  1.0000
  S   S293      1.0  0.05903  0.36931  0.52082  1.0000
  Fe  Fe145     1.0  0.08220  0.33544  0.56546  1.0000
  S   S294      1.0  0.06629  0.33994  0.58788  1.0000
  S   S295      1.0  0.10526  0.31810  0.56259  1.0000
  Fe  Fe146     1.0  0.04671  0.34126  0.57702  1.0000
  S   S296      1.0  0.02744  0.32925  0.59135  1.0000
  Fe  Fe147     1.0  0.06401  0.36531  0.57657  1.0000
  S   S297      1.0  0.06389  0.37715  0.59528  1.0000
  S   S298      1.0  0.06285  0.33393  0.55568  1.0000
  S   S299      1.0  0.08154  0.36070  0.55465  1.0000
  C   C1031     1.0  0.01443  0.32971  0.58022  1.0000
  C   C1032     1.0  0.01197  0.34186  0.56734  1.0000
  C   C1033     1.0  0.07758  0.45457  0.71331  1.0000
  H   H1749     1.0  0.01811  0.35124  0.56416  1.0000
  C   C1034     1.0  0.99866  0.25732  0.49723  1.0000
  H   H1750     1.0  0.00328  0.39543  0.71286  1.0000
  C   C1035     1.0  0.05849  0.33061  0.50754  1.0000
  C   C1036     1.0  0.05625  0.34150  0.51657  1.0000
  C   C1037     1.0  0.05931  0.35630  0.50951  1.0000
  H   H1751     1.0  0.14637  0.24617  0.62131  1.0000
  S   S300      1.0  0.06779  0.25738  0.67816  1.0000
  H   H1752     1.0  0.05671  0.31899  0.51320  1.0000
  H   H1753     1.0  0.05226  0.33838  0.52900  1.0000
  H   H1754     1.0  0.06698  0.29562  0.60710  1.0000
  H   H1755     1.0  0.14178  0.44111  0.65029  1.0000
  C   C1038     1.0  0.10742  0.41745  0.67138  1.0000
  C   C1039     1.0  0.09287  0.42648  0.67713  1.0000
  C   C1040     1.0  0.08501  0.42208  0.69258  1.0000
  C   C1041     1.0  0.09130  0.40824  0.70216  1.0000
  C   C1042     1.0  0.10575  0.39907  0.69640  1.0000
  C   C1043     1.0  0.11393  0.40383  0.68109  1.0000
  H   H1756     1.0  0.08771  0.43697  0.66975  1.0000
  H   H1757     1.0  0.07391  0.42931  0.69695  1.0000
  H   H1758     1.0  0.11071  0.38841  0.70374  1.0000
  H   H1759     1.0  0.12518  0.39680  0.67668  1.0000
  C   C1044     1.0  0.08618  0.41840  0.58771  1.0000
  C   C1045     1.0  0.08360  0.40834  0.60228  1.0000
  C   C1046     1.0  0.07722  0.39543  0.60428  1.0000
  C   C1047     1.0  0.07362  0.39233  0.59167  1.0000
  C   C1048     1.0  0.07679  0.40199  0.57692  1.0000
  C   C1049     1.0  0.08304  0.41504  0.57497  1.0000
  H   H1760     1.0  0.08641  0.41057  0.61205  1.0000
  H   H1761     1.0  0.07492  0.38791  0.61568  1.0000
  H   H1762     1.0  0.07401  0.39967  0.56714  1.0000
  H   H1763     1.0  0.08513  0.42272  0.56363  1.0000
  H   H1764     1.0  0.15315  0.26975  0.66197  1.0000
  H   H1765     1.0  0.17249  0.27242  0.65930  1.0000
  C   C1050     1.0  0.14414  0.23890  0.66979  1.0000
  H   H1766     1.0  0.07047  0.45744  0.70439  1.0000
  H   H1767     1.0  0.08367  0.28087  0.59169  1.0000
  H   H1768     1.0  0.00735  0.30260  0.51809  1.0000
  H   H1769     1.0  0.05871  0.44573  0.58432  1.0000
  C   C1051     1.0  0.06545  0.34964  0.48407  1.0000
  H   H1770     1.0  0.03513  0.28554  0.57191  1.0000
  C   C1052     1.0  0.11184  0.33963  0.48163  1.0000
  H   H1771     1.0  0.02433  0.33211  0.51164  1.0000
  C   C1053     1.0  0.03386  0.37025  0.71771  1.0000
  H   H1772     1.0  0.12005  0.45610  0.64072  1.0000
  H   H1773     1.0  0.05452  0.45003  0.60301  1.0000
  C   C1054     1.0  0.00652  0.31761  0.58429  1.0000
  H   H1774     1.0  0.15361  0.45232  0.65268  1.0000
  C   C1055     1.0  0.10288  0.30734  0.69731  1.0000
  H   H1775     1.0  0.09020  0.29654  0.53220  1.0000
  S   S301      1.0  0.09456  0.24929  0.64725  1.0000
  H   H1776     1.0  0.04883  0.42206  0.70983  1.0000
  H   H1777     1.0  0.03223  0.42724  0.65067  1.0000
  H   H1778     1.0  0.16379  0.27764  0.64281  1.0000
  N   N74       1.0  0.12863  0.46303  0.65702  1.0000
  H   H1779     1.0  0.99516  0.24491  0.63770  1.0000
  C   C1056     1.0  0.14657  0.24680  0.65230  1.0000
  H   H1780     1.0  0.06573  0.37197  0.48761  1.0000
  H   H1781     1.0  0.14041  0.24135  0.64704  1.0000
  H   H1782     1.0  0.01829  0.24152  0.61700  1.0000
  C   C1057     1.0  0.03032  0.46114  0.69288  1.0000
  H   H1783     1.0  0.07384  0.33431  0.71372  1.0000
  H   H1784     1.0  0.05418  0.41708  0.69134  1.0000
  C   C1058     1.0  0.99614  0.31762  0.57551  1.0000
  H   H1785     1.0  0.04086  0.45859  0.59007  1.0000
  H   H1786     1.0  0.04271  0.29325  0.55201  1.0000
  H   H1787     1.0  0.10543  0.35186  0.61192  1.0000
  H   H1788     1.0  0.99628  0.24490  0.48157  1.0000
  H   H1789     1.0  0.14528  0.32642  0.51913  1.0000
  H   H1790     1.0  0.08769  0.30779  0.51345  1.0000
  C   C1059     1.0  0.05332  0.29577  0.59036  1.0000
  H   H1791     1.0  0.14738  0.46752  0.67586  1.0000
  H   H1792     1.0  0.06607  0.26389  0.60205  1.0000
  H   H1793     1.0  0.07563  0.35267  0.62127  1.0000
  H   H1794     1.0  0.14901  0.24419  0.67640  1.0000
  C   C1060     1.0  0.02387  0.41899  0.62137  1.0000
  H   H1795     1.0  0.09478  0.35196  0.66357  1.0000
  H   H1796     1.0  0.99472  0.29199  0.65369  1.0000
  C   C1061     1.0  0.11717  0.28888  0.60868  1.0000
  C   C1062     1.0  0.10156  0.29562  0.60771  1.0000
  C   C1063     1.0  0.09794  0.30502  0.59369  1.0000
  C   C1064     1.0  0.10984  0.30711  0.58038  1.0000
  C   C1065     1.0  0.12544  0.30004  0.58119  1.0000
  C   C1066     1.0  0.12913  0.29115  0.59539  1.0000
  H   H1797     1.0  0.09224  0.29377  0.61776  1.0000
  H   H1798     1.0  0.08591  0.31031  0.59309  1.0000
  H   H1799     1.0  0.13471  0.30164  0.57091  1.0000
  H   H1800     1.0  0.08650  0.33996  0.52102  1.0000
  H   H1801     1.0  0.04330  0.25941  0.58578  1.0000
  C   C1067     1.0  0.10075  0.35664  0.51171  1.0000
  C   C1068     1.0  0.09044  0.30819  0.52439  1.0000
  H   H1802     1.0  0.02474  0.39481  0.62188  1.0000
  C   C1069     1.0  0.03199  0.25029  0.66376  1.0000
  C   C1070     1.0  0.09574  0.31949  0.70525  1.0000
  C   C1071     1.0  0.08040  0.28409  0.58019  1.0000
  C   C1072     1.0  0.01002  0.45388  0.61370  1.0000
  C   C1073     1.0  0.03102  0.30405  0.50764  1.0000
  H   H1803     1.0  0.01192  0.29470  0.62178  1.0000
  H   H1804     1.0  0.09307  0.36202  0.50321  1.0000
  S   S302      1.0  0.00176  0.27311  0.51692  1.0000
  H   H1805     1.0  0.00156  0.41609  0.70544  1.0000
  H   H1806     1.0  0.03485  0.25822  0.66886  1.0000
  H   H1807     1.0  0.10789  0.31701  0.49299  1.0000
  H   H1808     1.0  0.08103  0.31667  0.53022  1.0000
  C   C1074     1.0  0.10468  0.32856  0.49625  1.0000
  H   H1809     1.0  0.03896  0.30497  0.56577  1.0000
  C   C1075     1.0  0.05776  0.34248  0.64776  1.0000
  S   S303      1.0  0.06852  0.31960  0.48089  1.0000
  C   C1076     1.0  0.16480  0.26898  0.65387  1.0000
  S   S304      1.0  0.07470  0.46699  0.60993  1.0000
  H   H1810     1.0  0.11344  0.29861  0.64873  1.0000
  C   C1077     1.0  0.09882  0.34536  0.60842  1.0000
  C   C1078     1.0  0.00508  0.27215  0.63357  1.0000
  S   S305      1.0  0.00774  0.26339  0.59112  1.0000
  H   H1811     1.0  0.01510  0.41886  0.72186  1.0000
  H   H1812     1.0  0.06927  0.25821  0.58455  1.0000
  H   H1813     1.0  0.03704  0.40771  0.64718  1.0000
  H   H1814     1.0  0.03554  0.27398  0.59733  1.0000
  H   H1815     1.0  0.15517  0.26747  0.62764  1.0000
  H   H1816     1.0  0.00846  0.32771  0.52681  1.0000
  H   H1817     1.0  0.00654  0.35798  0.50098  1.0000
  H   H1818     1.0  0.00116  0.34550  0.48501  1.0000
  C   C1079     1.0  0.09258  0.34552  0.64317  1.0000
  H   H1819     1.0  0.01218  0.30397  0.49773  1.0000
  H   H1820     1.0  0.11546  0.30301  0.69551  1.0000
  H   H1821     1.0  0.99896  0.35169  0.54912  1.0000
  H   H1822     1.0  0.10470  0.27597  0.56929  1.0000
  H   H1823     1.0  0.04216  0.28714  0.47898  1.0000
  C   C1080     1.0  0.06337  0.33452  0.49130  1.0000
  H   H1824     1.0  0.15429  0.42891  0.67252  1.0000
  C   C1081     1.0  0.00978  0.40494  0.70913  1.0000
  C   C1082     1.0  0.09384  0.30060  0.69190  1.0000
  H   H1825     1.0  0.04850  0.33892  0.65795  1.0000
  H   H1826     1.0  0.11050  0.44999  0.66814  1.0000
  H   H1827     1.0  0.09466  0.35288  0.59789  1.0000
  H   H1828     1.0  0.10674  0.33469  0.60484  1.0000
  C   C1083     1.0  0.10044  0.31960  0.63611  1.0000
  C   C1084     1.0  0.08451  0.34147  0.62129  1.0000
  H   H1829     1.0  0.04358  0.23502  0.63143  1.0000
  H   H1830     1.0  0.00663  0.32719  0.48038  1.0000
  H   H1831     1.0  0.05717  0.24638  0.50461  1.0000
  H   H1832     1.0  0.05297  0.28327  0.61467  1.0000
  C   C1085     1.0  0.04643  0.42508  0.62708  1.0000
  C   C1086     1.0  0.07274  0.32938  0.64761  1.0000
  H   H1833     1.0  0.16681  0.23845  0.61326  1.0000
  C   C1087     1.0  0.10682  0.31160  0.52172  1.0000
  H   H1834     1.0  0.06695  0.29512  0.55768  1.0000
  H   H1835     1.0  0.03238  0.33833  0.48716  1.0000
  H   H1836     1.0  0.05584  0.41587  0.62233  1.0000
  H   H1837     1.0  0.11717  0.45616  0.68136  1.0000
  H   H1838     1.0  0.03267  0.24948  0.49002  1.0000
  N   N75       1.0  0.16336  0.24605  0.64346  1.0000
  H   H1839     1.0  0.09056  0.46970  0.68064  1.0000
  C   C1088     1.0  0.10484  0.30935  0.65133  1.0000
  C   C1089     1.0  0.13710  0.47689  0.67334  1.0000
  C   C1090     1.0  0.03112  0.45685  0.67906  1.0000
  H   H1840     1.0  0.14434  0.47904  0.64880  1.0000
  C   C1091     1.0  0.08885  0.34414  0.66099  1.0000
  H   H1841     1.0  0.03172  0.35844  0.72367  1.0000
  C   C1092     1.0  0.14212  0.44884  0.65767  1.0000
  H   H1842     1.0  0.09383  0.26104  0.57559  1.0000
  H   H1843     1.0  0.11553  0.30183  0.51700  1.0000
  Fe  Fe148     1.0  0.06982  0.26262  0.65235  1.0000
  H   H1844     1.0  0.07942  0.33385  0.61731  1.0000
  S   S306      1.0  0.03900  0.47635  0.71001  1.0000
  C   C1093     1.0  0.06351  0.36048  0.49319  1.0000
  H   H1845     1.0  0.13371  0.31712  0.50278  1.0000
  H   H1846     1.0  0.11426  0.47631  0.64035  1.0000
  C   C1094     1.0  0.04328  0.29281  0.56409  1.0000
  H   H1847     1.0  0.08708  0.35776  0.63822  1.0000
  H   H1848     1.0  0.13135  0.24048  0.67487  1.0000
  C   C1095     1.0  0.02331  0.44564  0.62254  1.0000
  H   H1849     1.0  0.09948  0.29109  0.68608  1.0000
  H   H1850     1.0  0.03234  0.43564  0.59383  1.0000
  H   H1851     1.0  0.01047  0.26128  0.64096  1.0000
  C   C1096     1.0  0.15811  0.24895  0.61632  1.0000
  C   C1097     1.0  0.06168  0.26714  0.59111  1.0000
  C   C1098     1.0  0.00931  0.33394  0.48738  1.0000
  C   C1099     1.0  0.04912  0.44790  0.59458  1.0000
  C   C1100     1.0  0.13720  0.46946  0.62694  1.0000
  S   S307      1.0  0.06592  0.29851  0.68674  1.0000
  N   N76       1.0  0.08758  0.33405  0.63740  1.0000
  H   H1852     1.0  0.10035  0.33739  0.53179  1.0000
  C   C1101     1.0  0.01676  0.23512  0.60941  1.0000
  C   C1102     1.0  0.12652  0.32696  0.50838  1.0000
  N   N77       1.0  0.03368  0.43087  0.61795  1.0000
  C   C1103     1.0  0.17222  0.25233  0.65114  1.0000
  H   H1853     1.0  0.13228  0.31435  0.53122  1.0000
  C   C1104     1.0  0.13275  0.32568  0.52286  1.0000
  C   C1105     1.0  0.06046  0.28634  0.56591  1.0000
  H   H1854     1.0  0.10873  0.31044  0.53349  1.0000
  C   C1106     1.0  0.04925  0.47711  0.67899  1.0000
  H   H1855     1.0  0.02767  0.27795  0.62287  1.0000
  H   H1856     1.0  0.13989  0.48097  0.62535  1.0000
  H   H1857     1.0  0.05034  0.42342  0.59790  1.0000
  H   H1858     1.0  0.12643  0.33534  0.52890  1.0000
  C   C1107     1.0  0.13354  0.47719  0.65779  1.0000
  H   H1859     1.0  0.00832  0.24068  0.57413  1.0000
  C   C1108     1.0  0.11442  0.45987  0.66965  1.0000
  C   C1109     1.0  0.04512  0.26386  0.59513  1.0000
  H   H1860     1.0  0.10544  0.34481  0.63894  1.0000
  H   H1861     1.0  0.09468  0.30546  0.65989  1.0000
  S   S308      1.0  0.10764  0.32768  0.71167  1.0000
  H   H1862     1.0  0.17489  0.25861  0.62123  1.0000
  C   C1110     1.0  0.09310  0.27358  0.57017  1.0000
  C   C1111     1.0  0.07044  0.31843  0.70190  1.0000
  C   C1112     1.0  0.09907  0.33978  0.51956  1.0000
  H   H1863     1.0  0.04251  0.39738  0.62451  1.0000
  H   H1864     1.0  0.05167  0.23753  0.48658  1.0000
  C   C1113     1.0  0.07946  0.32499  0.70759  1.0000
  H   H1865     1.0  0.11158  0.32256  0.62856  1.0000
  H   H1866     1.0  0.01067  0.35559  0.51956  1.0000
  H   H1867     1.0  0.03783  0.40342  0.60550  1.0000
  H   H1868     1.0  0.02422  0.44891  0.67911  1.0000
  H   H1869     1.0  0.09720  0.31199  0.63045  1.0000
  H   H1870     1.0  0.04069  0.29655  0.59151  1.0000
  H   H1871     1.0  0.12961  0.33753  0.49996  1.0000
  N   N78       1.0  0.00611  0.32619  0.50444  1.0000
  H   H1872     1.0  0.02492  0.27924  0.48888  1.0000
  H   H1873     1.0  0.01487  0.42309  0.61416  1.0000
  H   H1874     1.0  0.99631  0.27200  0.66330  1.0000
  H   H1875     1.0  0.02278  0.45652  0.70357  1.0000
  H   H1876     1.0  0.05787  0.32277  0.70370  1.0000
  C   C1114     1.0  0.01353  0.30899  0.50691  1.0000
  C   C1115     1.0  0.04122  0.43380  0.60081  1.0000
  N   N79       1.0  0.10931  0.32712  0.51132  1.0000
  H   H1877     1.0  0.08192  0.29627  0.57494  1.0000
  H   H1878     1.0  0.17396  0.24448  0.66251  1.0000
  H   H1879     1.0  0.06490  0.27557  0.56116  1.0000
  H   H1880     1.0  0.07040  0.31977  0.64392  1.0000
  C   C1116     1.0  0.05530  0.29434  0.60692  1.0000
  C   C1117     1.0  0.07759  0.30620  0.69405  1.0000
  C   C1118     1.0  0.00460  0.35123  0.51316  1.0000
  H   H1881     1.0  0.11084  0.31514  0.65637  1.0000
  H   H1882     1.0  0.01749  0.44332  0.63509  1.0000
  H   H1883     1.0  0.09174  0.33231  0.49770  1.0000
  H   H1884     1.0  0.01896  0.40330  0.69857  1.0000
  S   S309      1.0  0.05570  0.25718  0.63864  1.0000
  C   C1119     1.0  0.01142  0.33363  0.51431  1.0000
  C   C1120     1.0  0.14309  0.43778  0.67369  1.0000
  H   H1885     1.0  0.07381  0.32451  0.65988  1.0000
  C   C1121     1.0  0.04529  0.24996  0.48568  1.0000
  C   C1122     1.0  0.00114  0.34212  0.55885  1.0000
  H   H1886     1.0  0.09144  0.27603  0.55812  1.0000
  H   H1887     1.0  0.04367  0.25494  0.60615  1.0000
  H   H1888     1.0  0.05315  0.34445  0.63717  1.0000
  H   H1889     1.0  0.04658  0.30384  0.61197  1.0000
  C   C1123     1.0  0.03688  0.23726  0.64265  1.0000
  H   H1890     1.0  0.09708  0.36368  0.52074  1.0000
  N   N80       1.0  0.06360  0.28322  0.58201  1.0000
  Fe  Fe149     1.0  0.09326  0.24542  0.67272  1.0000
  H   H1891     1.0  0.05157  0.41567  0.65008  1.0000
  S   S310      1.0  0.99490  0.47314  0.72547  1.0000
  H   H1892     1.0  0.03037  0.45429  0.62128  1.0000
  C   C1124     1.0  0.04994  0.47290  0.66519  1.0000
  H   H1893     1.0  0.13350  0.43128  0.67771  1.0000
  H   H1894     1.0  0.00404  0.46506  0.61737  1.0000
  H   H1895     1.0  0.05706  0.47795  0.65444  1.0000
  H   H1896     1.0  0.00563  0.26891  0.62259  1.0000
  H   H1897     1.0  0.05641  0.26540  0.49272  1.0000
  C   C1125     1.0  0.99534  0.25876  0.51265  1.0000
  H   H1898     1.0  0.18430  0.25256  0.64402  1.0000
  H   H1899     1.0  0.14281  0.44383  0.68271  1.0000
  H   H1900     1.0  0.00485  0.26519  0.48813  1.0000
  C   C1126     1.0  0.01619  0.28343  0.62938  1.0000
  C   C1127     1.0  0.04978  0.25609  0.49769  1.0000
  H   H1901     1.0  0.02560  0.37564  0.70986  1.0000
  H   H1902     1.0  0.01865  0.28533  0.63984  1.0000
  H   H1903     1.0  0.14806  0.46020  0.62697  1.0000
  C   C1128     1.0  0.16323  0.25586  0.62723  1.0000
  C   C1129     1.0  0.04444  0.39940  0.70988  1.0000
  C   C1130     1.0  0.03952  0.47116  0.69284  1.0000
  C   C1131     1.0  0.04518  0.41659  0.70241  1.0000
  C   C1132     1.0  0.10001  0.47360  0.67089  1.0000
  H   H1904     1.0  0.05234  0.43456  0.62599  1.0000
  H   H1905     1.0  0.01215  0.24582  0.68246  1.0000
  H   H1906     1.0  0.03394  0.42367  0.69942  1.0000
  C   C1133     1.0  0.12417  0.46615  0.64158  1.0000
  C   C1134     1.0  0.01101  0.23466  0.58530  1.0000
  H   H1907     1.0  0.00096  0.44692  0.61662  1.0000
  H   H1908     1.0  0.00858  0.30810  0.59408  1.0000
  S   S311      1.0  0.00164  0.28882  0.55154  1.0000
  C   C1135     1.0  0.01596  0.40628  0.72268  1.0000
  H   H1909     1.0  0.09498  0.47751  0.66044  1.0000
  H   H1910     1.0  0.11291  0.35776  0.50607  1.0000
  C   C1136     1.0  0.02613  0.33608  0.47955  1.0000
  N   N81       1.0  0.03199  0.39668  0.72457  1.0000
  H   H1911     1.0  0.11012  0.35153  0.48331  1.0000
  H   H1912     1.0  0.05627  0.39306  0.71211  1.0000
  H   H1913     1.0  0.12685  0.47577  0.68318  1.0000
  H   H1914     1.0  0.49132  0.23764  0.69425  1.0000
  H   H1915     1.0  0.01437  0.45678  0.60093  1.0000
  H   H1916     1.0  0.15726  0.25773  0.60527  1.0000
  S   S312      1.0  0.08104  0.40282  0.72137  1.0000
  C   C1137     1.0  0.99359  0.24600  0.49350  1.0000
  C   C1138     1.0  0.03172  0.28428  0.47746  1.0000
  C   C1139     1.0  0.01523  0.23329  0.66469  1.0000
  H   H1917     1.0  0.12452  0.33484  0.47748  1.0000
  H   H1918     1.0  0.07715  0.24369  0.47844  1.0000
  H   H1919     1.0  0.19134  0.23576  0.62411  1.0000
  C   C1140     1.0  0.13427  0.41037  0.88485  1.0000
  Fe  Fe150     1.0  0.34771  0.35824  0.84713  1.0000
  S   S313      1.0  0.33699  0.38025  0.83173  1.0000
  Fe  Fe151     1.0  0.34775  0.33798  0.87932  1.0000
  S   S314      1.0  0.36733  0.31932  0.87055  1.0000
  S   S315      1.0  0.33694  0.33674  0.90473  1.0000
  Fe  Fe152     1.0  0.37850  0.33899  0.85558  1.0000
  Fe  Fe153     1.0  0.35436  0.32316  0.85179  1.0000
  S   S316      1.0  0.35980  0.35748  0.86574  1.0000
  S   S317      1.0  0.33381  0.34043  0.86173  1.0000
  S   S318      1.0  0.25152  0.42517  0.86826  1.0000
  Fe  Fe154     1.0  0.26807  0.44096  0.86315  1.0000
  S   S319      1.0  0.29288  0.43269  0.86651  1.0000
  Fe  Fe155     1.0  0.09676  0.34362  0.72869  1.0000
  S   S320      1.0  0.47448  0.27713  0.96115  1.0000
  C   C1141     1.0  0.03172  0.37956  0.73013  1.0000
  Fe  Fe156     1.0  0.01060  0.45548  0.76309  1.0000
  S   S321      1.0  0.02098  0.44388  0.78398  1.0000
  H   H1920     1.0  0.15952  0.37036  0.96487  1.0000
  C   C1142     1.0  0.39731  0.39650  0.82997  1.0000
  S   S322      1.0  0.01943  0.44440  0.74252  1.0000
  C   C1143     1.0  0.00340  0.42283  0.78718  1.0000
  H   H1921     1.0  0.22781  0.43226  0.95167  1.0000
  N   N82       1.0  0.07831  0.43825  0.74131  1.0000
  H   H1922     1.0  0.12336  0.39732  0.77306  1.0000
  H   H1923     1.0  0.48256  0.31582  0.84050  1.0000
  Fe  Fe157     1.0  0.10164  0.35229  0.75663  1.0000
  S   S323      1.0  0.07971  0.37101  0.75786  1.0000
  S   S324      1.0  0.11610  0.34537  0.77495  1.0000
  Fe  Fe158     1.0  0.06870  0.35403  0.75355  1.0000
  S   S325      1.0  0.04367  0.35442  0.76625  1.0000
  S   S326      1.0  0.08996  0.33448  0.75450  1.0000
  H   H1924     1.0  0.29029  0.29009  0.76987  1.0000
  H   H1925     1.0  0.37116  0.40539  0.79036  1.0000
  H   H1926     1.0  0.16950  0.35717  0.74727  1.0000
  H   H1927     1.0  0.38695  0.37096  0.84039  1.0000
  H   H1928     1.0  0.19483  0.45283  0.94873  1.0000
  H   H1929     1.0  0.39710  0.39180  0.84255  1.0000
  Fe  Fe159     1.0  0.02113  0.34763  0.85029  1.0000
  S   S327      1.0  0.04015  0.33062  0.83840  1.0000
  C   C1144     1.0  0.36743  0.39838  0.85314  1.0000
  C   C1145     1.0  0.20983  0.33709  0.76648  1.0000
  H   H1930     1.0  0.01295  0.35444  0.94216  1.0000
  H   H1931     1.0  0.45920  0.32713  0.86904  1.0000
  C   C1146     1.0  0.14361  0.43672  0.89384  1.0000
  C   C1147     1.0  0.29865  0.47178  0.86040  1.0000
  H   H1932     1.0  0.38395  0.41436  0.80671  1.0000
  Fe  Fe160     1.0  0.45740  0.27264  0.95017  1.0000
  H   H1933     1.0  0.17498  0.42866  0.89417  1.0000
  H   H1934     1.0  0.20943  0.46746  0.91139  1.0000
  C   C1148     1.0  0.29306  0.27538  0.87873  1.0000
  C   C1149     1.0  0.17675  0.45734  0.90067  1.0000
  C   C1150     1.0  0.39288  0.36769  0.81678  1.0000
  S   S328      1.0  0.12013  0.47366  0.95900  1.0000
  C   C1151     1.0  0.38332  0.40191  0.80892  1.0000
  H   H1935     1.0  0.33447  0.28608  0.76270  1.0000
  Fe  Fe161     1.0  0.28245  0.25118  0.82178  1.0000
  S   S329      1.0  0.26157  0.24775  0.84124  1.0000
  H   H1936     1.0  0.14572  0.40364  0.87954  1.0000
  Fe  Fe162     1.0  0.28308  0.28201  0.82803  1.0000
  S   S330      1.0  0.26228  0.28110  0.84800  1.0000
  S   S331      1.0  0.29337  0.30340  0.82071  1.0000
  Fe  Fe163     1.0  0.27369  0.25589  0.85477  1.0000
  H   H1937     1.0  0.00514  0.40520  0.83051  1.0000
  Fe  Fe164     1.0  0.25207  0.27321  0.83265  1.0000
  S   S332      1.0  0.22656  0.28204  0.83178  1.0000
  S   S333      1.0  0.29546  0.25736  0.83607  1.0000
  S   S334      1.0  0.27196  0.27607  0.81193  1.0000
  H   H1938     1.0  0.00698  0.40307  0.73332  1.0000
  S   S335      1.0  0.14112  0.43735  0.96339  1.0000
  Fe  Fe165     1.0  0.17076  0.39111  0.83640  1.0000
  S   S336      1.0  0.18283  0.36606  0.84309  1.0000
  S   S337      1.0  0.17342  0.40810  0.84885  1.0000
  Fe  Fe166     1.0  0.15296  0.38386  0.81604  1.0000
  S   S338      1.0  0.16355  0.35832  0.82153  1.0000
  S   S339      1.0  0.13617  0.39359  0.79964  1.0000
  Fe  Fe167     1.0  0.15932  0.36115  0.84589  1.0000
  S   S340      1.0  0.14895  0.34402  0.86601  1.0000
  Fe  Fe168     1.0  0.18594  0.36579  0.81804  1.0000
  S   S341      1.0  0.20872  0.35434  0.80436  1.0000
  S   S342      1.0  0.14679  0.38617  0.84094  1.0000
  S   S343      1.0  0.17583  0.39137  0.81085  1.0000
  Fe  Fe169     1.0  0.07824  0.36806  0.93593  1.0000
  S   S344      1.0  0.09654  0.35316  0.94933  1.0000
  S   S345      1.0  0.06797  0.35527  0.92462  1.0000
  Fe  Fe170     1.0  0.08156  0.39766  0.94209  1.0000
  S   S346      1.0  0.09996  0.38533  0.95582  1.0000
  S   S347      1.0  0.07649  0.42364  0.93773  1.0000
  Fe  Fe171     1.0  0.11008  0.37176  0.93723  1.0000
  S   S348      1.0  0.13589  0.36886  0.92701  1.0000
  Fe  Fe172     1.0  0.08466  0.36810  0.96686  1.0000
  H   H1939     1.0  0.46155  0.28315  0.87961  1.0000
  S   S349      1.0  0.09294  0.38547  0.92237  1.0000
  S   S350      1.0  0.06514  0.38155  0.95454  1.0000
  H   H1940     1.0  0.13816  0.39484  0.96070  1.0000
  H   H1941     1.0  0.01914  0.42623  0.81542  1.0000
  C   C1152     1.0  0.23132  0.46237  0.93656  1.0000
  C   C1153     1.0  0.14600  0.35037  0.88317  1.0000
  C   C1154     1.0  0.13682  0.34347  0.89694  1.0000
  C   C1155     1.0  0.13353  0.34925  0.91043  1.0000
  C   C1156     1.0  0.14015  0.36137  0.91034  1.0000
  C   C1157     1.0  0.14991  0.36781  0.89676  1.0000
  C   C1158     1.0  0.15253  0.36256  0.88308  1.0000
  H   H1942     1.0  0.13197  0.33386  0.89711  1.0000
  H   H1943     1.0  0.12603  0.34421  0.92095  1.0000
  H   H1944     1.0  0.15510  0.37712  0.89669  1.0000
  H   H1945     1.0  0.15966  0.36795  0.87251  1.0000
  H   H1946     1.0  0.32015  0.30582  0.79173  1.0000
  C   C1159     1.0  0.44332  0.30324  0.87532  1.0000
  H   H1947     1.0  0.43056  0.24312  0.94741  1.0000
  C   C1160     1.0  0.08219  0.42857  0.95225  1.0000
  C   C1161     1.0  0.08947  0.44114  0.94846  1.0000
  C   C1162     1.0  0.09512  0.44442  0.95972  1.0000
  H   H1948     1.0  0.31072  0.29716  0.77597  1.0000
  Fe  Fe173     1.0  0.08715  0.37728  0.73193  1.0000
  H   H1949     1.0  0.09107  0.44812  0.93673  1.0000
  H   H1950     1.0  0.10093  0.45399  0.95663  1.0000
  H   H1951     1.0  0.15392  0.42977  0.87063  1.0000
  H   H1952     1.0  0.39698  0.40918  0.82788  1.0000
  H   H1953     1.0  0.30790  0.27757  0.76190  1.0000
  C   C1163     1.0  0.07756  0.45185  0.74798  1.0000
  C   C1164     1.0  0.23814  0.45620  0.92152  1.0000
  C   C1165     1.0  0.22183  0.30183  0.82286  1.0000
  C   C1166     1.0  0.20604  0.30938  0.82344  1.0000
  C   C1167     1.0  0.20193  0.32556  0.81795  1.0000
  C   C1168     1.0  0.21364  0.33410  0.81118  1.0000
  C   C1169     1.0  0.22944  0.32645  0.80998  1.0000
  C   C1170     1.0  0.23353  0.31037  0.81607  1.0000
  H   H1954     1.0  0.19697  0.30278  0.82864  1.0000
  H   H1955     1.0  0.18973  0.33136  0.81893  1.0000
  H   H1956     1.0  0.23852  0.33303  0.80476  1.0000
  H   H1957     1.0  0.24573  0.30465  0.81564  1.0000
  H   H1958     1.0  0.02889  0.33270  0.92424  1.0000
  H   H1959     1.0  0.35594  0.26189  0.78243  1.0000
  C   C1171     1.0  0.24773  0.38222  0.84422  1.0000
  H   H1960     1.0  0.37430  0.29910  0.94153  1.0000
  H   H1961     1.0  0.02379  0.35878  0.92270  1.0000
  H   H1962     1.0  0.16286  0.39807  0.90448  1.0000
  H   H1963     1.0  0.46369  0.29275  0.85978  1.0000
  C   C1172     1.0  0.03648  0.40153  0.73695  1.0000
  H   H1964     1.0  0.17621  0.41395  0.91193  1.0000
  H   H1965     1.0  0.14615  0.40741  0.92654  1.0000
  C   C1173     1.0  0.31484  0.23793  0.91559  1.0000
  C   C1174     1.0  0.35340  0.26896  0.77115  1.0000
  S   S351      1.0  0.15840  0.46646  0.95712  1.0000
  C   C1175     1.0  0.15100  0.43980  0.87617  1.0000
  H   H1966     1.0  0.35509  0.40246  0.85909  1.0000
  C   C1176     1.0  0.26532  0.37434  0.84045  1.0000
  C   C1177     1.0  0.40300  0.26883  0.93684  1.0000
  H   H1967     1.0  0.05199  0.40816  0.80991  1.0000
  H   H1968     1.0  0.27379  0.48046  0.81679  1.0000
  S   S352      1.0  0.46130  0.24712  0.96079  1.0000
  C   C1178     1.0  0.03884  0.37975  0.88768  1.0000
  C   C1179     1.0  0.04260  0.38859  0.89590  1.0000
  C   C1180     1.0  0.05160  0.38128  0.90727  1.0000
  C   C1181     1.0  0.05687  0.36507  0.91042  1.0000
  C   C1182     1.0  0.05328  0.35628  0.90204  1.0000
  C   C1183     1.0  0.04438  0.36359  0.89065  1.0000
  H   H1969     1.0  0.03843  0.40113  0.89357  1.0000
  H   H1970     1.0  0.05435  0.38814  0.91367  1.0000
  H   H1971     1.0  0.05747  0.34375  0.90433  1.0000
  H   H1972     1.0  0.04191  0.35672  0.88410  1.0000
  H   H1973     1.0  0.16456  0.33030  0.80671  1.0000
  C   C1184     1.0  0.12103  0.35922  0.78169  1.0000
  C   C1185     1.0  0.12709  0.35422  0.79517  1.0000
  C   C1186     1.0  0.13179  0.36467  0.80069  1.0000
  C   C1187     1.0  0.13056  0.38022  0.79272  1.0000
  C   C1188     1.0  0.12434  0.38530  0.77927  1.0000
  C   C1189     1.0  0.11949  0.37484  0.77379  1.0000
  H   H1974     1.0  0.12821  0.34217  0.80137  1.0000
  H   H1975     1.0  0.13630  0.36063  0.81115  1.0000
  H   H1976     1.0  0.19253  0.35125  0.75345  1.0000
  C   C1190     1.0  0.27330  0.37878  0.86205  1.0000
  C   C1191     1.0  0.04240  0.34685  0.78622  1.0000
  C   C1192     1.0  0.05478  0.33566  0.79172  1.0000
  C   C1193     1.0  0.05379  0.33015  0.80779  1.0000
  C   C1194     1.0  0.04065  0.33622  0.81836  1.0000
  C   C1195     1.0  0.02831  0.34746  0.81281  1.0000
  C   C1196     1.0  0.02907  0.35256  0.79679  1.0000
  H   H1977     1.0  0.06508  0.33114  0.78362  1.0000
  H   H1978     1.0  0.06337  0.32148  0.81203  1.0000
  H   H1979     1.0  0.01822  0.35236  0.82084  1.0000
  H   H1980     1.0  0.01962  0.36141  0.79259  1.0000
  H   H1981     1.0  0.08355  0.44795  0.75789  1.0000
  H   H1982     1.0  0.15162  0.42570  0.92159  1.0000
  H   H1983     1.0  0.27251  0.41678  0.81687  1.0000
  H   H1984     1.0  0.48324  0.32064  0.88845  1.0000
  H   H1985     1.0  0.30611  0.45987  0.86068  1.0000
  H   H1986     1.0  0.40607  0.24631  0.97110  1.0000
  Fe  Fe174     1.0  0.34804  0.25266  0.93479  1.0000
  H   H1987     1.0  0.03666  0.41409  0.73362  1.0000
  H   H1988     1.0  0.29947  0.47542  0.87070  1.0000
  H   H1989     1.0  0.35886  0.27922  0.76772  1.0000
  H   H1990     1.0  0.12725  0.35790  0.96066  1.0000
  C   C1197     1.0  0.20966  0.46922  0.95793  1.0000
  H   H1991     1.0  0.21536  0.45979  0.96653  1.0000
  H   H1992     1.0  0.21008  0.44713  0.93318  1.0000
  C   C1198     1.0  0.01186  0.42841  0.79432  1.0000
  H   H1993     1.0  0.23731  0.45412  0.94569  1.0000
  H   H1994     1.0  0.40289  0.37230  0.80879  1.0000
  H   H1995     1.0  0.32827  0.26259  0.90228  1.0000
  C   C1199     1.0  0.99920  0.36704  0.90812  1.0000
  C   C1200     1.0  0.19293  0.45108  0.89705  1.0000
  C   C1201     1.0  0.43297  0.27522  0.92552  1.0000
  H   H1996     1.0  0.37085  0.37566  0.83136  1.0000
  H   H1997     1.0  0.19295  0.36763  0.77041  1.0000
  C   C1202     1.0  0.30829  0.46151  0.81367  1.0000
  C   C1203     1.0  0.42438  0.27787  0.94014  1.0000
  H   H1998     1.0  0.37474  0.40439  0.85637  1.0000
  H   H1999     1.0  0.16898  0.33021  0.95006  1.0000
  C   C1204     1.0  0.32055  0.25854  0.79320  1.0000
  C   C1205     1.0  0.22034  0.42321  0.83592  1.0000
  H   H2000     1.0  0.03491  0.38220  0.79187  1.0000
  C   C1206     1.0  0.19171  0.41346  0.84387  1.0000
  C   C1207     1.0  0.20302  0.40996  0.83071  1.0000
  C   C1208     1.0  0.21724  0.41494  0.82668  1.0000
  H   H2001     1.0  0.20069  0.40371  0.82345  1.0000
  H   H2002     1.0  0.22581  0.41246  0.81632  1.0000
  C   C1209     1.0  0.37677  0.30610  0.91593  1.0000
  H   H2003     1.0  0.47979  0.32486  0.86449  1.0000
  C   C1210     1.0  0.33549  0.30242  0.83939  1.0000
  C   C1211     1.0  0.33165  0.28848  0.83983  1.0000
  C   C1212     1.0  0.31827  0.28871  0.83487  1.0000
  C   C1213     1.0  0.30911  0.30290  0.82868  1.0000
  C   C1214     1.0  0.31310  0.31688  0.82797  1.0000
  C   C1215     1.0  0.32613  0.31665  0.83356  1.0000
  H   H2004     1.0  0.31533  0.27789  0.83548  1.0000
  C   C1216     1.0  0.18014  0.36821  0.77407  1.0000
  C   C1217     1.0  0.42651  0.26960  0.91650  1.0000
  C   C1218     1.0  0.33306  0.31836  0.91461  1.0000
  C   C1219     1.0  0.32484  0.31612  0.93016  1.0000
  C   C1220     1.0  0.32220  0.30131  0.93830  1.0000
  C   C1221     1.0  0.32817  0.28865  0.93102  1.0000
  C   C1222     1.0  0.33640  0.29091  0.91554  1.0000
  C   C1223     1.0  0.33858  0.30577  0.90725  1.0000
  H   H2005     1.0  0.32048  0.32585  0.93587  1.0000
  H   H2006     1.0  0.31579  0.29962  0.95028  1.0000
  H   H2007     1.0  0.34086  0.28125  0.90982  1.0000
  H   H2008     1.0  0.34465  0.30740  0.89521  1.0000
  C   C1224     1.0  0.32473  0.39474  0.84150  1.0000
  C   C1225     1.0  0.32506  0.39417  0.85681  1.0000
  C   C1226     1.0  0.31534  0.40597  0.86436  1.0000
  C   C1227     1.0  0.30486  0.41806  0.85683  1.0000
  H   H2009     1.0  0.33284  0.38469  0.86284  1.0000
  H   H2010     1.0  0.31572  0.40556  0.87618  1.0000
  C   C1228     1.0  0.41289  0.34991  0.85668  1.0000
  C   C1229     1.0  0.40354  0.36182  0.86417  1.0000
  C   C1230     1.0  0.41047  0.37243  0.86704  1.0000
  H   H2011     1.0  0.39099  0.36297  0.86757  1.0000
  H   H2012     1.0  0.40318  0.38176  0.87264  1.0000
  C   C1231     1.0  0.30880  0.28538  0.78244  1.0000
  H   H2013     1.0  0.15079  0.35217  0.75328  1.0000
  C   C1232     1.0  0.16196  0.41035  0.89773  1.0000
  S   S353      1.0  0.22074  0.43342  0.90486  1.0000
  H   H2014     1.0  0.19518  0.33106  0.75517  1.0000
  H   H2015     1.0  0.27338  0.36629  0.86759  1.0000
  C   C1233     1.0  0.26974  0.23658  0.79576  1.0000
  H   H2016     1.0  0.16393  0.35475  0.78985  1.0000
  C   C1234     1.0  0.00349  0.34103  0.92520  1.0000
  C   C1235     1.0  0.19394  0.33992  0.76194  1.0000
  H   H2017     1.0  0.26635  0.40013  0.81634  1.0000
  H   H2018     1.0  0.14875  0.44344  0.89884  1.0000
  H   H2019     1.0  0.30035  0.28723  0.79354  1.0000
  H   H2020     1.0  0.28788  0.27974  0.86825  1.0000
  H   H2021     1.0  0.44996  0.30968  0.97533  1.0000
  H   H2022     1.0  0.21448  0.32445  0.77064  1.0000
  H   H2023     1.0  0.26208  0.40492  0.84368  1.0000
  S   S354      1.0  0.47188  0.38985  0.87752  1.0000
  C   C1236     1.0  0.28466  0.38386  0.86851  1.0000
  C   C1237     1.0  0.16017  0.35427  0.75758  1.0000
  H   H2024     1.0  0.36739  0.41536  0.83160  1.0000
  C   C1238     1.0  0.48145  0.30900  0.89528  1.0000
  H   H2025     1.0  0.38521  0.36615  0.81000  1.0000
  H   H2026     1.0  0.21146  0.43258  0.85659  1.0000
  H   H2027     1.0  0.18684  0.31408  0.78055  1.0000
  H   H2028     1.0  0.06233  0.47113  0.75805  1.0000
  S   S355      1.0  0.23823  0.42945  0.83050  1.0000
  H   H2029     1.0  0.18323  0.34895  0.79309  1.0000
  C   C1239     1.0  0.34386  0.27587  0.97146  1.0000
  H   H2030     1.0  0.43627  0.29630  0.87300  1.0000
  H   H2031     1.0  0.42268  0.39203  0.82554  1.0000
  C   C1240     1.0  0.10520  0.42269  0.74784  1.0000
  H   H2032     1.0  0.31564  0.26798  0.86437  1.0000
  Fe  Fe175     1.0  0.38313  0.24839  0.92152  1.0000
  H   H2033     1.0  0.35974  0.26176  0.76239  1.0000
  C   C1241     1.0  0.32080  0.26805  0.89355  1.0000
  H   H2034     1.0  0.05400  0.46617  0.74515  1.0000
  H   H2035     1.0  0.30279  0.23822  0.89789  1.0000
  H   H2036     1.0  0.29849  0.46720  0.80770  1.0000
  H   H2037     1.0  0.02483  0.38675  0.75819  1.0000
  H   H2038     1.0  0.31232  0.24551  0.92400  1.0000
  C   C1242     1.0  0.00484  0.40992  0.81837  1.0000
  Fe  Fe176     1.0  0.48384  0.36526  0.88632  1.0000
  H   H2039     1.0  0.23388  0.46453  0.91147  1.0000
  C   C1243     1.0  0.32946  0.27962  0.88075  1.0000
  C   C1244     1.0  0.47096  0.32150  0.84668  1.0000
  C   C1245     1.0  0.08015  0.41956  0.96747  1.0000
  C   C1246     1.0  0.41155  0.26629  0.92216  1.0000
  H   H2040     1.0  0.34102  0.27369  0.87472  1.0000
  N   N83       1.0  0.47219  0.30306  0.87365  1.0000
  H   H2041     1.0  0.20998  0.42600  0.95533  1.0000
  C   C1247     1.0  0.02567  0.39908  0.75335  1.0000
  H   H2042     1.0  0.29599  0.45914  0.83766  1.0000
  H   H2043     1.0  0.02085  0.32235  0.91556  1.0000
  S   S356      1.0  0.07445  0.36172  0.72758  1.0000
  H   H2044     1.0  0.24973  0.23912  0.78624  1.0000
  C   C1248     1.0  0.20782  0.45054  0.94441  1.0000
  H   H2045     1.0  0.40265  0.27681  0.95706  1.0000
  H   H2046     1.0  0.41569  0.37580  0.82547  1.0000
  S   S357      1.0  0.22447  0.45736  0.86047  1.0000
  Fe  Fe177     1.0  0.47993  0.25117  0.97001  1.0000
  H   H2047     1.0  0.41581  0.39249  0.80896  1.0000
  H   H2048     1.0  0.02000  0.37931  0.93610  1.0000
  H   H2049     1.0  0.14918  0.34012  0.94940  1.0000
  H   H2050     1.0  0.28232  0.40376  0.84039  1.0000
  S   S358      1.0  0.40470  0.33671  0.85222  1.0000
  C   C1249     1.0  0.16982  0.32044  0.80075  1.0000
  C   C1250     1.0  0.42921  0.34847  0.85243  1.0000
  S   S359      1.0  0.43230  0.28540  0.95118  1.0000
  H   H2051     1.0  0.34129  0.28881  0.96860  1.0000
  S   S360      1.0  0.35218  0.30156  0.84600  1.0000
  C   C1251     1.0  0.30017  0.28035  0.77293  1.0000
  H   H2052     1.0  0.33721  0.29944  0.79965  1.0000
  Fe  Fe178     1.0  0.14228  0.46010  0.94642  1.0000
  H   H2053     1.0  0.38369  0.29423  0.91458  1.0000
  C   C1252     1.0  0.33584  0.27420  0.77039  1.0000
  H   H2054     1.0  0.14692  0.37099  0.95286  1.0000
  H   H2055     1.0  0.48502  0.30425  0.94207  1.0000
  S   S361      1.0  0.01656  0.34912  0.87522  1.0000
  C   C1253     1.0  0.43616  0.35897  0.85544  1.0000
  H   H2056     1.0  0.18621  0.42432  0.86338  1.0000
  H   H2057     1.0  0.26861  0.37408  0.82786  1.0000
  C   C1254     1.0  0.33150  0.29719  0.79145  1.0000
  H   H2058     1.0  0.12155  0.41911  0.90497  1.0000
  S   S362      1.0  0.48053  0.38070  0.84352  1.0000
  C   C1255     1.0  0.30717  0.24659  0.90155  1.0000
  C   C1256     1.0  0.27370  0.39875  0.83792  1.0000
  H   H2059     1.0  0.13100  0.42177  0.87696  1.0000
  H   H2060     1.0  0.39386  0.39683  0.80092  1.0000
  H   H2061     1.0  0.46783  0.29206  0.89824  1.0000
  H   H2062     1.0  0.12290  0.43950  0.92169  1.0000
  H   H2063     1.0  0.46151  0.31732  0.84468  1.0000
  H   H2064     1.0  0.12544  0.33277  0.96624  1.0000
  C   C1257     1.0  0.29847  0.35653  0.84498  1.0000
  N   N84       1.0  0.32401  0.27446  0.78563  1.0000
  H   H2065     1.0  0.01132  0.36698  0.90110  1.0000
  S   S363      1.0  0.25167  0.45709  0.87806  1.0000
  H   H2066     1.0  0.43299  0.23660  0.91112  1.0000
  H   H2067     1.0  0.09652  0.42288  0.72815  1.0000
  S   S364      1.0  0.26106  0.45516  0.84097  1.0000
  H   H2068     1.0  0.33820  0.24863  0.80795  1.0000
  H   H2069     1.0  0.43312  0.26780  0.90509  1.0000
  C   C1258     1.0  0.07130  0.42570  0.75367  1.0000
  H   H2070     1.0  0.46930  0.33412  0.84113  1.0000
  C   C1259     1.0  0.01206  0.36179  0.93035  1.0000
  C   C1260     1.0  0.33385  0.24567  0.79921  1.0000
  H   H2071     1.0  0.32234  0.28665  0.87215  1.0000
  N   N85       1.0  0.20649  0.31107  0.86854  1.0000
  C   C1261     1.0  0.22274  0.30084  0.86863  1.0000
  C   C1262     1.0  0.20837  0.32496  0.85523  1.0000
  C   C1263     1.0  0.19669  0.30172  0.86561  1.0000
  C   C1264     1.0  0.19980  0.31551  0.88413  1.0000
  C   C1265     1.0  0.22369  0.28463  0.87975  1.0000
  C   C1266     1.0  0.21759  0.33600  0.85698  1.0000
  C   C1267     1.0  0.18026  0.31027  0.86262  1.0000
  C   C1268     1.0  0.18514  0.32907  0.88539  1.0000
  H   H2072     1.0  0.22873  0.29872  0.85676  1.0000
  H   H2073     1.0  0.23031  0.30665  0.87177  1.0000
  H   H2074     1.0  0.19706  0.33228  0.85279  1.0000
  H   H2075     1.0  0.21450  0.32103  0.84425  1.0000
  H   H2076     1.0  0.20309  0.29631  0.85549  1.0000
  H   H2077     1.0  0.19467  0.29184  0.87567  1.0000
  H   H2078     1.0  0.19662  0.30529  0.89324  1.0000
  H   H2079     1.0  0.20890  0.31859  0.88805  1.0000
  H   H2080     1.0  0.23621  0.27908  0.87993  1.0000
  H   H2081     1.0  0.21749  0.28527  0.89188  1.0000
  H   H2082     1.0  0.21924  0.27673  0.87556  1.0000
  H   H2083     1.0  0.21214  0.34086  0.86753  1.0000
  H   H2084     1.0  0.23008  0.33030  0.85688  1.0000
  H   H2085     1.0  0.21752  0.34602  0.84680  1.0000
  H   H2086     1.0  0.17229  0.31430  0.87296  1.0000
  H   H2087     1.0  0.17487  0.30188  0.86028  1.0000
  H   H2088     1.0  0.18048  0.31994  0.85220  1.0000
  H   H2089     1.0  0.17485  0.32470  0.89338  1.0000
  H   H2090     1.0  0.18160  0.33536  0.87432  1.0000
  H   H2091     1.0  0.18719  0.33791  0.89040  1.0000
  H   H2092     1.0  0.33897  0.27745  0.84419  1.0000
  H   H2093     1.0  0.05093  0.40477  0.83002  1.0000
  H   H2094     1.0  0.03804  0.39753  0.82337  1.0000
  S   S365      1.0  0.27514  0.24475  0.87960  1.0000
  C   C1269     1.0  0.40934  0.27476  0.94576  1.0000
  H   H2095     1.0  0.39137  0.26661  0.94120  1.0000
  H   H2096     1.0  0.16458  0.40939  0.88545  1.0000
  H   H2097     1.0  0.44873  0.35796  0.85184  1.0000
  C   C1270     1.0  0.29297  0.37397  0.83788  1.0000
  C   C1271     1.0  0.36690  0.30391  0.93278  1.0000
  H   H2098     1.0  0.07343  0.42521  0.76522  1.0000
  H   H2099     1.0  0.10564  0.43039  0.75508  1.0000
  H   H2100     1.0  0.33914  0.29928  0.77968  1.0000
  H   H2101     1.0  0.15545  0.33843  0.77910  1.0000
  S   S366      1.0  0.36259  0.25267  0.91065  1.0000
  N   N86       1.0  0.38334  0.39415  0.82575  1.0000
  H   H2102     1.0  0.21860  0.34127  0.75611  1.0000
  C   C1272     1.0  0.42679  0.37110  0.86260  1.0000
  C   C1273     1.0  0.32901  0.28034  0.79694  1.0000
  Fe  Fe179     1.0  0.46112  0.37887  0.86493  1.0000
  H   H2103     1.0  0.31068  0.35241  0.83875  1.0000
  C   C1274     1.0  0.12692  0.42737  0.92791  1.0000
  C   C1275     1.0  0.02031  0.33414  0.91708  1.0000
  H   H2104     1.0  0.26136  0.38526  0.86675  1.0000
  N   N87       1.0  0.17989  0.33937  0.77534  1.0000
  H   H2105     1.0  0.19341  0.32314  0.79164  1.0000
  H   H2106     1.0  0.12543  0.40364  0.88586  1.0000
  H   H2107     1.0  0.13433  0.40058  0.90906  1.0000
  H   H2108     1.0  0.43648  0.33941  0.84647  1.0000
  H   H2109     1.0  0.32914  0.23504  0.80524  1.0000
  H   H2110     1.0  0.05160  0.42285  0.74617  1.0000
  N   N88       1.0  0.21376  0.46502  0.94226  1.0000
  H   H2111     1.0  0.15461  0.36433  0.76323  1.0000
  C   C1276     1.0  0.33224  0.24535  0.88158  1.0000
  H   H2112     1.0  0.44085  0.31502  0.86778  1.0000
  H   H2113     1.0  0.12732  0.42801  0.93973  1.0000
  H   H2114     1.0  0.11490  0.37873  0.76332  1.0000
  C   C1277     1.0  0.05366  0.42663  0.75580  1.0000
  C   C1278     1.0  0.06109  0.46113  0.75417  1.0000
  Fe  Fe180     1.0  0.01582  0.37462  0.86566  1.0000
  H   H2115     1.0  0.43907  0.30398  0.88772  1.0000
  H   H2116     1.0  0.18692  0.40963  0.89358  1.0000
  C   C1279     1.0  0.30440  0.41857  0.84156  1.0000
  C   C1280     1.0  0.46075  0.29492  0.87175  1.0000
  H   H2117     1.0  0.17487  0.37282  0.76375  1.0000
  H   H2118     1.0  0.28629  0.47127  0.86186  1.0000
  C   C1281     1.0  0.15998  0.34084  0.95230  1.0000
  H   H2119     1.0  0.33994  0.27295  0.80031  1.0000
  H   H2120     1.0  0.10106  0.41222  0.75543  1.0000
  S   S367      1.0  0.01272  0.47946  0.74944  1.0000
  S   S368      1.0  0.36833  0.25071  0.94504  1.0000
  C   C1282     1.0  0.20029  0.44010  0.90832  1.0000
  H   H2121     1.0  0.04633  0.43836  0.75641  1.0000
  H   H2122     1.0  0.04949  0.41860  0.76680  1.0000
  H   H2123     1.0  0.45769  0.31170  0.89396  1.0000
  H   H2124     1.0  0.04120  0.37328  0.73654  1.0000
  C   C1283     1.0  0.30525  0.46526  0.82981  1.0000
  H   H2125     1.0  0.05465  0.45403  0.76453  1.0000
  N   N89       1.0  0.09783  0.37686  0.86965  1.0000
  C   C1284     1.0  0.10009  0.36840  0.88584  1.0000
  C   C1285     1.0  0.09991  0.39323  0.86714  1.0000
  C   C1286     1.0  0.11064  0.36866  0.85830  1.0000
  C   C1287     1.0  0.08183  0.37629  0.86823  1.0000
  C   C1288     1.0  0.09952  0.35097  0.89042  1.0000
  C   C1289     1.0  0.08941  0.40242  0.87951  1.0000
  C   C1290     1.0  0.11098  0.37553  0.84089  1.0000
  C   C1291     1.0  0.07369  0.38987  0.85680  1.0000
  H   H2126     1.0  0.11146  0.36931  0.88756  1.0000
  H   H2127     1.0  0.09081  0.37379  0.89482  1.0000
  H   H2128     1.0  0.09781  0.40038  0.85567  1.0000
  H   H2129     1.0  0.11232  0.39310  0.86681  1.0000
  H   H2130     1.0  0.12232  0.36822  0.86027  1.0000
  H   H2131     1.0  0.10994  0.35633  0.86011  1.0000
  H   H2132     1.0  0.08228  0.36525  0.86505  1.0000
  H   H2133     1.0  0.07342  0.37598  0.87964  1.0000
  H   H2134     1.0  0.10998  0.34377  0.88413  1.0000
  H   H2135     1.0  0.09961  0.34662  0.90300  1.0000
  H   H2136     1.0  0.08867  0.34899  0.88873  1.0000
  H   H2137     1.0  0.07738  0.40019  0.88348  1.0000
  H   H2138     1.0  0.09477  0.39944  0.88975  1.0000
  H   H2139     1.0  0.08846  0.41512  0.87468  1.0000
  H   H2140     1.0  0.11142  0.38802  0.83729  1.0000
  H   H2141     1.0  0.10112  0.37341  0.83743  1.0000
  H   H2142     1.0  0.12190  0.36932  0.83412  1.0000
  H   H2143     1.0  0.06959  0.40076  0.86123  1.0000
  H   H2144     1.0  0.06302  0.38692  0.85574  1.0000
  H   H2145     1.0  0.08115  0.39219  0.84501  1.0000
  N   N90       1.0  0.38729  0.31759  0.91138  1.0000
  H   H2146     1.0  0.37081  0.38570  0.85772  1.0000
  C   C1292     1.0  0.39375  0.31974  0.89406  1.0000
  C   C1293     1.0  0.37747  0.33282  0.91541  1.0000
  C   C1294     1.0  0.40013  0.31095  0.92035  1.0000
  C   C1295     1.0  0.40202  0.30468  0.88803  1.0000
  C   C1296     1.0  0.38309  0.34782  0.90594  1.0000
  C   C1297     1.0  0.41275  0.32039  0.91726  1.0000
  H   H2147     1.0  0.40209  0.32759  0.88974  1.0000
  H   H2148     1.0  0.38413  0.32584  0.88783  1.0000
  H   H2149     1.0  0.36535  0.33480  0.91368  1.0000
  H   H2150     1.0  0.37609  0.33248  0.92797  1.0000
  H   H2151     1.0  0.39512  0.30933  0.93307  1.0000
  H   H2152     1.0  0.40619  0.29901  0.91886  1.0000
  H   H2153     1.0  0.41137  0.29741  0.89417  1.0000
  H   H2154     1.0  0.39358  0.29762  0.88878  1.0000
  H   H2155     1.0  0.40756  0.30781  0.87550  1.0000
  H   H2156     1.0  0.38127  0.35063  0.89390  1.0000
  H   H2157     1.0  0.39548  0.34728  0.90555  1.0000
  H   H2158     1.0  0.37585  0.35775  0.91130  1.0000
  H   H2159     1.0  0.40865  0.32957  0.92416  1.0000
  H   H2160     1.0  0.41676  0.32560  0.90486  1.0000
  H   H2161     1.0  0.42348  0.31236  0.92074  1.0000
  H   H2162     1.0  0.08400  0.46031  0.73916  1.0000
  H   H2163     1.0  0.35797  0.40007  0.83368  1.0000
  C   C1298     1.0  0.36868  0.40248  0.83539  1.0000
  H   H2164     1.0  0.33989  0.24788  0.96912  1.0000
  H   H2165     1.0  0.00292  0.42766  0.77511  1.0000
  H   H2166     1.0  0.29618  0.25444  0.90632  1.0000
  C   C1299     1.0  0.46909  0.30362  0.89056  1.0000
  C   C1300     1.0  0.17648  0.35239  0.78377  1.0000
  Fe  Fe181     1.0  0.13610  0.47813  0.97130  1.0000
  H   H2167     1.0  0.17114  0.46603  0.89201  1.0000
  C   C1301     1.0  0.48861  0.29422  0.86818  1.0000
  H   H2168     1.0  0.29123  0.34924  0.84364  1.0000
  H   H2169     1.0  0.35829  0.40997  0.80790  1.0000
  H   H2170     1.0  0.29877  0.35445  0.85742  1.0000
  S   S369      1.0  0.32579  0.26993  0.94138  1.0000
  C   C1302     1.0  0.47034  0.31953  0.86411  1.0000
  H   H2171     1.0  0.20903  0.34325  0.77563  1.0000
  S   S370      1.0  0.02236  0.37259  0.84075  1.0000
  H   H2172     1.0  0.18996  0.46905  0.92361  1.0000
  N   N91       1.0  0.06863  0.37856  0.80576  1.0000
  C   C1303     1.0  0.08178  0.36430  0.80787  1.0000
  C   C1304     1.0  0.07555  0.39076  0.79289  1.0000
  C   C1305     1.0  0.05608  0.37387  0.80119  1.0000
  C   C1306     1.0  0.06229  0.38376  0.82097  1.0000
  C   C1307     1.0  0.07745  0.35027  0.82076  1.0000
  C   C1308     1.0  0.08658  0.39835  0.79714  1.0000
  C   C1309     1.0  0.04483  0.38686  0.79220  1.0000
  C   C1310     1.0  0.05012  0.39937  0.82088  1.0000
  H   H2173     1.0  0.08676  0.36007  0.79681  1.0000
  H   H2174     1.0  0.09176  0.36693  0.81069  1.0000
  H   H2175     1.0  0.06641  0.40061  0.78860  1.0000
  H   H2176     1.0  0.08213  0.38574  0.78254  1.0000
  H   H2177     1.0  0.06142  0.36516  0.79370  1.0000
  H   H2178     1.0  0.04858  0.36785  0.81165  1.0000
  H   H2179     1.0  0.05644  0.37493  0.82995  1.0000
  H   H2180     1.0  0.07195  0.38421  0.82599  1.0000
  H   H2181     1.0  0.07521  0.35256  0.83255  1.0000
  H   H2182     1.0  0.06723  0.34679  0.81952  1.0000
  H   H2183     1.0  0.08748  0.34006  0.81995  1.0000
  H   H2184     1.0  0.09639  0.38979  0.80171  1.0000
  H   H2185     1.0  0.09188  0.40613  0.78651  1.0000
  H   H2186     1.0  0.08013  0.40571  0.80570  1.0000
  H   H2187     1.0  0.05083  0.39060  0.77992  1.0000
  H   H2188     1.0  0.03961  0.39704  0.79762  1.0000
  Fe  Fe182     1.0  0.24279  0.44075  0.84737  1.0000
  S   S371      1.0  0.36738  0.34110  0.83576  1.0000
  H   H2189     1.0  0.11810  0.42041  0.92961  1.0000
  C   C1311     1.0  0.09540  0.43131  0.73536  1.0000
  H   H2190     1.0  0.99564  0.35056  0.78579  1.0000
  H   H2191     1.0  0.44438  0.23880  0.93023  1.0000
  H   H2192     1.0  0.16822  0.32938  0.76404  1.0000
  H   H2193     1.0  0.28345  0.39668  0.86534  1.0000
  H   H2194     1.0  0.19692  0.42647  0.93181  1.0000
  S   S372      1.0  0.40370  0.25981  0.91021  1.0000
  H   H2195     1.0  0.16447  0.35092  0.94419  1.0000
  C   C1312     1.0  0.30808  0.26278  0.87523  1.0000
  S   S373      1.0  0.47167  0.35429  0.87538  1.0000
  H   H2196     1.0  0.07703  0.41396  0.75105  1.0000
  H   H2197     1.0  0.29485  0.27030  0.77983  1.0000
  C   C1313     1.0  0.01273  0.42183  0.80985  1.0000
  H   H2198     1.0  0.33175  0.28805  0.88608  1.0000
  H   H2199     1.0  0.16054  0.31714  0.79740  1.0000
  C   C1314     1.0  0.19134  0.43508  0.92308  1.0000
  H   H2200     1.0  0.26476  0.24683  0.80068  1.0000
  H   H2201     1.0  0.39792  0.35570  0.82265  1.0000
  H   H2202     1.0  0.29473  0.37484  0.82518  1.0000
  H   H2203     1.0  0.30449  0.25362  0.87204  1.0000
  Fe  Fe183     1.0  0.23431  0.44266  0.88108  1.0000
  C   C1315     1.0  0.17528  0.44162  0.92683  1.0000
  H   H2204     1.0  0.16859  0.43800  0.93841  1.0000
  C   C1316     1.0  0.16587  0.33958  0.76941  1.0000
  C   C1317     1.0  0.20552  0.47855  0.93138  1.0000
  H   H2205     1.0  0.04863  0.39521  0.73824  1.0000
  H   H2206     1.0  0.13091  0.44243  0.89533  1.0000
  C   C1318     1.0  0.13363  0.41235  0.90119  1.0000
  S   S374      1.0  0.02735  0.38913  0.87368  1.0000
  H   H2207     1.0  0.33353  0.26664  0.76396  1.0000
  H   H2208     1.0  0.35973  0.29529  0.93438  1.0000
  H   H2209     1.0  0.35851  0.31481  0.93519  1.0000
  N   N92       1.0  0.14574  0.41996  0.90269  1.0000
  H   H2210     1.0  0.32008  0.27975  0.80806  1.0000
  H   H2211     1.0  0.48653  0.26964  0.87631  1.0000
  C   C1319     1.0  0.36890  0.40167  0.80325  1.0000
  C   C1320     1.0  0.17563  0.41614  0.89955  1.0000
  C   C1321     1.0  0.38309  0.37706  0.82934  1.0000
  H   H2212     1.0  0.24314  0.38208  0.85678  1.0000
  H   H2213     1.0  0.36840  0.30955  0.90805  1.0000
  C   C1322     1.0  0.31452  0.40705  0.83382  1.0000
  C   C1323     1.0  0.19487  0.42160  0.85318  1.0000
  H   H2214     1.0  0.32918  0.32743  0.83301  1.0000
  H   H2215     1.0  0.29544  0.28558  0.88122  1.0000
  S   S375      1.0  0.47470  0.26998  0.92785  1.0000
  H   H2216     1.0  0.26622  0.36193  0.84668  1.0000
  N   N93       1.0  0.27633  0.38146  0.84457  1.0000
  H   H2217     1.0  0.47726  0.30990  0.90766  1.0000
  C   C1324     1.0  0.27504  0.40384  0.82016  1.0000
  H   H2218     1.0  0.24525  0.39435  0.83743  1.0000
  C   C1325     1.0  0.18330  0.32394  0.78663  1.0000
  H   H2219     1.0  0.17454  0.31027  0.80941  1.0000
  S   S376      1.0  0.43503  0.38517  0.86546  1.0000
  H   H2220     1.0  0.44442  0.27790  0.92096  1.0000
  H   H2221     1.0  0.25111  0.45466  0.91868  1.0000
  C   C1326     1.0  0.16799  0.45284  0.91568  1.0000
  C   C1327     1.0  0.20918  0.42634  0.84931  1.0000
  H   H2222     1.0  0.17525  0.37695  0.78151  1.0000
  H   H2223     1.0  0.28705  0.39969  0.81362  1.0000
  H   H2224     1.0  0.28165  0.38063  0.88142  1.0000
  H   H2225     1.0  0.19969  0.45503  0.88566  1.0000
  H   H2226     1.0  0.34093  0.24266  0.88895  1.0000
  H   H2227     1.0  0.01376  0.40665  0.75352  1.0000
  H   H2228     1.0  0.11750  0.41845  0.74188  1.0000
  S   S377      1.0  0.11026  0.36000  0.73084  1.0000
  H   H2229     1.0  0.30613  0.32788  0.82306  1.0000
  C   C1328     1.0  0.21490  0.43580  0.95546  1.0000
  Fe  Fe184     1.0  0.24344  0.47041  0.85626  1.0000
  H   H2230     1.0  0.30140  0.38023  0.83888  1.0000
  H   H2231     1.0  0.29634  0.42791  0.83570  1.0000
  H   H2232     1.0  0.31424  0.40751  0.82196  1.0000
  H   H2233     1.0  0.34296  0.27233  0.96122  1.0000
  H   H2234     1.0  0.36629  0.38991  0.80643  1.0000
  H   H2235     1.0  0.30998  0.27490  0.89988  1.0000
  H   H2236     1.0  0.23577  0.44462  0.92278  1.0000
  C   C1329     1.0  0.14343  0.41964  0.91978  1.0000
  H   H2237     1.0  0.19677  0.47081  0.96269  1.0000
  H   H2238     1.0  0.16169  0.44449  0.87376  1.0000
  N   N94       1.0  0.31707  0.25570  0.88801  1.0000
  C   C1330     1.0  0.41366  0.38869  0.82179  1.0000
  S   S378      1.0  0.14814  0.46169  0.92072  1.0000
  H   H2239     1.0  0.28402  0.27062  0.88835  1.0000
  H   H2240     1.0  0.24087  0.37578  0.84092  1.0000
  H   H2241     1.0  0.21165  0.43700  0.96771  1.0000
  H   H2242     1.0  0.14269  0.44910  0.86993  1.0000
  H   H2243     1.0  0.29709  0.37803  0.86483  1.0000
  H   H2244     1.0  0.01203  0.38640  0.91923  1.0000
  H   H2245     1.0  0.31936  0.46452  0.80609  1.0000
  H   H2246     1.0  0.33813  0.25149  0.87006  1.0000
  H   H2247     1.0  0.03065  0.40242  0.76144  1.0000
  H   H2248     1.0  0.31620  0.45919  0.83413  1.0000
  H   H2249     1.0  0.30977  0.44874  0.81520  1.0000
  H   H2250     1.0  0.47493  0.33284  0.93646  1.0000
  H   H2251     1.0  0.31707  0.25377  0.78502  1.0000
  H   H2252     1.0  0.02062  0.37783  0.73872  1.0000
  H   H2253     1.0  0.07441  0.40990  0.97049  1.0000
  H   H2254     1.0  0.02402  0.34129  0.90541  1.0000
  C   C1331     1.0  0.01039  0.37880  0.93105  1.0000
  H   H2255     1.0  0.31033  0.25938  0.80323  1.0000
  Fe  Fe185     1.0  0.47984  0.24473  0.93920  1.0000
  H   H2256     1.0  0.34354  0.24230  0.78951  1.0000
  C   C1332     1.0  0.14737  0.36968  0.96517  1.0000
  H   H2257     1.0  0.99983  0.33698  0.81683  1.0000
  H   H2258     1.0  0.23534  0.47338  0.93428  1.0000
  C   C1333     1.0  0.48529  0.32763  0.92885  1.0000
  C   C1334     1.0  0.99613  0.40456  0.81132  1.0000
  H   H2259     1.0  0.99635  0.39123  0.89530  1.0000
  H   H2260     1.0  0.49056  0.29324  0.85592  1.0000
  S   S379      1.0  0.48510  0.35711  0.91142  1.0000
  H   H2261     1.0  0.44239  0.29389  0.97484  1.0000
  H   H2262     1.0  0.49198  0.27698  0.89008  1.0000
  H   H2263     1.0  0.99923  0.38349  0.93861  1.0000
  H   H2264     1.0  0.48634  0.42615  0.86529  1.0000
  H   H2265     1.0  0.00168  0.33422  0.93747  1.0000
  N   N95       1.0  0.99955  0.35834  0.92468  1.0000
  C   C1335     1.0  0.20007  0.47481  0.91853  1.0000
  C   C1336     1.0  0.13630  0.38448  0.97020  1.0000
  H   H2266     1.0  0.31749  0.48138  0.84433  1.0000
  C   C1337     1.0  0.49098  0.31144  0.93202  1.0000
  H   H2267     1.0  0.48675  0.40658  0.89860  1.0000
  C   C1338     1.0  0.99553  0.41091  0.79569  1.0000
  Fe  Fe186     1.0  0.99661  0.37652  0.84236  1.0000
  H   H2268     1.0  0.35610  0.27177  0.97305  1.0000
  C   C1339     1.0  0.15740  0.34165  0.96947  1.0000
  H   H2269     1.0  0.27664  0.48159  0.84087  1.0000
  H   H2270     1.0  0.05773  0.44913  0.73114  1.0000
  C   C1340     1.0  0.49324  0.27748  0.87758  1.0000
  Fe  Fe187     1.0  0.49191  0.35679  0.85494  1.0000
  H   H2271     1.0  0.49293  0.30057  0.89441  1.0000
  H   H2272     1.0  0.49039  0.44478  0.87836  1.0000
  Fe  Fe188     1.0  0.49229  0.27184  0.93974  1.0000
  H   H2273     1.0  0.32770  0.23381  0.91229  1.0000
  H   H2274     1.0  0.16857  0.34315  0.97107  1.0000
  C   C1341     1.0  0.07027  0.44340  0.72776  1.0000
  Fe  Fe189     1.0  0.01933  0.46873  0.72878  1.0000
  H   H2275     1.0  0.99401  0.36093  0.90249  1.0000
  C   C1342     1.0  0.09304  0.43547  0.97495  1.0000
  H   H2276     1.0  0.99658  0.37053  0.78153  1.0000
  H   H2277     1.0  0.99550  0.33802  0.91972  1.0000
  H   H2278     1.0  0.12375  0.38418  0.97258  1.0000
  C   C1343     1.0  0.12838  0.35292  0.97294  1.0000
  H   H2279     1.0  0.42958  0.31275  0.97576  1.0000
  Fe  Fe190     1.0  0.15516  0.44492  0.97537  1.0000
  C   C1344     1.0  0.49270  0.33701  0.91560  1.0000
  Fe  Fe191     1.0  0.49242  0.38918  0.85712  1.0000
  N   N96       1.0  0.14388  0.35423  0.97493  1.0000
  S   S380      1.0  0.99581  0.35129  0.85014  1.0000
  Fe  Fe192     1.0  0.99410  0.44984  0.74160  1.0000
  H   H2280     1.0  0.49122  0.38758  0.91033  1.0000
  H   H2281     1.0  0.39397  0.23310  0.95875  1.0000
  H   H2282     1.0  0.99543  0.31822  0.82194  1.0000
  C   C1345     1.0  0.43861  0.23348  0.94209  1.0000
  H   H2283     1.0  0.10162  0.44047  0.72758  1.0000
  H   H2284     1.0  0.22722  0.48231  0.95664  1.0000
  N   N97       1.0  0.30103  0.48225  0.83062  1.0000
  H   H2285     1.0  0.15632  0.32990  0.97652  1.0000
  H   H2286     1.0  0.15519  0.57458  0.14112  1.0000
  S   S381      1.0  0.18520  0.66399  0.16069  1.0000
  S   S382      1.0  0.20444  0.68533  0.16896  1.0000
  Fe  Fe193     1.0  0.20823  0.66059  0.16703  1.0000
  S   S383      1.0  0.21509  0.64160  0.18704  1.0000
  Fe  Fe194     1.0  0.18264  0.68913  0.16037  1.0000
  S   S384      1.0  0.15977  0.70346  0.17089  1.0000
  S   S385      1.0  0.22185  0.66441  0.14243  1.0000
  C   C1346     1.0  0.11637  0.65557  0.01260  1.0000
  C   C1347     1.0  0.40341  0.71607  0.12086  1.0000
  H   H2287     1.0  0.14469  0.59051  0.12901  1.0000
  C   C1348     1.0  0.04683  0.66359  0.10959  1.0000
  S   S386      1.0  0.11626  0.60932  0.10683  1.0000
  H   H2288     1.0  0.40035  0.69145  0.98867  1.0000
  S   S387      1.0  0.36632  0.68992  0.07117  1.0000
  Fe  Fe195     1.0  0.39490  0.65069  0.14204  1.0000
  S   S388      1.0  0.38743  0.66315  0.16171  1.0000
  S   S389      1.0  0.40943  0.66130  0.11956  1.0000
  Fe  Fe196     1.0  0.38105  0.62299  0.16087  1.0000
  H   H2289     1.0  0.11281  0.65162  0.99170  1.0000
  S   S390      1.0  0.37559  0.60001  0.16203  1.0000
  Fe  Fe197     1.0  0.36487  0.65530  0.16669  1.0000
  H   H2290     1.0  0.47380  0.66026  0.22325  1.0000
  Fe  Fe198     1.0  0.39620  0.63959  0.17573  1.0000
  H   H2291     1.0  0.02070  0.68879  0.14267  1.0000
  S   S391      1.0  0.37138  0.64526  0.14554  1.0000
  S   S392      1.0  0.40526  0.62756  0.15571  1.0000
  H   H2292     1.0  0.35571  0.69939  0.22251  1.0000
  S   S393      1.0  0.47579  0.71233  0.10876  1.0000
  Fe  Fe199     1.0  0.06992  0.67403  0.22481  1.0000
  S   S394      1.0  0.47255  0.67604  0.14195  1.0000
  H   H2293     1.0  0.06837  0.65447  0.03071  1.0000
  H   H2294     1.0  0.28847  0.53697  0.16698  1.0000
  H   H2295     1.0  0.04007  0.70285  0.13537  1.0000
  H   H2296     1.0  0.38317  0.69230  0.03476  1.0000
  H   H2297     1.0  0.48549  0.64424  0.21479  1.0000
  Fe  Fe200     1.0  0.18745  0.55649  0.07905  1.0000
  S   S395      1.0  0.21169  0.55801  0.07873  1.0000
  S   S396      1.0  0.17383  0.57536  0.06313  1.0000
  Fe  Fe201     1.0  0.18970  0.52540  0.10194  1.0000
  S   S397      1.0  0.21419  0.52395  0.10355  1.0000
  S   S398      1.0  0.17627  0.50745  0.11674  1.0000
  Fe  Fe202     1.0  0.20567  0.54919  0.10448  1.0000
  S   S399      1.0  0.21083  0.55861  0.12224  1.0000
  Fe  Fe203     1.0  0.21817  0.53282  0.07775  1.0000
  S   S400      1.0  0.18071  0.54998  0.10509  1.0000
  S   S401      1.0  0.19431  0.53198  0.07593  1.0000
  C   C1349     1.0  0.13447  0.69649  0.19375  1.0000
  Fe  Fe204     1.0  0.28425  0.58022  0.15386  1.0000
  S   S402      1.0  0.28709  0.59910  0.13244  1.0000
  S   S403      1.0  0.27154  0.58367  0.17781  1.0000
  Fe  Fe205     1.0  0.30431  0.55454  0.13722  1.0000
  S   S404      1.0  0.30940  0.57148  0.11443  1.0000
  S   S405      1.0  0.31407  0.52859  0.13929  1.0000
  Fe  Fe206     1.0  0.31243  0.58666  0.12850  1.0000
  S   S406      1.0  0.32944  0.60266  0.12014  1.0000
  Fe  Fe207     1.0  0.28379  0.58235  0.12037  1.0000
  S   S407      1.0  0.27007  0.58866  0.10160  1.0000
  S   S408      1.0  0.30979  0.56871  0.15080  1.0000
  S   S409      1.0  0.27849  0.56456  0.14230  1.0000
  C   C1350     1.0  0.28082  0.49536  0.15160  1.0000
  C   C1351     1.0  0.27481  0.51137  0.15053  1.0000
  C   C1352     1.0  0.28494  0.52168  0.14590  1.0000
  C   C1353     1.0  0.30118  0.51605  0.14303  1.0000
  C   C1354     1.0  0.30723  0.50002  0.14391  1.0000
  H   H2298     1.0  0.16318  0.53121  0.01442  1.0000
  H   H2299     1.0  0.26225  0.51580  0.15321  1.0000
  H   H2300     1.0  0.28012  0.53395  0.14487  1.0000
  H   H2301     1.0  0.47294  0.61950  0.12756  1.0000
  H   H2302     1.0  0.24828  0.51398  0.10370  1.0000
  C   C1355     1.0  0.22727  0.56700  0.11627  1.0000
  C   C1356     1.0  0.23402  0.57156  0.10049  1.0000
  C   C1357     1.0  0.24693  0.57862  0.09603  1.0000
  C   C1358     1.0  0.25332  0.58078  0.10733  1.0000
  C   C1359     1.0  0.24637  0.57649  0.12307  1.0000
  C   C1360     1.0  0.23333  0.56967  0.12753  1.0000
  H   H2303     1.0  0.22925  0.56984  0.09173  1.0000
  H   H2304     1.0  0.25217  0.58212  0.08382  1.0000
  H   H2305     1.0  0.25079  0.57873  0.13183  1.0000
  H   H2306     1.0  0.22795  0.56643  0.13974  1.0000
  H   H2307     1.0  0.25295  0.50568  0.13182  1.0000
  H   H2308     1.0  0.19535  0.60771  0.08227  1.0000
  H   H2309     1.0  0.31689  0.69339  0.13725  1.0000
  H   H2310     1.0  0.05073  0.62648  0.22338  1.0000
  C   C1361     1.0  0.48112  0.69021  0.20022  1.0000
  C   C1362     1.0  0.17329  0.49525  0.10661  1.0000
  C   C1363     1.0  0.18362  0.49227  0.09270  1.0000
  H   H2311     1.0  0.23524  0.56925  0.04328  1.0000
  H   H2312     1.0  0.09179  0.70685  0.03650  1.0000
  H   H2313     1.0  0.49286  0.73048  0.06067  1.0000
  H   H2314     1.0  0.19337  0.49797  0.08773  1.0000
  H   H2315     1.0  0.24533  0.52597  0.13306  1.0000
  C   C1364     1.0  0.33660  0.68820  0.17094  1.0000
  C   C1365     1.0  0.31817  0.71308  0.17143  1.0000
  H   H2316     1.0  0.22415  0.58651  0.00612  1.0000
  C   C1366     1.0  0.34603  0.71217  0.16282  1.0000
  C   C1367     1.0  0.34905  0.69587  0.16536  1.0000
  H   H2317     1.0  0.35566  0.71810  0.15838  1.0000
  H   H2318     1.0  0.36096  0.68929  0.16283  1.0000
  C   C1368     1.0  0.36377  0.60010  0.14962  1.0000
  C   C1369     1.0  0.35537  0.58832  0.15333  1.0000
  C   C1370     1.0  0.34508  0.58873  0.14417  1.0000
  C   C1371     1.0  0.34319  0.60090  0.13118  1.0000
  C   C1372     1.0  0.35201  0.61235  0.12716  1.0000
  C   C1373     1.0  0.36222  0.61199  0.13637  1.0000
  H   H2319     1.0  0.35664  0.57899  0.16347  1.0000
  H   H2320     1.0  0.33853  0.57972  0.14723  1.0000
  H   H2321     1.0  0.35082  0.62165  0.11698  1.0000
  H   H2322     1.0  0.36900  0.62083  0.13309  1.0000
  H   H2323     1.0  0.28656  0.63916  0.19809  1.0000
  H   H2324     1.0  0.16384  0.65298  0.14864  1.0000
  Fe  Fe208     1.0  0.36870  0.71462  0.06395  1.0000
  H   H2325     1.0  0.12783  0.70741  0.18826  1.0000
  C   C1374     1.0  0.37977  0.68030  0.08304  1.0000
  C   C1375     1.0  0.37724  0.66695  0.09443  1.0000
  C   C1376     1.0  0.38687  0.66054  0.10526  1.0000
  C   C1377     1.0  0.39897  0.66751  0.10470  1.0000
  C   C1378     1.0  0.40214  0.68021  0.09264  1.0000
  C   C1379     1.0  0.39246  0.68669  0.08191  1.0000
  H   H2326     1.0  0.36761  0.66180  0.09516  1.0000
  H   H2327     1.0  0.38493  0.65022  0.11401  1.0000
  H   H2328     1.0  0.41176  0.68536  0.09189  1.0000
  H   H2329     1.0  0.39477  0.69673  0.07284  1.0000
  H   H2330     1.0  0.24470  0.56422  0.01615  1.0000
  H   H2331     1.0  0.28431  0.54878  0.18065  1.0000
  H   H2332     1.0  0.46320  0.64633  0.16108  1.0000
  S   S410      1.0  0.32953  0.73049  0.98242  1.0000
  H   H2333     1.0  0.34147  0.69500  0.21499  1.0000
  C   C1380     1.0  0.14513  0.48977  0.05666  1.0000
  H   H2334     1.0  0.44891  0.62876  0.17564  1.0000
  C   C1381     1.0  0.27886  0.50879  0.10835  1.0000
  H   H2335     1.0  0.30729  0.64334  0.14606  1.0000
  H   H2336     1.0  0.05283  0.70569  0.16891  1.0000
  H   H2337     1.0  0.23546  0.63241  0.15874  1.0000
  Fe  Fe209     1.0  0.21640  0.68954  0.14371  1.0000
  C   C1382     1.0  0.13537  0.67252  0.21362  1.0000
  C   C1383     1.0  0.13047  0.59928  0.09364  1.0000
  C   C1384     1.0  0.13673  0.58340  0.09841  1.0000
  C   C1385     1.0  0.14959  0.57581  0.08866  1.0000
  C   C1386     1.0  0.15648  0.58419  0.07436  1.0000
  C   C1387     1.0  0.14984  0.59991  0.06930  1.0000
  C   C1388     1.0  0.13662  0.60735  0.07881  1.0000
  H   H2338     1.0  0.13183  0.57704  0.10978  1.0000
  H   H2339     1.0  0.15423  0.56349  0.09230  1.0000
  H   H2340     1.0  0.15510  0.60646  0.05825  1.0000
  H   H2341     1.0  0.13143  0.61941  0.07477  1.0000
  H   H2342     1.0  0.05140  0.65566  0.19130  1.0000
  C   C1389     1.0  0.15059  0.69196  0.18781  1.0000
  C   C1390     1.0  0.15913  0.67784  0.19493  1.0000
  C   C1391     1.0  0.15154  0.66817  0.20783  1.0000
  C   C1392     1.0  0.30501  0.71744  0.13715  1.0000
  H   H2343     1.0  0.17162  0.67432  0.19053  1.0000
  H   H2344     1.0  0.22552  0.48446  0.12017  1.0000
  N   N98       1.0  0.06587  0.68270  0.04117  1.0000
  H   H2345     1.0  0.15914  0.57527  0.12082  1.0000
  C   C1393     1.0  0.23100  0.62588  0.18368  1.0000
  C   C1394     1.0  0.23556  0.61491  0.19656  1.0000
  C   C1395     1.0  0.24804  0.60212  0.19451  1.0000
  C   C1396     1.0  0.25606  0.60009  0.17956  1.0000
  C   C1397     1.0  0.25158  0.61104  0.16656  1.0000
  C   C1398     1.0  0.23904  0.62398  0.16865  1.0000
  H   H2346     1.0  0.22938  0.61631  0.20819  1.0000
  H   H2347     1.0  0.25144  0.59372  0.20458  1.0000
  H   H2348     1.0  0.25765  0.60949  0.15498  1.0000
  H   H2349     1.0  0.17625  0.61055  0.07799  1.0000
  C   C1399     1.0  0.23757  0.70553  0.16154  1.0000
  H   H2350     1.0  0.47978  0.60131  0.18279  1.0000
  S   S411      1.0  0.24000  0.52504  0.06067  1.0000
  Fe  Fe210     1.0  0.19842  0.66982  0.13603  1.0000
  H   H2351     1.0  0.26543  0.54484  0.06505  1.0000
  C   C1400     1.0  0.49344  0.68398  0.22317  1.0000
  H   H2352     1.0  0.21801  0.50579  0.06615  1.0000
  H   H2353     1.0  0.02467  0.65703  0.18852  1.0000
  H   H2354     1.0  0.31195  0.60782  0.17878  1.0000
  N   N99       1.0  0.27605  0.52715  0.18992  1.0000
  C   C1401     1.0  0.42583  0.65965  0.17626  1.0000
  C   C1402     1.0  0.26106  0.53339  0.18401  1.0000
  C   C1403     1.0  0.28256  0.51026  0.18885  1.0000
  C   C1404     1.0  0.27394  0.52911  0.20623  1.0000
  C   C1405     1.0  0.25318  0.55060  0.18423  1.0000
  S   S412      1.0  0.19366  0.58097  0.97853  1.0000
  H   H2355     1.0  0.13877  0.62057  0.03732  1.0000
  H   H2356     1.0  0.25976  0.61403  0.11652  1.0000
  H   H2357     1.0  0.00921  0.66675  0.13102  1.0000
  H   H2358     1.0  0.25199  0.52663  0.19052  1.0000
  H   H2359     1.0  0.26324  0.53212  0.17181  1.0000
  H   H2360     1.0  0.28912  0.50938  0.17677  1.0000
  H   H2361     1.0  0.43830  0.63156  0.16121  1.0000
  C   C1406     1.0  0.39512  0.72397  0.98635  1.0000
  H   H2362     1.0  0.35539  0.72286  0.11529  1.0000
  H   H2363     1.0  0.26021  0.55853  0.17554  1.0000
  C   C1407     1.0  0.18287  0.48481  0.03976  1.0000
  H   H2364     1.0  0.26347  0.50286  0.18419  1.0000
  H   H2365     1.0  0.14458  0.70101  0.22323  1.0000
  H   H2366     1.0  0.32222  0.73269  0.10969  1.0000
  H   H2367     1.0  0.18348  0.48827  0.01533  1.0000
  H   H2368     1.0  0.36417  0.68098  0.12343  1.0000
  H   H2369     1.0  0.19103  0.59357  0.07501  1.0000
  H   H2370     1.0  0.37231  0.71880  0.98757  1.0000
  H   H2371     1.0  0.44137  0.71656  0.11962  1.0000
  H   H2372     1.0  0.11443  0.69025  0.21099  1.0000
  H   H2373     1.0  0.08549  0.67380  0.02386  1.0000
  H   H2374     1.0  0.27841  0.50667  0.12097  1.0000
  H   H2375     1.0  0.39722  0.68144  0.02161  1.0000
  H   H2376     1.0  0.20668  0.60278  0.01901  1.0000
  C   C1408     1.0  0.13763  0.60282  0.99908  1.0000
  H   H2377     1.0  0.29849  0.62086  0.19596  1.0000
  H   H2378     1.0  0.44366  0.71849  0.07710  1.0000
  C   C1409     1.0  0.38311  0.72119  0.97899  1.0000
  H   H2379     1.0  0.42473  0.69271  0.14508  1.0000
  Fe  Fe211     1.0  0.08508  0.66339  0.09182  1.0000
  S   S413      1.0  0.09474  0.62721  0.00247  1.0000
  H   H2380     1.0  0.13730  0.50153  0.05634  1.0000
  C   C1410     1.0  0.03129  0.68518  0.20971  1.0000
  H   H2381     1.0  0.02725  0.68303  0.11268  1.0000
  H   H2382     1.0  0.28375  0.52655  0.08051  1.0000
  H   H2383     1.0  0.33364  0.63779  0.17448  1.0000
  H   H2384     1.0  0.20988  0.48723  0.11023  1.0000
  C   C1411     1.0  0.23511  0.62049  0.12530  1.0000
  C   C1412     1.0  0.28786  0.53645  0.17939  1.0000
  C   C1413     1.0  0.15629  0.66159  0.10274  1.0000
  H   H2385     1.0  0.27059  0.48711  0.00576  1.0000
  H   H2386     1.0  0.28610  0.55048  0.10819  1.0000
  H   H2387     1.0  0.32674  0.63217  0.14188  1.0000
  Fe  Fe212     1.0  0.48471  0.69563  0.12908  1.0000
  C   C1414     1.0  0.24989  0.62315  0.11251  1.0000
  H   H2388     1.0  0.23441  0.64791  0.09649  1.0000
  H   H2389     1.0  0.24211  0.67294  0.10822  1.0000
  H   H2390     1.0  0.36041  0.69638  0.20319  1.0000
  Fe  Fe213     1.0  0.11697  0.66617  0.09423  1.0000
  H   H2391     1.0  0.15600  0.48966  0.05991  1.0000
  H   H2392     1.0  0.03316  0.69336  0.21522  1.0000
  C   C1415     1.0  0.19540  0.72872  0.15483  1.0000
  C   C1416     1.0  0.14804  0.48465  0.04120  1.0000
  H   H2393     1.0  0.34652  0.68180  0.13804  1.0000
  C   C1417     1.0  0.43508  0.60017  0.17776  1.0000
  S   S414      1.0  0.12094  0.66075  0.03902  1.0000
  H   H2394     1.0  0.30814  0.71660  0.10660  1.0000
  H   H2395     1.0  0.25233  0.72785  0.12710  1.0000
  C   C1418     1.0  0.25326  0.73017  0.14968  1.0000
  H   H2396     1.0  0.42826  0.67468  0.13930  1.0000
  N   N100      1.0  0.33094  0.72793  0.21483  1.0000
  H   H2397     1.0  0.40930  0.68711  0.14041  1.0000
  H   H2398     1.0  0.40014  0.71417  0.13378  1.0000
  C   C1419     1.0  0.23933  0.56381  0.00684  1.0000
  C   C1420     1.0  0.42835  0.72041  0.12228  1.0000
  H   H2399     1.0  0.15295  0.48985  0.12395  1.0000
  C   C1421     1.0  0.42198  0.68710  0.13720  1.0000
  H   H2400     1.0  0.39736  0.69463  0.11959  1.0000
  N   N101      1.0  0.13951  0.59134  0.02815  1.0000
  C   C1422     1.0  0.12891  0.59234  0.04397  1.0000
  C   C1423     1.0  0.15130  0.60113  0.02552  1.0000
  C   C1424     1.0  0.14805  0.57454  0.02885  1.0000
  C   C1425     1.0  0.12953  0.59680  0.01612  1.0000
  C   C1426     1.0  0.11625  0.58253  0.04962  1.0000
  H   H2401     1.0  0.44978  0.65185  0.14863  1.0000
  C   C1427     1.0  0.15970  0.57068  0.01390  1.0000
  C   C1428     1.0  0.48210  0.65716  0.21266  1.0000
  H   H2402     1.0  0.13593  0.58882  0.05308  1.0000
  H   H2403     1.0  0.12237  0.60454  0.04427  1.0000
  H   H2404     1.0  0.40780  0.71971  0.01434  1.0000
  H   H2405     1.0  0.07283  0.66334  0.01073  1.0000
  H   H2406     1.0  0.15459  0.57042  0.03843  1.0000
  H   H2407     1.0  0.13963  0.56687  0.03163  1.0000
  H   H2408     1.0  0.12391  0.58741  0.01618  1.0000
  H   H2409     1.0  0.11965  0.60654  0.01923  1.0000
  H   H2410     1.0  0.10827  0.58576  0.06042  1.0000
  H   H2411     1.0  0.10888  0.58482  0.04106  1.0000
  H   H2412     1.0  0.12140  0.56989  0.05282  1.0000
  H   H2413     1.0  0.43156  0.59298  0.18955  1.0000
  C   C1429     1.0  0.48181  0.61081  0.17241  1.0000
  H   H2414     1.0  0.08466  0.66543  0.05029  1.0000
  H   H2415     1.0  0.15357  0.57221  0.00448  1.0000
  H   H2416     1.0  0.16573  0.55819  0.01638  1.0000
  H   H2417     1.0  0.16904  0.57737  0.00974  1.0000
  H   H2418     1.0  0.30061  0.71352  0.21064  1.0000
  C   C1430     1.0  0.19646  0.72834  0.18149  1.0000
  H   H2419     1.0  0.06629  0.70722  0.03192  1.0000
  H   H2420     1.0  0.23505  0.62351  0.13621  1.0000
  H   H2421     1.0  0.29344  0.64565  0.17135  1.0000
  H   H2422     1.0  0.42450  0.68813  0.11286  1.0000
  H   H2423     1.0  0.14773  0.52160  0.98472  1.0000
  N   N102      1.0  0.45857  0.61229  0.16059  1.0000
  S   S415      1.0  0.48384  0.70389  0.15030  1.0000
  H   H2424     1.0  0.33968  0.72434  0.09842  1.0000
  H   H2425     1.0  0.27202  0.54159  0.20662  1.0000
  H   H2426     1.0  0.14350  0.51535  0.02681  1.0000
  C   C1431     1.0  0.29706  0.48970  0.14799  1.0000
  H   H2427     1.0  0.05376  0.66963  0.02166  1.0000
  H   H2428     1.0  0.13759  0.63060  0.11591  1.0000
  C   C1432     1.0  0.29885  0.63326  0.19372  1.0000
  H   H2429     1.0  0.23344  0.51522  0.12983  1.0000
  H   H2430     1.0  0.02736  0.63408  0.21433  1.0000
  C   C1433     1.0  0.45045  0.62844  0.16322  1.0000
  C   C1434     1.0  0.44162  0.67014  0.18673  1.0000
  H   H2431     1.0  0.06059  0.65326  0.07290  1.0000
  C   C1435     1.0  0.10192  0.63697  0.01227  1.0000
  H   H2432     1.0  0.31724  0.73258  0.19739  1.0000
  C   C1436     1.0  0.22430  0.57629  0.03946  1.0000
  H   H2433     1.0  0.45729  0.61628  0.12159  1.0000
  Fe  Fe214     1.0  0.11119  0.63474  0.09598  1.0000
  C   C1437     1.0  0.09915  0.63283  0.02859  1.0000
  C   C1438     1.0  0.04156  0.66406  0.19610  1.0000
  H   H2434     1.0  0.15452  0.63072  0.12207  1.0000
  N   N103      1.0  0.21020  0.56996  0.02139  1.0000
  C   C1439     1.0  0.20578  0.55615  0.01900  1.0000
  C   C1440     1.0  0.22278  0.57454  0.00739  1.0000
  C   C1441     1.0  0.19577  0.58303  0.02142  1.0000
  H   H2435     1.0  0.42485  0.71749  0.13519  1.0000
  C   C1442     1.0  0.19505  0.54752  0.03296  1.0000
  H   H2436     1.0  0.24715  0.56785  0.99557  1.0000
  H   H2437     1.0  0.10524  0.65063  0.17988  1.0000
  H   H2438     1.0  0.09463  0.69395  0.02407  1.0000
  H   H2439     1.0  0.20011  0.55958  0.00884  1.0000
  H   H2440     1.0  0.21631  0.54703  0.01617  1.0000
  H   H2441     1.0  0.31230  0.53817  0.17330  1.0000
  H   H2442     1.0  0.21928  0.57513  0.99645  1.0000
  H   H2443     1.0  0.19279  0.58668  0.00973  1.0000
  H   H2444     1.0  0.18538  0.57917  0.02960  1.0000
  C   C1443     1.0  0.27645  0.49396  0.10527  1.0000
  H   H2445     1.0  0.28498  0.52366  0.21047  1.0000
  C   C1444     1.0  0.06422  0.65555  0.05998  1.0000
  H   H2446     1.0  0.18410  0.55518  0.03785  1.0000
  H   H2447     1.0  0.19167  0.53864  0.02912  1.0000
  H   H2448     1.0  0.18737  0.71102  0.20082  1.0000
  H   H2449     1.0  0.12566  0.71328  0.22263  1.0000
  C   C1445     1.0  0.24943  0.72337  0.13953  1.0000
  C   C1446     1.0  0.44237  0.71542  0.08994  1.0000
  Fe  Fe215     1.0  0.99749  0.64103  0.16322  1.0000
  C   C1447     1.0  0.34269  0.72738  0.11949  1.0000
  H   H2450     1.0  0.07290  0.64502  0.05693  1.0000
  C   C1448     1.0  0.39396  0.70744  0.11577  1.0000
  H   H2451     1.0  0.34049  0.68378  0.11357  1.0000
  N   N104      1.0  0.13068  0.66466  0.16460  1.0000
  C   C1449     1.0  0.14249  0.64933  0.16679  1.0000
  C   C1450     1.0  0.12021  0.66594  0.18037  1.0000
  C   C1451     1.0  0.13969  0.67744  0.15915  1.0000
  C   C1452     1.0  0.12189  0.66495  0.15268  1.0000
  C   C1453     1.0  0.15497  0.64573  0.15212  1.0000
  C   C1454     1.0  0.11067  0.65318  0.18805  1.0000
  C   C1455     1.0  0.13010  0.69428  0.15581  1.0000
  C   C1456     1.0  0.10548  0.67603  0.15315  1.0000
  H   H2452     1.0  0.14892  0.64858  0.17585  1.0000
  H   H2453     1.0  0.13651  0.63938  0.17115  1.0000
  H   H2454     1.0  0.11175  0.67730  0.18017  1.0000
  H   H2455     1.0  0.12732  0.66558  0.18866  1.0000
  H   H2456     1.0  0.14668  0.67660  0.16771  1.0000
  H   H2457     1.0  0.14837  0.67618  0.14817  1.0000
  H   H2458     1.0  0.12906  0.66795  0.14071  1.0000
  H   H2459     1.0  0.12006  0.65309  0.15390  1.0000
  H   H2460     1.0  0.16153  0.63345  0.15477  1.0000
  H   H2461     1.0  0.14977  0.64708  0.14210  1.0000
  H   H2462     1.0  0.11805  0.64227  0.19350  1.0000
  H   H2463     1.0  0.10101  0.65716  0.19753  1.0000
  H   H2464     1.0  0.28940  0.54424  0.09054  1.0000
  H   H2465     1.0  0.12133  0.69748  0.16617  1.0000
  H   H2466     1.0  0.12454  0.69653  0.14583  1.0000
  H   H2467     1.0  0.13823  0.70234  0.15232  1.0000
  H   H2468     1.0  0.10407  0.68137  0.14099  1.0000
  H   H2469     1.0  0.10324  0.68576  0.15895  1.0000
  H   H2470     1.0  0.09611  0.66935  0.15855  1.0000
  C   C1457     1.0  0.04819  0.68722  0.04403  1.0000
  S   S416      1.0  0.37297  0.63265  0.18245  1.0000
  H   H2471     1.0  0.30643  0.63465  0.20069  1.0000
  H   H2472     1.0  0.09254  0.62396  0.03485  1.0000
  H   H2473     1.0  0.06738  0.70056  0.05186  1.0000
  H   H2474     1.0  0.04302  0.67798  0.04315  1.0000
  H   H2475     1.0  0.05956  0.71264  0.11432  1.0000
  H   H2476     1.0  0.20147  0.54105  0.04230  1.0000
  H   H2477     1.0  0.22826  0.67512  0.09711  1.0000
  H   H2478     1.0  0.26761  0.51897  0.08121  1.0000
  C   C1458     1.0  0.25085  0.52218  0.10917  1.0000
  H   H2479     1.0  0.26580  0.50971  0.22413  1.0000
  H   H2480     1.0  0.29121  0.50955  0.10257  1.0000
  C   C1459     1.0  0.11359  0.65141  0.02893  1.0000
  C   C1460     1.0  0.10504  0.63993  0.03687  1.0000
  H   H2481     1.0  0.05814  0.64218  0.22442  1.0000
  H   H2482     1.0  0.22976  0.48594  0.09975  1.0000
  N   N105      1.0  0.42098  0.71193  0.11521  1.0000
  H   H2483     1.0  0.39500  0.71059  0.10300  1.0000
  H   H2484     1.0  0.43243  0.70083  0.97737  1.0000
  C   C1461     1.0  0.42740  0.69466  0.11993  1.0000
  S   S417      1.0  0.00715  0.63832  0.18406  1.0000
  H   H2485     1.0  0.17238  0.72660  0.19413  1.0000
  H   H2486     1.0  0.04441  0.69732  0.03477  1.0000
  S   S418      1.0  0.99512  0.67893  0.19599  1.0000
  H   H2487     1.0  0.22339  0.55353  0.03772  1.0000
  H   H2488     1.0  0.33258  0.72419  0.01401  1.0000
  C   C1462     1.0  0.01795  0.62852  0.22245  1.0000
  C   C1463     1.0  0.34346  0.69448  0.11450  1.0000
  C   C1464     1.0  0.42749  0.65043  0.20329  1.0000
  H   H2489     1.0  0.44046  0.69202  0.11751  1.0000
  C   C1465     1.0  0.19638  0.59788  0.02585  1.0000
  H   H2490     1.0  0.21703  0.58214  0.04902  1.0000
  C   C1466     1.0  0.33056  0.72078  0.16577  1.0000
  H   H2491     1.0  0.29553  0.53073  0.10757  1.0000
  H   H2492     1.0  0.07075  0.67464  0.06428  1.0000
  H   H2493     1.0  0.42435  0.64295  0.21457  1.0000
  C   C1467     1.0  0.24881  0.72489  0.16579  1.0000
  C   C1468     1.0  0.47852  0.73106  0.10683  1.0000
  C   C1469     1.0  0.07182  0.66992  0.05397  1.0000
  H   H2494     1.0  0.47447  0.71097  0.21048  1.0000
  H   H2495     1.0  0.16377  0.49446  0.00210  1.0000
  H   H2496     1.0  0.04564  0.62566  0.12643  1.0000
  H   H2497     1.0  0.12304  0.66439  0.00636  1.0000
  H   H2498     1.0  0.14373  0.61545  0.13140  1.0000
  N   N106      1.0  0.40207  0.71023  0.99780  1.0000
  C   C1470     1.0  0.26993  0.53644  0.10926  1.0000
  H   H2499     1.0  0.33158  0.71473  0.08345  1.0000
  C   C1471     1.0  0.41378  0.71454  0.00398  1.0000
  C   C1472     1.0  0.40949  0.69602  0.99089  1.0000
  C   C1473     1.0  0.23415  0.51768  0.04801  1.0000
  H   H2500     1.0  0.30756  0.72914  0.13491  1.0000
  H   H2501     1.0  0.24590  0.48751  0.01353  1.0000
  C   C1474     1.0  0.03975  0.69147  0.05992  1.0000
  C   C1475     1.0  0.42482  0.71663  0.09772  1.0000
  C   C1476     1.0  0.06394  0.70261  0.12327  1.0000
  H   H2502     1.0  0.34393  0.72040  0.19348  1.0000
  H   H2503     1.0  0.31151  0.69093  0.17833  1.0000
  C   C1477     1.0  0.27073  0.49968  0.19302  1.0000
  C   C1478     1.0  0.42173  0.64991  0.19081  1.0000
  H   H2504     1.0  0.41532  0.68635  0.99925  1.0000
  H   H2505     1.0  0.15048  0.59880  0.99626  1.0000
  H   H2506     1.0  0.27718  0.49482  0.09280  1.0000
  H   H2507     1.0  0.43952  0.67680  0.16290  1.0000
  C   C1479     1.0  0.21587  0.50540  0.04344  1.0000
  C   C1480     1.0  0.16637  0.51884  0.01345  1.0000
  C   C1481     1.0  0.26110  0.52206  0.21890  1.0000
  C   C1482     1.0  0.45860  0.64193  0.15347  1.0000
  H   H2508     1.0  0.02189  0.69206  0.16089  1.0000
  H   H2509     1.0  0.48305  0.68827  0.18829  1.0000
  H   H2510     1.0  0.47012  0.68633  0.20659  1.0000
  H   H2511     1.0  0.47599  0.66103  0.20284  1.0000
  H   H2512     1.0  0.25623  0.49104  0.03042  1.0000
  C   C1483     1.0  0.31810  0.70625  0.10710  1.0000
  N   N107      1.0  0.05411  0.68078  0.14554  1.0000
  C   C1484     1.0  0.06816  0.66899  0.13936  1.0000
  C   C1485     1.0  0.04048  0.67277  0.15234  1.0000
  C   C1486     1.0  0.05822  0.68614  0.15779  1.0000
  C   C1487     1.0  0.07214  0.65322  0.15078  1.0000
  C   C1488     1.0  0.02377  0.68316  0.15415  1.0000
  C   C1489     1.0  0.22115  0.51017  0.02738  1.0000
  H   H2513     1.0  0.06651  0.66625  0.12887  1.0000
  H   H2514     1.0  0.07898  0.67374  0.13546  1.0000
  C   C1490     1.0  0.26236  0.54373  0.07787  1.0000
  H   H2515     1.0  0.04067  0.66478  0.14501  1.0000
  H   H2516     1.0  0.04157  0.66517  0.16392  1.0000
  H   H2517     1.0  0.05984  0.67639  0.16799  1.0000
  H   H2518     1.0  0.06990  0.68926  0.15372  1.0000
  H   H2519     1.0  0.08308  0.64600  0.14511  1.0000
  H   H2520     1.0  0.07430  0.65457  0.16161  1.0000
  H   H2521     1.0  0.06290  0.64646  0.15368  1.0000
  C   C1491     1.0  0.12685  0.68673  0.20657  1.0000
  H   H2522     1.0  0.01523  0.67568  0.16058  1.0000
  S   S419      1.0  0.22692  0.54304  0.98506  1.0000
  S   S420      1.0  0.33979  0.66800  0.17328  1.0000
  S   S421      1.0  0.13362  0.50103  0.97745  1.0000
  C   C1492     1.0  0.47730  0.70797  0.19895  1.0000
  C   C1493     1.0  0.33570  0.61332  0.18456  1.0000
  H   H2523     1.0  0.42908  0.72376  0.98154  1.0000
  H   H2524     1.0  0.05374  0.65648  0.05568  1.0000
  H   H2525     1.0  0.04057  0.70878  0.15604  1.0000
  H   H2526     1.0  0.01735  0.61894  0.21751  1.0000
  C   C1494     1.0  0.46013  0.62016  0.13077  1.0000
  H   H2527     1.0  0.40292  0.69468  0.02940  1.0000
  C   C1495     1.0  0.06628  0.66572  0.02234  1.0000
  H   H2528     1.0  0.44134  0.66119  0.21112  1.0000
  H   H2529     1.0  0.23485  0.60794  0.12819  1.0000
  H   H2530     1.0  0.28170  0.61629  0.09832  1.0000
  H   H2531     1.0  0.11232  0.55240  0.98850  1.0000
  H   H2532     1.0  0.24170  0.55340  0.18087  1.0000
  C   C1496     1.0  0.24021  0.52148  0.03199  1.0000
  H   H2533     1.0  0.32751  0.70460  0.14126  1.0000
  C   C1497     1.0  0.30488  0.53042  0.18179  1.0000
  N   N108      1.0  0.31676  0.63073  0.16652  1.0000
  H   H2534     1.0  0.09530  0.68647  0.04446  1.0000
  H   H2535     1.0  0.44735  0.72373  0.09285  1.0000
  H   H2536     1.0  0.13609  0.48680  0.03894  1.0000
  H   H2537     1.0  0.02688  0.69333  0.06122  1.0000
  H   H2538     1.0  0.03744  0.69520  0.17456  1.0000
  C   C1498     1.0  0.31865  0.63970  0.14981  1.0000
  H   H2539     1.0  0.30622  0.71962  0.17338  1.0000
  C   C1499     1.0  0.38880  0.70627  0.01131  1.0000
  C   C1500     1.0  0.23374  0.51766  0.02167  1.0000
  H   H2540     1.0  0.33788  0.60220  0.18083  1.0000
  N   N109      1.0  0.17285  0.60234  0.11170  1.0000
  C   C1501     1.0  0.18394  0.61159  0.11238  1.0000
  C   C1502     1.0  0.15812  0.61357  0.10779  1.0000
  C   C1503     1.0  0.17999  0.59284  0.09938  1.0000
  C   C1504     1.0  0.16934  0.59135  0.12725  1.0000
  C   C1505     1.0  0.20045  0.60221  0.11445  1.0000
  C   C1506     1.0  0.14811  0.62298  0.12016  1.0000
  C   C1507     1.0  0.18594  0.60193  0.08282  1.0000
  C   C1508     1.0  0.15633  0.58257  0.12946  1.0000
  H   H2541     1.0  0.18543  0.62100  0.10174  1.0000
  H   H2542     1.0  0.17907  0.61768  0.12221  1.0000
  H   H2543     1.0  0.15043  0.60742  0.10536  1.0000
  H   H2544     1.0  0.16093  0.62235  0.09688  1.0000
  H   H2545     1.0  0.18986  0.58319  0.10272  1.0000
  H   H2546     1.0  0.17131  0.58698  0.09822  1.0000
  H   H2547     1.0  0.18000  0.58218  0.12933  1.0000
  H   H2548     1.0  0.16609  0.59759  0.13692  1.0000
  H   H2549     1.0  0.20743  0.61029  0.11481  1.0000
  H   H2550     1.0  0.20007  0.59340  0.12556  1.0000
  H   H2551     1.0  0.20692  0.59653  0.10460  1.0000
  C   C1509     1.0  0.31262  0.61567  0.16710  1.0000
  H   H2552     1.0  0.14245  0.69295  0.11952  1.0000
  S   S422      1.0  0.06342  0.67552  0.20227  1.0000
  H   H2553     1.0  0.17965  0.49636  0.04274  1.0000
  H   H2554     1.0  0.16476  0.51869  0.00196  1.0000
  H   H2555     1.0  0.43282  0.59470  0.16941  1.0000
  C   C1510     1.0  0.04408  0.67445  0.20342  1.0000
  C   C1511     1.0  0.02641  0.66481  0.19451  1.0000
  H   H2556     1.0  0.23170  0.69595  0.16625  1.0000
  S   S423      1.0  0.09528  0.64385  0.07920  1.0000
  H   H2557     1.0  0.28686  0.62379  0.16967  1.0000
  S   S424      1.0  0.13022  0.64720  0.08141  1.0000
  C   C1512     1.0  0.01376  0.67616  0.19992  1.0000
  C   C1513     1.0  0.05063  0.69392  0.13196  1.0000
  H   H2558     1.0  0.24270  0.53352  0.10595  1.0000
  C   C1514     1.0  0.07140  0.69708  0.04042  1.0000
  S   S425      1.0  0.09922  0.65282  0.11015  1.0000
  Fe  Fe216     1.0  0.21460  0.52338  0.99131  1.0000
  C   C1515     1.0  0.45257  0.60052  0.17468  1.0000
  H   H2559     1.0  0.23676  0.48527  0.99219  1.0000
  S   S426      1.0  0.41025  0.63630  0.19363  1.0000
  H   H2560     1.0  0.46673  0.71324  0.19388  1.0000
  H   H2561     1.0  0.06396  0.64198  0.10887  1.0000
  H   H2562     1.0  0.19573  0.59583  0.03849  1.0000
  Fe  Fe217     1.0  0.11337  0.65763  0.06531  1.0000
  H   H2563     1.0  0.32212  0.60892  0.15936  1.0000
  C   C1516     1.0  0.04167  0.63821  0.12362  1.0000
  H   H2564     1.0  0.04763  0.68949  0.12326  1.0000
  H   H2565     1.0  0.17984  0.64749  0.10127  1.0000
  H   H2566     1.0  0.19331  0.72981  0.13141  1.0000
  H   H2567     1.0  0.26282  0.63739  0.08453  1.0000
  C   C1517     1.0  0.22235  0.50919  0.05374  1.0000
  C   C1518     1.0  0.05204  0.64743  0.11363  1.0000
  C   C1519     1.0  0.27096  0.52755  0.08555  1.0000
  C   C1520     1.0  0.02625  0.64514  0.13002  1.0000
  C   C1521     1.0  0.33287  0.72313  0.11063  1.0000
  H   H2568     1.0  0.18561  0.72261  0.15855  1.0000
  H   H2569     1.0  0.42736  0.61191  0.17753  1.0000
  H   H2570     1.0  0.42143  0.65926  0.16658  1.0000
  C   C1522     1.0  0.28624  0.54052  0.10338  1.0000
  H   H2571     1.0  0.25047  0.52291  0.21485  1.0000
  S   S427      1.0  0.01327  0.63327  0.14174  1.0000
  C   C1523     1.0  0.02114  0.66135  0.12625  1.0000
  H   H2572     1.0  0.24850  0.62021  0.10200  1.0000
  C   C1524     1.0  0.03135  0.67053  0.11584  1.0000
  C   C1525     1.0  0.32118  0.69681  0.17411  1.0000
  C   C1526     1.0  0.43604  0.66953  0.17416  1.0000
  H   H2573     1.0  0.48187  0.61639  0.14813  1.0000
  H   H2574     1.0  0.26096  0.54731  0.10684  1.0000
  H   H2575     1.0  0.26804  0.53324  0.12214  1.0000
  H   H2576     1.0  0.48682  0.71352  0.19101  1.0000
  H   H2577     1.0  0.22929  0.65069  0.11584  1.0000
  S   S428      1.0  0.05950  0.67536  0.09691  1.0000
  H   H2578     1.0  0.10312  0.63636  0.04937  1.0000
  H   H2579     1.0  0.27733  0.48749  0.19285  1.0000
  H   H2580     1.0  0.25838  0.66323  0.12722  1.0000
  H   H2581     1.0  0.31174  0.70516  0.22520  1.0000
  H   H2582     1.0  0.04192  0.70248  0.06085  1.0000
  Fe  Fe218     1.0  0.47330  0.68314  0.16316  1.0000
  H   H2583     1.0  0.35177  0.69796  0.10334  1.0000
  H   H2584     1.0  0.31980  0.49554  0.14163  1.0000
  H   H2585     1.0  0.29111  0.63074  0.08478  1.0000
  S   S429      1.0  0.38779  0.72248  0.04439  1.0000
  H   H2586     1.0  0.15823  0.65723  0.21327  1.0000
  H   H2587     1.0  0.06780  0.70735  0.13113  1.0000
  H   H2588     1.0  0.29132  0.50454  0.19627  1.0000
  C   C1527     1.0  0.16570  0.67836  0.11863  1.0000
  C   C1528     1.0  0.17623  0.66541  0.11370  1.0000
  C   C1529     1.0  0.17158  0.65722  0.10548  1.0000
  S   S430      1.0  0.10193  0.67811  0.07668  1.0000
  H   H2589     1.0  0.27728  0.65052  0.12392  1.0000
  C   C1530     1.0  0.24126  0.71237  0.17164  1.0000
  C   C1531     1.0  0.14566  0.67437  0.10799  1.0000
  C   C1532     1.0  0.08931  0.69577  0.03606  1.0000
  C   C1533     1.0  0.24563  0.51692  0.12699  1.0000
  H   H2590     1.0  0.20612  0.71916  0.15481  1.0000
  H   H2591     1.0  0.29765  0.62244  0.14991  1.0000
  C   C1534     1.0  0.45482  0.60958  0.14663  1.0000
  C   C1535     1.0  0.24120  0.71129  0.14548  1.0000
  H   H2592     1.0  0.25082  0.55318  0.19589  1.0000
  N   N110      1.0  0.32885  0.70730  0.11659  1.0000
  H   H2593     1.0  0.42246  0.70398  0.00818  1.0000
  H   H2594     1.0  0.20536  0.56422  0.04648  1.0000
  C   C1536     1.0  0.01618  0.68612  0.20783  1.0000
  C   C1537     1.0  0.47615  0.60900  0.15872  1.0000
  S   S431      1.0  0.37308  0.72543  0.08109  1.0000
  H   H2595     1.0  0.39874  0.72868  0.11651  1.0000
  C   C1538     1.0  0.16088  0.48762  0.11317  1.0000
  H   H2596     1.0  0.35572  0.69831  0.13063  1.0000
  S   S432      1.0  0.23466  0.70425  0.13282  1.0000
  S   S433      1.0  0.19504  0.65905  0.11802  1.0000
  S   S434      1.0  0.19407  0.69541  0.13509  1.0000
  H   H2597     1.0  0.20799  0.71988  0.18034  1.0000
  C   C1539     1.0  0.15052  0.68288  0.11570  1.0000
  H   H2598     1.0  0.16926  0.68493  0.12472  1.0000
  H   H2599     1.0  0.17893  0.51451  0.01387  1.0000
  C   C1540     1.0  0.43715  0.66072  0.20134  1.0000
  H   H2600     1.0  0.42056  0.70940  0.09249  1.0000
  C   C1541     1.0  0.31240  0.71175  0.21302  1.0000
  S   S435      1.0  0.12606  0.67977  0.10575  1.0000
  H   H2601     1.0  0.18582  0.60702  0.02350  1.0000
  C   C1542     1.0  0.35285  0.68880  0.12747  1.0000
  H   H2602     1.0  0.22416  0.62694  0.12126  1.0000
  H   H2603     1.0  0.45941  0.58848  0.17392  1.0000
  C   C1543     1.0  0.23886  0.65095  0.10523  1.0000
  H   H2604     1.0  0.45352  0.63240  0.13027  1.0000
  H   H2605     1.0  0.15274  0.65513  0.09654  1.0000
  H   H2606     1.0  0.45992  0.59727  0.14549  1.0000
  H   H2607     1.0  0.44193  0.61138  0.14800  1.0000
  C   C1544     1.0  0.07257  0.67826  0.02556  1.0000
  C   C1545     1.0  0.39355  0.69292  0.02491  1.0000
  C   C1546     1.0  0.32010  0.70498  0.13336  1.0000
  H   H2608     1.0  0.15834  0.59650  0.03468  1.0000
  S   S436      1.0  0.45386  0.68286  0.18458  1.0000
  C   C1547     1.0  0.28237  0.62866  0.09591  1.0000
  H   H2609     1.0  0.30579  0.53067  0.19352  1.0000
  H   H2610     1.0  0.34669  0.61337  0.18762  1.0000
  C   C1548     1.0  0.42311  0.72662  0.99299  1.0000
  H   H2611     1.0  0.33672  0.65233  0.14847  1.0000
  N   N111      1.0  0.25351  0.63915  0.10859  1.0000
  C   C1549     1.0  0.26646  0.63986  0.09411  1.0000
  H   H2612     1.0  0.13300  0.59883  0.99117  1.0000
  C   C1550     1.0  0.29709  0.61722  0.16246  1.0000
  H   H2613     1.0  0.48155  0.59692  0.15696  1.0000
  H   H2614     1.0  0.26637  0.63035  0.12707  1.0000
  H   H2615     1.0  0.28708  0.63056  0.10502  1.0000
  H   H2616     1.0  0.41854  0.72876  0.09377  1.0000
  H   H2617     1.0  0.29496  0.60537  0.16441  1.0000
  C   C1551     1.0  0.25822  0.64110  0.12238  1.0000
  H   H2618     1.0  0.24795  0.64216  0.13221  1.0000
  H   H2619     1.0  0.24959  0.52775  0.02757  1.0000
  H   H2620     1.0  0.16008  0.60058  0.01447  1.0000
  N   N112      1.0  0.26766  0.52375  0.10310  1.0000
  H   H2621     1.0  0.26894  0.65163  0.08938  1.0000
  C   C1552     1.0  0.32490  0.65471  0.14605  1.0000
  C   C1553     1.0  0.17564  0.48426  0.02665  1.0000
  H   H2622     1.0  0.26305  0.49965  0.20470  1.0000
  H   H2623     1.0  0.38000  0.70259  0.00757  1.0000
  H   H2624     1.0  0.32066  0.70473  0.20479  1.0000
  H   H2625     1.0  0.30795  0.65125  0.17635  1.0000
  H   H2626     1.0  0.24845  0.67043  0.08817  1.0000
  H   H2627     1.0  0.43231  0.72722  0.99853  1.0000
  H   H2628     1.0  0.38225  0.71676  0.01615  1.0000
  C   C1554     1.0  0.11056  0.64837  0.00428  1.0000
  H   H2629     1.0  0.00643  0.69493  0.21206  1.0000
  C   C1555     1.0  0.33936  0.73276  0.00714  1.0000
  H   H2630     1.0  0.22778  0.58537  0.02925  1.0000
  H   H2631     1.0  0.31271  0.69592  0.11261  1.0000
  H   H2632     1.0  0.26867  0.66156  0.10790  1.0000
  C   C1556     1.0  0.23990  0.66820  0.09934  1.0000
  C   C1557     1.0  0.26602  0.65488  0.11997  1.0000
  H   H2633     1.0  0.18242  0.71135  0.18331  1.0000
  H   H2634     1.0  0.23950  0.55153  0.00747  1.0000
  H   H2635     1.0  0.28591  0.48398  0.10882  1.0000
  H   H2636     1.0  0.32604  0.65995  0.13342  1.0000
  H   H2637     1.0  0.45414  0.60263  0.18550  1.0000
  H   H2638     1.0  0.23793  0.70814  0.18409  1.0000
  H   H2639     1.0  0.15786  0.51139  0.03777  1.0000
  H   H2640     1.0  0.24943  0.54524  0.08143  1.0000
  H   H2641     1.0  0.07072  0.68872  0.01596  1.0000
  C   C1558     1.0  0.33228  0.62747  0.17120  1.0000
  N   N113      1.0  0.15870  0.49248  0.02716  1.0000
  C   C1559     1.0  0.30408  0.64071  0.17638  1.0000
  H   H2642     1.0  0.31680  0.66359  0.15237  1.0000
  H   H2643     1.0  0.15401  0.62504  0.02094  1.0000
  H   H2644     1.0  0.20638  0.49929  0.04794  1.0000
  C   C1560     1.0  0.21556  0.56540  0.03652  1.0000
  H   H2645     1.0  0.32635  0.61348  0.19522  1.0000
  C   C1561     1.0  0.04642  0.69962  0.16458  1.0000
  C   C1562     1.0  0.14440  0.61858  0.02542  1.0000
  H   H2646     1.0  0.34226  0.62537  0.16119  1.0000
  S   S437      1.0  0.21154  0.50716  0.01469  1.0000
  H   H2647     1.0  0.26598  0.55334  0.08016  1.0000
  H   H2648     1.0  0.07410  0.69513  0.11690  1.0000
  C   C1563     1.0  0.15599  0.50954  0.02703  1.0000
  H   H2649     1.0  0.44947  0.70346  0.09294  1.0000
  C   C1564     1.0  0.15458  0.49139  0.01263  1.0000
  H   H2650     1.0  0.47631  0.62226  0.17558  1.0000
  H   H2651     1.0  0.23844  0.52059  0.00932  1.0000
  C   C1565     1.0  0.31636  0.72776  0.21008  1.0000
  H   H2652     1.0  0.35580  0.72420  0.20374  1.0000
  H   H2653     1.0  0.38135  0.71092  0.12121  1.0000
  H   H2654     1.0  0.46815  0.63933  0.14346  1.0000
  S   S438      1.0  0.19301  0.53809  0.98318  1.0000
  C   C1566     1.0  0.32567  0.70507  0.09003  1.0000
  H   H2655     1.0  0.26520  0.49090  0.11224  1.0000
  H   H2656     1.0  0.00649  0.63691  0.22257  1.0000
  H   H2657     1.0  0.14351  0.49991  0.01055  1.0000
  H   H2658     1.0  0.33407  0.69377  0.08923  1.0000
  C   C1567     1.0  0.34546  0.71913  0.20546  1.0000
  H   H2659     1.0  0.04298  0.68202  0.06983  1.0000
  H   H2660     1.0  0.29601  0.71794  0.13087  1.0000
  H   H2661     1.0  0.13445  0.61575  0.99584  1.0000
  H   H2662     1.0  0.13589  0.62382  0.01781  1.0000
  H   H2663     1.0  0.31637  0.70567  0.08404  1.0000
  H   H2664     1.0  0.31013  0.51861  0.17939  1.0000
  C   C1568     1.0  0.35083  0.70153  0.21209  1.0000
  H   H2665     1.0  0.33936  0.72349  0.13222  1.0000
  C   C1569     1.0  0.18380  0.71892  0.19017  1.0000
  H   H2666     1.0  0.29960  0.71437  0.14975  1.0000
  Fe  Fe219     1.0  0.07249  0.65077  0.25533  1.0000
  S   S439      1.0  0.05461  0.67240  0.24882  1.0000
  S   S440      1.0  0.06286  0.62990  0.26961  1.0000
  Fe  Fe220     1.0  0.07054  0.68481  0.25344  1.0000
  S   S441      1.0  0.08740  0.66287  0.26159  1.0000
  H   H2667     1.0  0.05594  0.60399  0.29404  1.0000
  H   H2668     1.0  0.10172  0.68691  0.26845  1.0000
  H   H2669     1.0  0.05668  0.62624  0.24076  1.0000
  C   C1570     1.0  0.02132  0.62152  0.23889  1.0000
  C   C1571     1.0  0.03521  0.71519  0.47087  1.0000
  Fe  Fe221     1.0  0.07461  0.69371  0.43134  1.0000
  S   S442      1.0  0.09556  0.68298  0.44194  1.0000
  S   S443      1.0  0.06426  0.71940  0.42820  1.0000
  Fe  Fe222     1.0  0.07304  0.66310  0.42499  1.0000
  S   S444      1.0  0.09365  0.64969  0.43568  1.0000
  S   S445      1.0  0.05993  0.65513  0.41189  1.0000
  Fe  Fe223     1.0  0.08273  0.66378  0.45423  1.0000
  H   H2670     1.0  0.06170  0.54285  0.40196  1.0000
  Fe  Fe224     1.0  0.10444  0.67022  0.42253  1.0000
  S   S446      1.0  0.12948  0.66676  0.40922  1.0000
  S   S447      1.0  0.06100  0.67537  0.44473  1.0000
  S   S448      1.0  0.08461  0.68273  0.41072  1.0000
  C   C1572     1.0  0.11860  0.62613  0.39236  1.0000
  S   S449      1.0  0.13695  0.73144  0.30494  1.0000
  C   C1573     1.0  0.12782  0.64242  0.36725  1.0000
  C   C1574     1.0  0.10570  0.54529  0.40122  1.0000
  H   H2671     1.0  0.12235  0.68791  0.23907  1.0000
  H   H2672     1.0  0.13296  0.66644  0.27568  1.0000
  H   H2673     1.0  0.13046  0.62051  0.41150  1.0000
  H   H2674     1.0  0.01807  0.70832  0.44924  1.0000
  S   S450      1.0  0.14151  0.69613  0.33725  1.0000
  H   H2675     1.0  0.01389  0.65206  0.26820  1.0000
  Fe  Fe225     1.0  0.07294  0.58218  0.37824  1.0000
  S   S451      1.0  0.08797  0.56349  0.36542  1.0000
  S   S452      1.0  0.08156  0.58751  0.39685  1.0000
  Fe  Fe226     1.0  0.04754  0.58924  0.36011  1.0000
  S   S453      1.0  0.06036  0.57153  0.34571  1.0000
  S   S454      1.0  0.02454  0.60350  0.35497  1.0000
  Fe  Fe227     1.0  0.06558  0.55593  0.36810  1.0000
  S   S455      1.0  0.06008  0.53178  0.37668  1.0000
  Fe  Fe228     1.0  0.08131  0.58073  0.34417  1.0000
  S   S456      1.0  0.09851  0.58805  0.32216  1.0000
  S   S457      1.0  0.05109  0.57322  0.38282  1.0000
  S   S458      1.0  0.06799  0.59980  0.35679  1.0000
  C   C1575     1.0  0.03056  0.53113  0.30810  1.0000
  C   C1576     1.0  0.01438  0.59027  0.35385  1.0000
  N   N114      1.0  0.17093  0.72171  0.35256  1.0000
  H   H2676     1.0  0.02791  0.50427  0.24538  1.0000
  C   C1577     1.0  0.03014  0.49201  0.24424  1.0000
  C   C1578     1.0  0.01797  0.57470  0.36169  1.0000
  C   C1579     1.0  0.00685  0.64355  0.25109  1.0000
  H   H2677     1.0  0.16175  0.66570  0.26812  1.0000
  H   H2678     1.0  0.01275  0.55200  0.36699  1.0000
  C   C1580     1.0  0.06620  0.51747  0.36535  1.0000
  C   C1581     1.0  0.05764  0.50582  0.36889  1.0000
  C   C1582     1.0  0.06261  0.49373  0.36070  1.0000
  H   H2679     1.0  0.11311  0.53646  0.40865  1.0000
  H   H2680     1.0  0.01747  0.70196  0.39587  1.0000
  C   C1583     1.0  0.07985  0.51688  0.35362  1.0000
  H   H2681     1.0  0.04704  0.50623  0.37794  1.0000
  C   C1584     1.0  0.01006  0.56398  0.36074  1.0000
  H   H2682     1.0  0.09974  0.50576  0.44151  1.0000
  H   H2683     1.0  0.08659  0.52573  0.35085  1.0000
  C   C1585     1.0  0.10014  0.51605  0.43163  1.0000
  H   H2684     1.0  0.12485  0.66676  0.26026  1.0000
  H   H2685     1.0  0.09271  0.63011  0.38170  1.0000
  C   C1586     1.0  0.10369  0.65285  0.38546  1.0000
  H   H2686     1.0  0.46778  0.68462  0.23093  1.0000
  N   N115      1.0  0.02268  0.63286  0.24743  1.0000
  H   H2687     1.0  0.08872  0.50123  0.39566  1.0000
  N   N116      1.0  0.13541  0.68640  0.25619  1.0000
  H   H2688     1.0  0.03921  0.49081  0.23345  1.0000
  C   C1587     1.0  0.01932  0.70391  0.43870  1.0000
  H   H2689     1.0  0.09590  0.50390  0.33700  1.0000
  C   C1588     1.0  0.13268  0.67598  0.38945  1.0000
  C   C1589     1.0  0.14646  0.67008  0.37952  1.0000
  C   C1590     1.0  0.14902  0.67643  0.36352  1.0000
  C   C1591     1.0  0.13796  0.68894  0.35739  1.0000
  C   C1592     1.0  0.12434  0.69523  0.36731  1.0000
  C   C1593     1.0  0.12168  0.68870  0.38338  1.0000
  H   H2690     1.0  0.15502  0.66032  0.38419  1.0000
  H   H2691     1.0  0.15958  0.67158  0.35587  1.0000
  H   H2692     1.0  0.11580  0.70496  0.36258  1.0000
  H   H2693     1.0  0.11125  0.69361  0.39105  1.0000
  C   C1594     1.0  0.06580  0.63617  0.40812  1.0000
  C   C1595     1.0  0.05954  0.63280  0.39733  1.0000
  C   C1596     1.0  0.06421  0.61791  0.39381  1.0000
  C   C1597     1.0  0.07509  0.60624  0.40118  1.0000
  C   C1598     1.0  0.08121  0.60957  0.41209  1.0000
  C   C1599     1.0  0.07666  0.62450  0.41550  1.0000
  H   H2694     1.0  0.05106  0.64173  0.39164  1.0000
  H   H2695     1.0  0.05931  0.61545  0.38548  1.0000
  H   H2696     1.0  0.08956  0.60058  0.41791  1.0000
  H   H2697     1.0  0.08144  0.62692  0.42394  1.0000
  C   C1600     1.0  0.14476  0.69072  0.27888  1.0000
  H   H2698     1.0  0.04218  0.69125  0.38744  1.0000
  H   H2699     1.0  0.17212  0.66023  0.25015  1.0000
  H   H2700     1.0  0.02962  0.65095  0.22772  1.0000
  H   H2701     1.0  0.02978  0.50898  0.35545  1.0000
  H   H2702     1.0  0.03380  0.71997  0.42565  1.0000
  H   H2703     1.0  0.14027  0.69902  0.28680  1.0000
  H   H2704     1.0  0.05789  0.52804  0.41876  1.0000
  H   H2705     1.0  0.02993  0.72359  0.38433  1.0000
  H   H2706     1.0  0.10847  0.62152  0.40041  1.0000
  C   C1601     1.0  0.15339  0.72541  0.35852  1.0000
  H   H2707     1.0  0.00614  0.62404  0.27994  1.0000
  H   H2708     1.0  0.10897  0.55660  0.39949  1.0000
  C   C1602     1.0  0.04995  0.72363  0.44470  1.0000
  H   H2709     1.0  0.10160  0.73207  0.25005  1.0000
  H   H2710     1.0  0.06977  0.50989  0.40518  1.0000
  C   C1603     1.0  0.16022  0.66375  0.25732  1.0000
  H   H2711     1.0  0.35343  0.72119  0.23243  1.0000
  C   C1604     1.0  0.04782  0.71216  0.45838  1.0000
  H   H2712     1.0  0.20163  0.70113  0.34872  1.0000
  C   C1605     1.0  0.03602  0.64011  0.30911  1.0000
  C   C1606     1.0  0.15107  0.67835  0.24779  1.0000
  H   H2713     1.0  0.06132  0.51341  0.30336  1.0000
  H   H2714     1.0  0.06432  0.52963  0.30886  1.0000
  H   H2715     1.0  0.13684  0.71622  0.23435  1.0000
  C   C1607     1.0  0.03423  0.64269  0.23769  1.0000
  S   S459      1.0  0.08666  0.65140  0.23113  1.0000
  H   H2716     1.0  0.99391  0.65865  0.26729  1.0000
  H   H2717     1.0  0.09721  0.66807  0.36355  1.0000
  H   H2718     1.0  0.07591  0.51519  0.43449  1.0000
  C   C1608     1.0  0.08388  0.71839  0.25875  1.0000
  C   C1609     1.0  0.05864  0.63172  0.32141  1.0000
  H   H2719     1.0  0.01748  0.66767  0.33165  1.0000
  H   H2720     1.0  0.00985  0.50776  0.35825  1.0000
  C   C1610     1.0  0.07368  0.61745  0.28316  1.0000
  C   C1611     1.0  0.08822  0.61958  0.28351  1.0000
  C   C1612     1.0  0.09605  0.61019  0.29527  1.0000
  C   C1613     1.0  0.08921  0.59888  0.30682  1.0000
  C   C1614     1.0  0.07478  0.59662  0.30626  1.0000
  C   C1615     1.0  0.06713  0.60576  0.29435  1.0000
  H   H2721     1.0  0.09344  0.62843  0.27477  1.0000
  H   H2722     1.0  0.10727  0.61188  0.29558  1.0000
  H   H2723     1.0  0.06957  0.58775  0.31491  1.0000
  H   H2724     1.0  0.15119  0.72109  0.38399  1.0000
  H   H2725     1.0  0.07299  0.51015  0.31709  1.0000
  H   H2726     1.0  0.14500  0.70550  0.25640  1.0000
  H   H2727     1.0  0.02856  0.69307  0.43925  1.0000
  H   H2728     1.0  0.01876  0.54983  0.32845  1.0000
  H   H2729     1.0  0.04424  0.55488  0.30846  1.0000
  C   C1616     1.0  0.05080  0.63366  0.23130  1.0000
  H   H2730     1.0  0.06757  0.70670  0.29699  1.0000
  H   H2731     1.0  0.04707  0.50387  0.32974  1.0000
  H   H2732     1.0  0.03887  0.61439  0.25939  1.0000
  H   H2733     1.0  0.13642  0.65164  0.34270  1.0000
  H   H2734     1.0  0.05852  0.56169  0.41864  1.0000
  H   H2735     1.0  0.09640  0.64922  0.39727  1.0000
  H   H2736     1.0  0.01961  0.54015  0.30673  1.0000
  H   H2737     1.0  0.05572  0.62063  0.32900  1.0000
  S   S460      1.0  0.10295  0.72227  0.32269  1.0000
  C   C1617     1.0  0.99543  0.58422  0.34351  1.0000
  H   H2738     1.0  0.17803  0.71521  0.37468  1.0000
  C   C1618     1.0  0.01925  0.51951  0.33475  1.0000
  H   H2739     1.0  0.05500  0.54646  0.43594  1.0000
  H   H2740     1.0  0.11144  0.65950  0.38711  1.0000
  H   H2741     1.0  0.01009  0.65205  0.32949  1.0000
  C   C1619     1.0  0.08243  0.50761  0.40510  1.0000
  H   H2742     1.0  0.02208  0.60845  0.28465  1.0000
  H   H2743     1.0  0.08491  0.49981  0.41619  1.0000
  H   H2744     1.0  0.03885  0.56326  0.32509  1.0000
  C   C1620     1.0  0.04796  0.51630  0.32694  1.0000
  H   H2745     1.0  0.19548  0.68685  0.34330  1.0000
  C   C1621     1.0  0.07506  0.71216  0.28674  1.0000
  H   H2746     1.0  0.17435  0.69698  0.36295  1.0000
  H   H2747     1.0  0.04429  0.63876  0.29783  1.0000
  H   H2748     1.0  0.13641  0.63167  0.36453  1.0000
  H   H2749     1.0  0.99619  0.58282  0.24350  1.0000
  H   H2750     1.0  0.01413  0.72720  0.42468  1.0000
  H   H2751     1.0  0.04171  0.68902  0.41575  1.0000
  C   C1622     1.0  0.08512  0.50447  0.34582  1.0000
  C   C1623     1.0  0.04285  0.70026  0.40731  1.0000
  C   C1624     1.0  0.19316  0.69951  0.34294  1.0000
  C   C1625     1.0  0.14728  0.71730  0.37547  1.0000
  H   H2752     1.0  0.02013  0.50830  0.33166  1.0000
  C   C1626     1.0  0.08581  0.71982  0.28834  1.0000
  H   H2753     1.0  0.14145  0.67978  0.28605  1.0000
  H   H2754     1.0  0.05281  0.72766  0.39334  1.0000
  C   C1627     1.0  0.07431  0.71115  0.27195  1.0000
  H   H2755     1.0  0.08659  0.72018  0.29977  1.0000
  H   H2756     1.0  0.99754  0.63693  0.25739  1.0000
  H   H2757     1.0  0.06712  0.65058  0.29388  1.0000
  N   N117      1.0  0.03247  0.52720  0.32469  1.0000
  H   H2758     1.0  0.06089  0.68702  0.39190  1.0000
  Fe  Fe229     1.0  0.09989  0.66584  0.23648  1.0000
  H   H2759     1.0  0.15905  0.68661  0.24239  1.0000
  H   H2760     1.0  0.07555  0.64548  0.32034  1.0000
  H   H2761     1.0  0.10523  0.67138  0.28458  1.0000
  C   C1628     1.0  0.06227  0.51768  0.31318  1.0000
  H   H2762     1.0  0.00030  0.60707  0.33868  1.0000
  C   C1629     1.0  0.12680  0.63086  0.40248  1.0000
  H   H2763     1.0  0.05577  0.48504  0.36330  1.0000
  H   H2764     1.0  0.00427  0.49077  0.29196  1.0000
  H   H2765     1.0  0.25689  0.52879  0.22824  1.0000
  H   H2766     1.0  0.11049  0.68926  0.28300  1.0000
  C   C1630     1.0  0.04754  0.65994  0.31214  1.0000
  H   H2767     1.0  0.11372  0.60729  0.37600  1.0000
  C   C1631     1.0  0.13744  0.69764  0.26446  1.0000
  H   H2768     1.0  0.12617  0.70589  0.26786  1.0000
  H   H2769     1.0  0.15450  0.65374  0.26009  1.0000
  C   C1632     1.0  0.03044  0.54216  0.32972  1.0000
  H   H2770     1.0  0.11482  0.70281  0.24950  1.0000
  H   H2771     1.0  0.03893  0.61471  0.31888  1.0000
  C   C1633     1.0  0.02970  0.62505  0.31564  1.0000
  H   H2772     1.0  0.31728  0.72733  0.23840  1.0000
  C   C1634     1.0  0.05457  0.55053  0.42346  1.0000
  H   H2773     1.0  0.07869  0.53204  0.43779  1.0000
  H   H2774     1.0  0.08606  0.52964  0.38991  1.0000
  C   C1635     1.0  0.07037  0.63573  0.32825  1.0000
  H   H2775     1.0  0.18788  0.73109  0.33276  1.0000
  H   H2776     1.0  0.11875  0.63974  0.40882  1.0000
  H   H2777     1.0  0.13441  0.64771  0.37223  1.0000
  H   H2778     1.0  0.03175  0.52051  0.28906  1.0000
  H   H2779     1.0  0.08215  0.55592  0.39946  1.0000
  H   H2780     1.0  0.08772  0.67532  0.38063  1.0000
  H   H2781     1.0  0.01977  0.62611  0.32581  1.0000
  C   C1636     1.0  0.10327  0.63253  0.37260  1.0000
  C   C1637     1.0  0.34136  0.72392  0.23951  1.0000
  C   C1638     1.0  0.02818  0.72631  0.39588  1.0000
  C   C1639     1.0  0.09427  0.72644  0.26034  1.0000
  C   C1640     1.0  0.99884  0.56871  0.35162  1.0000
  H   H2782     1.0  0.10783  0.51131  0.42159  1.0000
  N   N118      1.0  0.11332  0.63873  0.37905  1.0000
  H   H2783     1.0  0.07624  0.68775  0.47162  1.0000
  C   C1641     1.0  0.01835  0.51539  0.35246  1.0000
  H   H2784     1.0  0.01777  0.51479  0.30624  1.0000
  H   H2785     1.0  0.10858  0.54264  0.38951  1.0000
  H   H2786     1.0  0.00792  0.70126  0.43941  1.0000
  H   H2787     1.0  0.09846  0.64122  0.36302  1.0000
  C   C1642     1.0  0.32898  0.72167  0.23217  1.0000
  C   C1643     1.0  0.08797  0.54720  0.40845  1.0000
  H   H2788     1.0  0.04012  0.53645  0.29990  1.0000
  C   C1644     1.0  0.02825  0.62366  0.26207  1.0000
  H   H2789     1.0  0.09363  0.72873  0.37615  1.0000
  C   C1645     1.0  0.12596  0.69572  0.24414  1.0000
  H   H2790     1.0  0.13752  0.63510  0.39572  1.0000
  H   H2791     1.0  0.08028  0.62545  0.32958  1.0000
  Fe  Fe230     1.0  0.12621  0.71898  0.32853  1.0000
  H   H2792     1.0  0.05347  0.70625  0.38214  1.0000
  C   C1646     1.0  0.01701  0.65520  0.33593  1.0000
  H   H2793     1.0  0.34101  0.71613  0.25124  1.0000
  H   H2794     1.0  0.06501  0.63835  0.33993  1.0000
  C   C1647     1.0  0.03352  0.64450  0.33544  1.0000
  N   N119      1.0  0.04393  0.64408  0.31951  1.0000
  H   H2795     1.0  0.06520  0.62854  0.31021  1.0000
  C   C1648     1.0  0.02364  0.71655  0.42415  1.0000
  C   C1649     1.0  0.02461  0.72963  0.46958  1.0000
  H   H2796     1.0  0.00291  0.65026  0.24020  1.0000
  C   C1650     1.0  0.47852  0.68118  0.23560  1.0000
  H   H2797     1.0  0.01510  0.69288  0.41559  1.0000
  H   H2798     1.0  0.00274  0.51058  0.27070  1.0000
  H   H2799     1.0  0.03838  0.50657  0.30537  1.0000
  H   H2800     1.0  0.16841  0.70216  0.34506  1.0000
  H   H2801     1.0  0.48004  0.66881  0.24199  1.0000
  H   H2802     1.0  0.11622  0.65239  0.34706  1.0000
  H   H2803     1.0  0.12696  0.61597  0.38807  1.0000
  C   C1651     1.0  0.16815  0.73094  0.32395  1.0000
  H   H2804     1.0  0.03587  0.65025  0.24452  1.0000
  H   H2805     1.0  0.05214  0.66419  0.31991  1.0000
  C   C1652     1.0  0.12554  0.65387  0.35175  1.0000
  H   H2806     1.0  0.12208  0.61879  0.35740  1.0000
  H   H2807     1.0  0.05124  0.51783  0.33717  1.0000
  H   H2808     1.0  0.03221  0.63104  0.26735  1.0000
  H   H2809     1.0  0.02670  0.57090  0.36868  1.0000
  C   C1653     1.0  0.04279  0.55200  0.32127  1.0000
  H   H2810     1.0  0.10568  0.52414  0.43430  1.0000
  H   H2811     1.0  0.05184  0.66562  0.28657  1.0000
  H   H2812     1.0  0.00768  0.52702  0.33277  1.0000
  H   H2813     1.0  0.02617  0.64982  0.30587  1.0000
  N   N120      1.0  0.02738  0.71194  0.40873  1.0000
  H   H2814     1.0  0.15774  0.68895  0.27551  1.0000
  C   C1654     1.0  0.02968  0.51735  0.30197  1.0000
  H   H2815     1.0  0.10121  0.51930  0.39961  1.0000
  C   C1655     1.0  0.00592  0.65596  0.26003  1.0000
  C   C1656     1.0  0.12644  0.67450  0.26697  1.0000
  C   C1657     1.0  0.05002  0.69618  0.39118  1.0000
  C   C1658     1.0  0.01496  0.70456  0.40759  1.0000
  C   C1659     1.0  0.01630  0.61552  0.27495  1.0000
  C   C1660     1.0  0.11008  0.68113  0.27619  1.0000
  H   H2816     1.0  0.05182  0.70425  0.41048  1.0000
  H   H2817     1.0  0.05418  0.54630  0.32469  1.0000
  C   C1661     1.0  0.05865  0.66151  0.29587  1.0000
  H   H2818     1.0  0.12332  0.66613  0.35285  1.0000
  H   H2819     1.0  0.15065  0.70442  0.37727  1.0000
  H   H2820     1.0  0.14746  0.72194  0.35129  1.0000
  H   H2821     1.0  0.02601  0.48373  0.26904  1.0000
  C   C1662     1.0  0.13396  0.70713  0.23043  1.0000
  H   H2822     1.0  0.01209  0.60743  0.27084  1.0000
  H   H2823     1.0  0.06582  0.67006  0.29448  1.0000
  H   H2824     1.0  0.03913  0.64832  0.34267  1.0000
  H   H2825     1.0  0.03065  0.53988  0.34223  1.0000
  H   H2826     1.0  0.08157  0.65979  0.37742  1.0000
  C   C1663     1.0  0.09201  0.66454  0.37603  1.0000
  H   H2827     1.0  0.08548  0.55304  0.41834  1.0000
  C   C1664     1.0  0.99797  0.71439  0.40995  1.0000
  H   H2828     1.0  0.10303  0.61487  0.36099  1.0000
  C   C1665     1.0  0.11124  0.61752  0.36644  1.0000
  H   H2829     1.0  0.05568  0.70087  0.45923  1.0000
  H   H2830     1.0  0.04202  0.55322  0.42284  1.0000
  S   S461      1.0  0.06115  0.70107  0.27021  1.0000
  H   H2831     1.0  0.03195  0.63262  0.34189  1.0000
  H   H2832     1.0  0.02523  0.62277  0.30655  1.0000
  H   H2833     1.0  0.08283  0.72895  0.39558  1.0000
  H   H2834     1.0  0.03661  0.66883  0.31051  1.0000
  N   N121      1.0  0.08123  0.53280  0.41345  1.0000
  C   C1666     1.0  0.06382  0.53802  0.41393  1.0000
  C   C1667     1.0  0.08826  0.52280  0.40153  1.0000
  C   C1668     1.0  0.08329  0.52405  0.42957  1.0000
  H   H2835     1.0  0.14955  0.67433  0.23796  1.0000
  C   C1669     1.0  0.17938  0.72402  0.36352  1.0000
  H   H2836     1.0  0.01041  0.65382  0.34824  1.0000
  C   C1670     1.0  0.17496  0.73248  0.33699  1.0000
  C   C1671     1.0  0.07654  0.49286  0.34931  1.0000
  H   H2837     1.0  0.01385  0.52590  0.35753  1.0000
  H   H2838     1.0  0.01174  0.61539  0.24563  1.0000
  S   S462      1.0  0.12629  0.66013  0.22986  1.0000
  C   C1672     1.0  0.17596  0.70488  0.35123  1.0000
  H   H2839     1.0  0.13425  0.72047  0.37817  1.0000
  C   C1673     1.0  0.00304  0.59506  0.34481  1.0000
  H   H2840     1.0  0.19223  0.72211  0.35859  1.0000
  H   H2841     1.0  0.32900  0.70906  0.23542  1.0000
  H   H2842     1.0  0.19550  0.70545  0.33049  1.0000
  H   H2843     1.0  0.08320  0.71787  0.24730  1.0000
  H   H2844     1.0  0.04574  0.48482  0.25989  1.0000
  C   C1674     1.0  0.09552  0.72689  0.27511  1.0000
  H   H2845     1.0  0.47615  0.68867  0.24407  1.0000
  H   H2846     1.0  0.17182  0.71907  0.32160  1.0000
  H   H2847     1.0  0.00862  0.66683  0.25177  1.0000
  H   H2848     1.0  0.03213  0.61211  0.23779  1.0000
  H   H2849     1.0  0.01892  0.49035  0.24303  1.0000
  H   H2850     1.0  0.99575  0.72287  0.39906  1.0000
  S   S463      1.0  0.08417  0.68879  0.22859  1.0000
  H   H2851     1.0  0.99499  0.72080  0.41936  1.0000
  S   S464      1.0  0.99366  0.53430  0.28831  1.0000
  C   C1675     1.0  0.09940  0.60676  0.70988  1.0000
  C   C1676     1.0  0.09895  0.68611  0.64022  1.0000
  S   S465      1.0  0.11794  0.67540  0.70632  1.0000
  C   C1677     1.0  0.02443  0.57500  0.71448  1.0000
  C   C1678     1.0  0.09194  0.50395  0.63611  1.0000
  H   H2852     1.0  0.00683  0.68918  0.53665  1.0000
  S   S466      1.0  0.08476  0.65251  0.72513  1.0000
  H   H2853     1.0  0.06697  0.69923  0.68071  1.0000
  H   H2854     1.0  0.07610  0.67075  0.67352  1.0000
  H   H2855     1.0  0.05278  0.71061  0.66957  1.0000
  H   H2856     1.0  0.08382  0.51197  0.65766  1.0000
  H   H2857     1.0  0.08768  0.52585  0.56864  1.0000
  C   C1679     1.0  0.10668  0.64486  0.58477  1.0000
  H   H2858     1.0  0.13222  0.63182  0.62238  1.0000
  H   H2859     1.0  0.07998  0.57563  0.58559  1.0000
  H   H2860     1.0  0.12841  0.64785  0.59846  1.0000
  H   H2861     1.0  0.01405  0.57943  0.72252  1.0000
  H   H2862     1.0  0.11068  0.67843  0.64124  1.0000
  Fe  Fe231     1.0  0.07768  0.69114  0.57553  1.0000
  S   S467      1.0  0.05376  0.68798  0.58925  1.0000
  S   S468      1.0  0.09777  0.68624  0.58738  1.0000
  Fe  Fe232     1.0  0.06904  0.69688  0.54436  1.0000
  S   S469      1.0  0.04445  0.69414  0.55555  1.0000
  Fe  Fe233     1.0  0.04513  0.70860  0.57136  1.0000
  H   H2863     1.0  0.00927  0.50041  0.71047  1.0000
  Fe  Fe234     1.0  0.05523  0.67387  0.57222  1.0000
  S   S470      1.0  0.04519  0.65243  0.58016  1.0000
  S   S471      1.0  0.06900  0.71304  0.55894  1.0000
  S   S472      1.0  0.07994  0.67520  0.55974  1.0000
  Fe  Fe235     1.0  0.09917  0.58793  0.65289  1.0000
  S   S473      1.0  0.07924  0.59925  0.64081  1.0000
  S   S474      1.0  0.10881  0.60567  0.65833  1.0000
  Fe  Fe236     1.0  0.09735  0.55531  0.65162  1.0000
  S   S475      1.0  0.07731  0.56445  0.63942  1.0000
  H   H2864     1.0  0.02968  0.54983  0.68134  1.0000
  Fe  Fe237     1.0  0.09085  0.58263  0.62509  1.0000
  S   S476      1.0  0.09508  0.59121  0.59907  1.0000
  Fe  Fe238     1.0  0.06784  0.58006  0.65642  1.0000
  S   S477      1.0  0.04243  0.58560  0.66836  1.0000
  S   S478      1.0  0.11177  0.57232  0.63599  1.0000
  S   S479      1.0  0.08694  0.56984  0.66976  1.0000
  C   C1680     1.0  0.05898  0.63526  0.58516  1.0000
  C   C1681     1.0  0.05518  0.62466  0.59919  1.0000
  C   C1682     1.0  0.06616  0.61096  0.60343  1.0000
  C   C1683     1.0  0.08077  0.60761  0.59341  1.0000
  C   C1684     1.0  0.08435  0.61791  0.57911  1.0000
  C   C1685     1.0  0.07358  0.63188  0.57511  1.0000
  H   H2865     1.0  0.04384  0.62721  0.60692  1.0000
  H   H2866     1.0  0.06327  0.60299  0.61443  1.0000
  H   H2867     1.0  0.09565  0.61532  0.57133  1.0000
  H   H2868     1.0  0.07649  0.63996  0.56419  1.0000
  C   C1686     1.0  0.11700  0.64603  0.60630  1.0000
  H   H2869     1.0  0.01883  0.62947  0.68243  1.0000
  H   H2870     1.0  0.04281  0.64243  0.71147  1.0000
  H   H2871     1.0  0.07391  0.70727  0.48663  1.0000
  H   H2872     1.0  0.01247  0.54372  0.68206  1.0000
  C   C1687     1.0  0.12101  0.70943  0.60155  1.0000
  H   H2873     1.0  0.05618  0.48505  0.67889  1.0000
  C   C1688     1.0  0.99651  0.54513  0.72243  1.0000
  H   H2874     1.0  0.01673  0.51283  0.69227  1.0000
  C   C1689     1.0  0.03650  0.56327  0.71997  1.0000
  H   H2875     1.0  0.02070  0.50872  0.72394  1.0000
  H   H2876     1.0  0.05878  0.54788  0.71357  1.0000
  C   C1690     1.0  0.02594  0.58135  0.69850  1.0000
  C   C1691     1.0  0.03948  0.57593  0.68799  1.0000
  C   C1692     1.0  0.05095  0.56339  0.69341  1.0000
  H   H2877     1.0  0.04161  0.72189  0.52519  1.0000
  C   C1693     1.0  0.07438  0.69984  0.65538  1.0000
  H   H2878     1.0  0.01685  0.59081  0.69433  1.0000
  H   H2879     1.0  0.06088  0.55842  0.68530  1.0000
  H   H2880     1.0  0.04351  0.65629  0.49564  1.0000
  H   H2881     1.0  0.09447  0.71358  0.66089  1.0000
  H   H2882     1.0  0.11153  0.63420  0.63139  1.0000
  H   H2883     1.0  0.12553  0.52566  0.62775  1.0000
  H   H2884     1.0  0.10976  0.65805  0.60561  1.0000
  H   H2885     1.0  0.07779  0.62852  0.64991  1.0000
  C   C1694     1.0  0.11266  0.55120  0.59494  1.0000
  H   H2886     1.0  0.09060  0.62490  0.60669  1.0000
  C   C1695     1.0  0.11707  0.70425  0.64810  1.0000
  H   H2887     1.0  0.09558  0.65852  0.66957  1.0000
  C   C1696     1.0  0.09017  0.71319  0.59881  1.0000
  C   C1697     1.0  0.10180  0.70060  0.59417  1.0000
  C   C1698     1.0  0.11713  0.69870  0.59575  1.0000
  H   H2888     1.0  0.08507  0.68760  0.71828  1.0000
  H   H2889     1.0  0.02961  0.52549  0.70051  1.0000
  H   H2890     1.0  0.07826  0.71465  0.59772  1.0000
  H   H2891     1.0  0.12614  0.68897  0.59226  1.0000
  H   H2892     1.0  0.06547  0.59966  0.70965  1.0000
  C   C1699     1.0  0.10547  0.69363  0.70139  1.0000
  C   C1700     1.0  0.11128  0.70523  0.68934  1.0000
  C   C1701     1.0  0.10121  0.71952  0.68465  1.0000
  H   H2893     1.0  0.06167  0.63675  0.71617  1.0000
  C   C1702     1.0  0.07959  0.71074  0.70423  1.0000
  C   C1703     1.0  0.08964  0.69646  0.70893  1.0000
  H   H2894     1.0  0.12356  0.70313  0.68360  1.0000
  S   S480      1.0  0.02313  0.72662  0.57698  1.0000
  H   H2895     1.0  0.06731  0.71282  0.70998  1.0000
  C   C1704     1.0  0.10950  0.72194  0.60630  1.0000
  H   H2896     1.0  0.02360  0.64551  0.66657  1.0000
  C   C1705     1.0  0.09863  0.59353  0.70551  1.0000
  C   C1706     1.0  0.10165  0.59307  0.68975  1.0000
  C   C1707     1.0  0.10575  0.60577  0.67819  1.0000
  C   C1708     1.0  0.10695  0.61890  0.68252  1.0000
  H   H2897     1.0  0.09659  0.67077  0.62716  1.0000
  C   C1709     1.0  0.08529  0.72221  0.69194  1.0000
  H   H2898     1.0  0.10105  0.58276  0.68658  1.0000
  H   H2899     1.0  0.11028  0.62870  0.67363  1.0000
  C   C1710     1.0  0.07674  0.69499  0.49189  1.0000
  C   C1711     1.0  0.12053  0.63989  0.62271  1.0000
  C   C1712     1.0  0.07808  0.68393  0.48333  1.0000
  H   H2900     1.0  0.07139  0.64338  0.62231  1.0000
  C   C1713     1.0  0.08224  0.67428  0.51400  1.0000
  C   C1714     1.0  0.02859  0.63451  0.67414  1.0000
  H   H2901     1.0  0.11921  0.61627  0.58942  1.0000
  H   H2902     1.0  0.07884  0.68414  0.63247  1.0000
  H   H2903     1.0  0.10450  0.62965  0.70161  1.0000
  C   C1715     1.0  0.06553  0.70733  0.66944  1.0000
  H   H2904     1.0  0.10057  0.63840  0.58055  1.0000
  C   C1716     1.0  0.09484  0.63283  0.61104  1.0000
  C   C1717     1.0  0.06879  0.63352  0.65926  1.0000
  H   H2905     1.0  0.11104  0.60312  0.61621  1.0000
  H   H2906     1.0  0.09318  0.68893  0.67835  1.0000
  H   H2907     1.0  0.09653  0.56645  0.57309  1.0000
  H   H2908     1.0  0.10260  0.48367  0.67345  1.0000
  H   H2909     1.0  0.00379  0.55286  0.72301  1.0000
  H   H2910     1.0  0.12409  0.61031  0.62278  1.0000
  H   H2911     1.0  0.06898  0.71824  0.66867  1.0000
  H   H2912     1.0  0.03984  0.72790  0.54261  1.0000
  N   N122      1.0  0.11011  0.63609  0.60048  1.0000
  H   H2913     1.0  0.09630  0.62642  0.62289  1.0000
  C   C1718     1.0  0.12205  0.60739  0.61270  1.0000
  H   H2914     1.0  0.13170  0.59747  0.60965  1.0000
  C   C1719     1.0  0.06757  0.53611  0.61613  1.0000
  C   C1720     1.0  0.12169  0.62097  0.59831  1.0000
  C   C1721     1.0  0.00611  0.51080  0.70136  1.0000
  N   N123      1.0  0.03433  0.66710  0.52485  1.0000
  C   C1722     1.0  0.04714  0.65241  0.52546  1.0000
  C   C1723     1.0  0.02501  0.66693  0.51360  1.0000
  C   C1724     1.0  0.02413  0.66673  0.54103  1.0000
  C   C1725     1.0  0.04206  0.68082  0.51948  1.0000
  C   C1726     1.0  0.05606  0.64836  0.53871  1.0000
  H   H2915     1.0  0.08253  0.49797  0.63844  1.0000
  C   C1727     1.0  0.00730  0.67681  0.54246  1.0000
  C   C1728     1.0  0.03149  0.69724  0.51647  1.0000
  H   H2916     1.0  0.04232  0.64207  0.52671  1.0000
  H   H2917     1.0  0.05617  0.65296  0.51439  1.0000
  H   H2918     1.0  0.01485  0.67696  0.51299  1.0000
  H   H2919     1.0  0.01975  0.65646  0.51775  1.0000
  H   H2920     1.0  0.02264  0.65463  0.54685  1.0000
  H   H2921     1.0  0.02991  0.67008  0.54851  1.0000
  H   H2922     1.0  0.04856  0.68091  0.52807  1.0000
  H   H2923     1.0  0.05138  0.67980  0.50881  1.0000
  H   H2924     1.0  0.06050  0.65819  0.53938  1.0000
  H   H2925     1.0  0.04866  0.64418  0.55017  1.0000
  H   H2926     1.0  0.06640  0.63868  0.53666  1.0000
  H   H2927     1.0  0.05888  0.64100  0.65396  1.0000
  H   H2928     1.0  0.14008  0.48812  0.67252  1.0000
  H   H2929     1.0  0.08011  0.55915  0.56034  1.0000
  H   H2930     1.0  0.07316  0.62188  0.69602  1.0000
  C   C1729     1.0  0.06361  0.62008  0.67245  1.0000
  C   C1730     1.0  0.08120  0.64713  0.61293  1.0000
  H   H2931     1.0  0.02705  0.70182  0.52727  1.0000
  H   H2932     1.0  0.02159  0.69805  0.51129  1.0000
  H   H2933     1.0  0.03856  0.70513  0.50768  1.0000
  N   N124      1.0  0.08515  0.55043  0.59227  1.0000
  C   C1731     1.0  0.09532  0.55075  0.60266  1.0000
  C   C1732     1.0  0.12094  0.64843  0.57166  1.0000
  H   H2934     1.0  0.13387  0.62287  0.59377  1.0000
  H   H2935     1.0  0.12994  0.63779  0.56956  1.0000
  H   H2936     1.0  0.11682  0.65403  0.56065  1.0000
  H   H2937     1.0  0.12626  0.65693  0.57387  1.0000
  C   C1733     1.0  0.06182  0.63026  0.69504  1.0000
  C   C1734     1.0  0.09231  0.53639  0.58505  1.0000
  C   C1735     1.0  0.09899  0.70760  0.65104  1.0000
  H   H2938     1.0  0.99984  0.67205  0.53800  1.0000
  C   C1736     1.0  0.08123  0.52993  0.57951  1.0000
  C   C1737     1.0  0.08459  0.56538  0.58002  1.0000
  H   H2939     1.0  0.05504  0.53553  0.62075  1.0000
  H   H2940     1.0  0.07186  0.53733  0.62587  1.0000
  C   C1738     1.0  0.02106  0.53598  0.70392  1.0000
  H   H2941     1.0  0.09571  0.58358  0.71435  1.0000
  S   S481      1.0  0.10601  0.52921  0.65772  1.0000
  H   H2942     1.0  0.09567  0.54035  0.61236  1.0000
  C   C1739     1.0  0.10335  0.50386  0.62225  1.0000
  C   C1740     1.0  0.08137  0.66801  0.49007  1.0000
  H   H2943     1.0  0.08388  0.67051  0.52582  1.0000
  C   C1741     1.0  0.09400  0.72379  0.60507  1.0000
  C   C1742     1.0  0.11609  0.51972  0.63006  1.0000
  H   H2944     1.0  0.12160  0.69663  0.65833  1.0000
  H   H2945     1.0  0.06511  0.64139  0.68811  1.0000
  H   H2946     1.0  0.12058  0.64988  0.62733  1.0000
  H   H2947     1.0  0.09557  0.71645  0.64076  1.0000
  C   C1743     1.0  0.05356  0.63303  0.71151  1.0000
  H   H2948     1.0  0.10113  0.69507  0.62930  1.0000
  H   H2949     1.0  0.05854  0.61321  0.66756  1.0000
  S   S482      1.0  0.07506  0.70440  0.51821  1.0000
  H   H2950     1.0  0.10576  0.72841  0.67535  1.0000
  C   C1744     1.0  0.09262  0.51195  0.64692  1.0000
  H   H2951     1.0  0.07453  0.61190  0.67530  1.0000
  C   C1745     1.0  0.03910  0.63788  0.68299  1.0000
  C   C1746     1.0  0.08374  0.66320  0.50534  1.0000
  H   H2952     1.0  0.12427  0.51169  0.60857  1.0000
  H   H2953     1.0  0.07394  0.52489  0.61282  1.0000
  C   C1747     1.0  0.10464  0.51993  0.64386  1.0000
  H   H2954     1.0  0.08460  0.65632  0.61617  1.0000
  C   C1748     1.0  0.08826  0.66837  0.67498  1.0000
  C   C1749     1.0  0.01817  0.54789  0.68888  1.0000
  H   H2955     1.0  0.11872  0.54141  0.58902  1.0000
  H   H2956     1.0  0.04009  0.60678  0.69062  1.0000
  C   C1750     1.0  0.07852  0.69021  0.50733  1.0000
  H   H2957     1.0  0.12284  0.69931  0.63762  1.0000
  H   H2958     1.0  0.09854  0.65630  0.58550  1.0000
  C   C1751     1.0  0.04623  0.61099  0.69707  1.0000
  H   H2959     1.0  0.03704  0.61426  0.70724  1.0000
  H   H2960     1.0  0.11893  0.55006  0.60417  1.0000
  H   H2961     1.0  0.04298  0.64888  0.67653  1.0000
  H   H2962     1.0  0.10861  0.67786  0.66719  1.0000
  C   C1752     1.0  0.11539  0.51177  0.61925  1.0000
  H   H2963     1.0  0.06830  0.69064  0.65616  1.0000
  H   H2964     1.0  0.07437  0.64065  0.66319  1.0000
  H   H2965     1.0  0.06036  0.55070  0.59550  1.0000
  H   H2966     1.0  0.06417  0.56091  0.60719  1.0000
  N   N125      1.0  0.09184  0.69371  0.65404  1.0000
  H   H2967     1.0  0.03107  0.64101  0.69381  1.0000
  S   S483      1.0  0.10272  0.49427  0.60830  1.0000
  H   H2968     1.0  0.07044  0.53830  0.57689  1.0000
  C   C1753     1.0  0.09575  0.68270  0.66877  1.0000
  H   H2969     1.0  0.07498  0.57942  0.56015  1.0000
  H   H2970     1.0  0.06640  0.59133  0.69353  1.0000
  H   H2971     1.0  0.03496  0.62646  0.66626  1.0000
  C   C1754     1.0  0.06889  0.55022  0.60229  1.0000
  H   H2972     1.0  0.02743  0.54110  0.70927  1.0000
  C   C1755     1.0  0.07484  0.56770  0.56791  1.0000
  C   C1756     1.0  0.05848  0.59679  0.70311  1.0000
  H   H2973     1.0  0.09767  0.52650  0.59355  1.0000
  S   S484      1.0  0.08139  0.65412  0.48000  1.0000
  H   H2974     1.0  0.12068  0.71545  0.64592  1.0000
  C   C1757     1.0  0.10372  0.61944  0.69834  1.0000
  H   H2975     1.0  0.11395  0.56248  0.58681  1.0000
  C   C1758     1.0  0.03424  0.66703  0.49665  1.0000
  H   H2976     1.0  0.09026  0.56087  0.60829  1.0000
  H   H2977     1.0  0.08736  0.66467  0.68778  1.0000
  H   H2978     1.0  0.07641  0.65207  0.60225  1.0000
  H   H2979     1.0  0.01137  0.55936  0.69131  1.0000
  H   H2980     1.0  0.06236  0.56748  0.57323  1.0000
  C   C1759     1.0  0.99735  0.52522  0.70831  1.0000
  H   H2981     1.0  0.07816  0.51935  0.58804  1.0000
  C   C1760     1.0  0.04960  0.55722  0.70941  1.0000
  H   H2982     1.0  0.08580  0.66728  0.64685  1.0000
  H   H2983     1.0  0.13298  0.70792  0.60250  1.0000
  H   H2984     1.0  0.07206  0.70865  0.64463  1.0000
  H   H2985     1.0  0.10219  0.53880  0.57500  1.0000
  N   N126      1.0  0.05267  0.62480  0.68690  1.0000
  H   H2986     1.0  0.08650  0.65090  0.51055  1.0000
  C   C1761     1.0  0.08931  0.67650  0.63678  1.0000
  H   H2987     1.0  0.99823  0.50789  0.69576  1.0000
  N   N127      1.0  0.00674  0.53150  0.71546  1.0000
  H   H2988     1.0  0.03951  0.67738  0.49142  1.0000
  H   H2989     1.0  0.00192  0.67651  0.55499  1.0000
  C   C1762     1.0  0.03653  0.73175  0.53114  1.0000
  H   H2990     1.0  0.05079  0.62227  0.71974  1.0000
  H   H2991     1.0  0.05227  0.58788  0.71127  1.0000
  H   H2992     1.0  0.07533  0.56938  0.72318  1.0000
  H   H2993     1.0  0.03331  0.70614  0.48119  1.0000
  H   H2994     1.0  0.12442  0.48794  0.65501  1.0000
  H   H2995     1.0  0.02606  0.66753  0.48940  1.0000
  H   H2996     1.0  0.03923  0.73226  0.49903  1.0000
  H   H2997     1.0  0.05822  0.73233  0.50063  1.0000
  S   S485      1.0  0.00745  0.73272  0.48396  1.0000
  Fe  Fe239     1.0  0.10606  0.65929  0.72664  1.0000
  S   S486      1.0  0.03428  0.60430  0.86643  1.0000
  Fe  Fe240     1.0  0.02718  0.64610  0.84126  1.0000
  S   S487      1.0  0.05105  0.63059  0.83988  1.0000
  S   S488      1.0  0.02375  0.67022  0.82630  1.0000
  Fe  Fe241     1.0  0.03948  0.61176  0.84050  1.0000
  S   S489      1.0  0.04912  0.59348  0.82617  1.0000
  Fe  Fe242     1.0  0.04430  0.62435  0.86604  1.0000
  S   S490      1.0  0.06557  0.62200  0.87572  1.0000
  S   S491      1.0  0.01619  0.62796  0.83917  1.0000
  S   S492      1.0  0.02093  0.64150  0.86736  1.0000
  Fe  Fe243     1.0  0.12068  0.62005  0.94795  1.0000
  S   S493      1.0  0.14113  0.60176  0.93958  1.0000
  Fe  Fe244     1.0  0.08571  0.62966  0.94951  1.0000
  S   S494      1.0  0.06454  0.62533  0.94429  1.0000
  S   S495      1.0  0.10634  0.63605  0.93110  1.0000
  S   S496      1.0  0.10021  0.61211  0.96544  1.0000
  Fe  Fe245     1.0  0.14552  0.68278  0.84667  1.0000
  S   S497      1.0  0.12236  0.69466  0.85942  1.0000
  Fe  Fe246     1.0  0.17321  0.65589  0.84466  1.0000
  S   S498      1.0  0.18465  0.66694  0.82065  1.0000
  S   S499      1.0  0.18325  0.63175  0.85702  1.0000
  Fe  Fe247     1.0  0.16060  0.67311  0.81572  1.0000
  S   S500      1.0  0.15823  0.67214  0.79204  1.0000
  S   S501      1.0  0.16822  0.67722  0.85442  1.0000
  S   S502      1.0  0.14954  0.66041  0.83908  1.0000
  Fe  Fe248     1.0  0.07533  0.65636  0.74942  1.0000
  S   S503      1.0  0.08479  0.63179  0.76081  1.0000
  S   S504      1.0  0.05039  0.66972  0.75517  1.0000
  Fe  Fe249     1.0  0.10632  0.64020  0.75948  1.0000
  S   S505      1.0  0.11708  0.63199  0.78086  1.0000
  S   S506      1.0  0.09576  0.66525  0.75010  1.0000
  Fe  Fe250     1.0  0.28053  0.55828  0.85498  1.0000
  S   S507      1.0  0.29145  0.56661  0.86943  1.0000
  S   S508      1.0  0.28443  0.53197  0.85937  1.0000
  Fe  Fe251     1.0  0.26743  0.59116  0.83941  1.0000
  S   S509      1.0  0.27718  0.60233  0.85247  1.0000
  S   S510      1.0  0.25271  0.60721  0.82289  1.0000
  Fe  Fe252     1.0  0.29894  0.58392  0.84788  1.0000
  S   S511      1.0  0.32315  0.58748  0.84547  1.0000
  Fe  Fe253     1.0  0.26903  0.58441  0.87306  1.0000
  S   S512      1.0  0.25674  0.59225  0.89548  1.0000
  S   S513      1.0  0.29006  0.57410  0.83280  1.0000
  S   S514      1.0  0.25723  0.57469  0.86053  1.0000
  H   H2998     1.0  0.19455  0.48495  0.93799  1.0000
  H   H2999     1.0  0.48807  0.65523  0.83418  1.0000
  S   S515      1.0  0.34209  0.71997  0.84276  1.0000
  H   H3000     1.0  0.17096  0.60992  0.97280  1.0000
  H   H3001     1.0  0.26640  0.72572  0.92347  1.0000
  H   H3002     1.0  0.08960  0.57801  0.78009  1.0000
  Fe  Fe254     1.0  0.45557  0.69595  0.86900  1.0000
  S   S516      1.0  0.46424  0.67276  0.88375  1.0000
  S   S517      1.0  0.43405  0.70335  0.85862  1.0000
  S   S518      1.0  0.46009  0.68305  0.92450  1.0000
  S   S519      1.0  0.45752  0.70940  0.88512  1.0000
  Fe  Fe255     1.0  0.37141  0.66396  0.85617  1.0000
  S   S520      1.0  0.35337  0.64907  0.86388  1.0000
  S   S521      1.0  0.39627  0.65414  0.85976  1.0000
  Fe  Fe256     1.0  0.34754  0.69386  0.84830  1.0000
  S   S522      1.0  0.32769  0.68176  0.85523  1.0000
  C   C1763     1.0  0.11865  0.68987  0.87981  1.0000
  Fe  Fe257     1.0  0.33808  0.66824  0.87557  1.0000
  S   S523      1.0  0.32192  0.66627  0.89909  1.0000
  Fe  Fe258     1.0  0.34440  0.66380  0.84270  1.0000
  S   S524      1.0  0.33248  0.65676  0.82797  1.0000
  S   S525      1.0  0.35669  0.68179  0.86977  1.0000
  S   S526      1.0  0.36373  0.67720  0.83383  1.0000
  H   H3003     1.0  0.41299  0.66732  0.95928  1.0000
  H   H3004     1.0  0.04782  0.58900  0.77907  1.0000
  C   C1764     1.0  0.09207  0.68747  0.80022  1.0000
  H   H3005     1.0  0.15942  0.55355  0.92566  1.0000
  H   H3006     1.0  0.41722  0.70700  0.96619  1.0000
  C   C1765     1.0  0.14875  0.70570  0.88297  1.0000
  S   S527      1.0  0.47918  0.69819  0.85362  1.0000
  S   S528      1.0  0.00777  0.56654  0.77867  1.0000
  Fe  Fe259     1.0  0.17785  0.68871  0.82987  1.0000
  H   H3007     1.0  0.14749  0.69982  0.87448  1.0000
  H   H3008     1.0  0.14807  0.57326  0.92566  1.0000
  H   H3009     1.0  0.31057  0.51122  0.82704  1.0000
  H   H3010     1.0  0.06877  0.55501  0.73918  1.0000
  Fe  Fe260     1.0  0.20522  0.53178  0.96015  1.0000
  H   H3011     1.0  0.05106  0.58066  0.74115  1.0000
  S   S529      1.0  0.19461  0.52670  0.94312  1.0000
  H   H3012     1.0  0.27367  0.52468  0.91134  1.0000
  C   C1766     1.0  0.05601  0.56122  0.76877  1.0000
  H   H3013     1.0  0.99561  0.60442  0.84109  1.0000
  S   S530      1.0  0.26157  0.53428  0.95046  1.0000
  C   C1767     1.0  0.15934  0.71753  0.87556  1.0000
  S   S531      1.0  0.21698  0.55190  0.95126  1.0000
  H   H3014     1.0  0.19430  0.63484  0.81735  1.0000
  H   H3015     1.0  0.21611  0.56913  0.90589  1.0000
  H   H3016     1.0  0.08565  0.56227  0.73869  1.0000
  H   H3017     1.0  0.11893  0.58020  0.93131  1.0000
  C   C1768     1.0  0.05358  0.55634  0.78657  1.0000
  C   C1769     1.0  0.20123  0.71239  0.83393  1.0000
  H   H3018     1.0  0.11963  0.52864  0.93051  1.0000
  H   H3019     1.0  0.36580  0.71407  0.86183  1.0000
  H   H3020     1.0  0.28542  0.71402  0.92511  1.0000
  H   H3021     1.0  0.39417  0.67034  0.95418  1.0000
  C   C1770     1.0  0.17680  0.52088  0.95198  1.0000
  C   C1771     1.0  0.29928  0.72709  0.87509  1.0000
  C   C1772     1.0  0.24766  0.51057  0.92795  1.0000
  C   C1773     1.0  0.14974  0.50926  0.96717  1.0000
  C   C1774     1.0  0.15795  0.50634  0.95255  1.0000
  C   C1775     1.0  0.17137  0.51233  0.94486  1.0000
  C   C1776     1.0  0.30791  0.50899  0.81685  1.0000
  H   H3022     1.0  0.21732  0.54325  0.90670  1.0000
  H   H3023     1.0  0.15386  0.49962  0.94707  1.0000
  H   H3024     1.0  0.17769  0.51009  0.93354  1.0000
  H   H3025     1.0  0.22098  0.51398  0.91390  1.0000
  H   H3026     1.0  0.04713  0.60928  0.74664  1.0000
  C   C1777     1.0  0.06281  0.57872  0.74378  1.0000
  H   H3027     1.0  0.28261  0.53269  0.89207  1.0000
  C   C1778     1.0  0.27915  0.72497  0.91852  1.0000
  H   H3028     1.0  0.28442  0.68992  0.84805  1.0000
  H   H3029     1.0  0.37477  0.72329  0.83600  1.0000
  H   H3030     1.0  0.28006  0.50042  0.83475  1.0000
  H   H3031     1.0  0.11304  0.67962  0.78286  1.0000
  C   C1779     1.0  0.22630  0.51513  0.90131  1.0000
  H   H3032     1.0  0.08551  0.64122  0.79451  1.0000
  C   C1780     1.0  0.20007  0.70537  0.84974  1.0000
  C   C1781     1.0  0.12629  0.67578  0.88802  1.0000
  S   S532      1.0  0.12096  0.63847  0.95972  1.0000
  H   H3033     1.0  0.48027  0.63072  0.87496  1.0000
  H   H3034     1.0  0.22835  0.50366  0.89830  1.0000
  S   S533      1.0  0.15468  0.69600  0.82281  1.0000
  H   H3035     1.0  0.33179  0.70718  0.82281  1.0000
  C   C1782     1.0  0.42376  0.68946  0.85906  1.0000
  C   C1783     1.0  0.41246  0.69364  0.85001  1.0000
  C   C1784     1.0  0.40365  0.68302  0.85050  1.0000
  C   C1785     1.0  0.40651  0.66795  0.85964  1.0000
  C   C1786     1.0  0.41808  0.66363  0.86841  1.0000
  C   C1787     1.0  0.42652  0.67444  0.86830  1.0000
  H   H3036     1.0  0.41051  0.70513  0.84257  1.0000
  H   H3037     1.0  0.39490  0.68637  0.84353  1.0000
  H   H3038     1.0  0.42032  0.65196  0.87547  1.0000
  H   H3039     1.0  0.43518  0.67117  0.87531  1.0000
  C   C1788     1.0  0.35105  0.67212  0.92945  1.0000
  C   C1789     1.0  0.33494  0.67875  0.93190  1.0000
  C   C1790     1.0  0.32575  0.67627  0.92312  1.0000
  C   C1791     1.0  0.33281  0.66774  0.91148  1.0000
  C   C1792     1.0  0.34893  0.66128  0.90895  1.0000
  C   C1793     1.0  0.35797  0.66322  0.91813  1.0000
  H   H3040     1.0  0.32954  0.68549  0.94077  1.0000
  H   H3041     1.0  0.31329  0.68126  0.92510  1.0000
  H   H3042     1.0  0.35444  0.65470  0.89996  1.0000
  H   H3043     1.0  0.26045  0.48752  0.86968  1.0000
  C   C1794     1.0  0.46037  0.70232  0.94264  1.0000
  C   C1795     1.0  0.46902  0.69390  0.93120  1.0000
  S   S534      1.0  0.00116  0.61081  0.78278  1.0000
  H   H3044     1.0  0.44832  0.70154  0.94782  1.0000
  C   C1796     1.0  0.25921  0.53088  0.84876  1.0000
  S   S535      1.0  0.22563  0.51505  0.96914  1.0000
  H   H3045     1.0  0.11445  0.69455  0.79108  1.0000
  C   C1797     1.0  0.17910  0.63058  0.78202  1.0000
  H   H3046     1.0  0.16907  0.63071  0.79218  1.0000
  H   H3047     1.0  0.04478  0.56170  0.76575  1.0000
  C   C1798     1.0  0.18882  0.63118  0.80991  1.0000
  C   C1799     1.0  0.48291  0.71278  0.94038  1.0000
  H   H3048     1.0  0.09126  0.57697  0.95979  1.0000
  C   C1800     1.0  0.26025  0.57759  0.91187  1.0000
  C   C1801     1.0  0.24952  0.57800  0.92609  1.0000
  C   C1802     1.0  0.25065  0.56505  0.93852  1.0000
  C   C1803     1.0  0.26255  0.55175  0.93672  1.0000
  C   C1804     1.0  0.27418  0.55197  0.92308  1.0000
  C   C1805     1.0  0.27301  0.56492  0.91066  1.0000
  H   H3049     1.0  0.24004  0.58807  0.92734  1.0000
  H   H3050     1.0  0.24216  0.56525  0.94941  1.0000
  H   H3051     1.0  0.28366  0.54188  0.92182  1.0000
  H   H3052     1.0  0.28181  0.56486  0.90008  1.0000
  C   C1806     1.0  0.32571  0.60675  0.84029  1.0000
  C   C1807     1.0  0.31547  0.61887  0.83255  1.0000
  C   C1808     1.0  0.31777  0.63417  0.82864  1.0000
  C   C1809     1.0  0.33005  0.63746  0.83281  1.0000
  C   C1810     1.0  0.34016  0.62538  0.84073  1.0000
  C   C1811     1.0  0.33814  0.61002  0.84423  1.0000
  H   H3053     1.0  0.30596  0.61640  0.82933  1.0000
  H   H3054     1.0  0.31000  0.64348  0.82240  1.0000
  H   H3055     1.0  0.34978  0.62780  0.84378  1.0000
  H   H3056     1.0  0.34617  0.60065  0.85009  1.0000
  C   C1812     1.0  0.27021  0.52306  0.85794  1.0000
  C   C1813     1.0  0.24972  0.50708  0.85391  1.0000
  C   C1814     1.0  0.26007  0.49957  0.86385  1.0000
  C   C1815     1.0  0.27041  0.50749  0.86570  1.0000
  H   H3057     1.0  0.05715  0.67659  0.80756  1.0000
  H   H3058     1.0  0.27875  0.50147  0.87300  1.0000
  C   C1816     1.0  0.14637  0.66119  0.78932  1.0000
  C   C1817     1.0  0.14398  0.66310  0.77434  1.0000
  C   C1818     1.0  0.13489  0.65434  0.77161  1.0000
  C   C1819     1.0  0.12848  0.64329  0.78380  1.0000
  C   C1820     1.0  0.13108  0.64119  0.79874  1.0000
  C   C1821     1.0  0.13977  0.65027  0.80157  1.0000
  H   H3059     1.0  0.44123  0.62163  0.84773  1.0000
  H   H3060     1.0  0.12637  0.63249  0.80812  1.0000
  H   H3061     1.0  0.14170  0.64858  0.81311  1.0000
  C   C1822     1.0  0.20297  0.62507  0.84845  1.0000
  C   C1823     1.0  0.21215  0.63558  0.83903  1.0000
  C   C1824     1.0  0.22757  0.63007  0.83139  1.0000
  C   C1825     1.0  0.23396  0.61404  0.83349  1.0000
  C   C1826     1.0  0.22497  0.60352  0.84333  1.0000
  C   C1827     1.0  0.20945  0.60903  0.85073  1.0000
  H   H3062     1.0  0.20744  0.64797  0.83765  1.0000
  H   H3063     1.0  0.23457  0.63822  0.82388  1.0000
  H   H3064     1.0  0.22981  0.59112  0.84479  1.0000
  H   H3065     1.0  0.20239  0.60084  0.85791  1.0000
  H   H3066     1.0  0.00480  0.68036  0.76314  1.0000
  H   H3067     1.0  0.24599  0.53502  0.92584  1.0000
  H   H3068     1.0  0.24433  0.52465  0.88370  1.0000
  H   H3069     1.0  0.38547  0.70998  0.86363  1.0000
  Fe  Fe261     1.0  0.23638  0.53586  0.96230  1.0000
  H   H3070     1.0  0.12797  0.66116  0.91081  1.0000
  H   H3071     1.0  0.26087  0.67022  0.82011  1.0000
  C   C1828     1.0  0.11521  0.55091  0.96459  1.0000
  H   H3072     1.0  0.07267  0.67810  0.83243  1.0000
  H   H3073     1.0  0.13747  0.53214  0.93195  1.0000
  C   C1829     1.0  0.10737  0.70038  0.88793  1.0000
  H   H3074     1.0  0.10138  0.71122  0.88164  1.0000
  H   H3075     1.0  0.09510  0.70520  0.91039  1.0000
  C   C1830     1.0  0.03057  0.66979  0.80656  1.0000
  C   C1831     1.0  0.02948  0.68377  0.79540  1.0000
  C   C1832     1.0  0.03538  0.68360  0.77959  1.0000
  C   C1833     1.0  0.04275  0.66951  0.77495  1.0000
  C   C1834     1.0  0.04378  0.65550  0.78611  1.0000
  C   C1835     1.0  0.03766  0.65567  0.80193  1.0000
  H   H3076     1.0  0.02406  0.69472  0.79897  1.0000
  H   H3077     1.0  0.03450  0.69444  0.77095  1.0000
  H   H3078     1.0  0.04935  0.64457  0.78254  1.0000
  H   H3079     1.0  0.03863  0.64492  0.81059  1.0000
  C   C1836     1.0  0.06494  0.62165  0.89524  1.0000
  C   C1837     1.0  0.07912  0.61956  0.89969  1.0000
  C   C1838     1.0  0.07916  0.62031  0.91480  1.0000
  C   C1839     1.0  0.06499  0.62319  0.92559  1.0000
  C   C1840     1.0  0.05083  0.62480  0.92129  1.0000
  C   C1841     1.0  0.05078  0.62410  0.90613  1.0000
  H   H3080     1.0  0.09012  0.61753  0.89135  1.0000
  H   H3081     1.0  0.09013  0.61880  0.91807  1.0000
  H   H3082     1.0  0.03982  0.62689  0.92963  1.0000
  H   H3083     1.0  0.03980  0.62566  0.90284  1.0000
  C   C1842     1.0  0.03689  0.59763  0.81316  1.0000
  C   C1843     1.0  0.03054  0.58601  0.81154  1.0000
  C   C1844     1.0  0.01989  0.58979  0.80179  1.0000
  C   C1845     1.0  0.01557  0.60520  0.79379  1.0000
  C   C1846     1.0  0.02237  0.61662  0.79508  1.0000
  C   C1847     1.0  0.03293  0.61285  0.80479  1.0000
  H   H3084     1.0  0.03355  0.57421  0.81813  1.0000
  H   H3085     1.0  0.01492  0.58084  0.80067  1.0000
  H   H3086     1.0  0.22809  0.52999  0.92778  1.0000
  H   H3087     1.0  0.03804  0.62174  0.80583  1.0000
  C   C1848     1.0  0.46720  0.71203  0.94703  1.0000
  C   C1849     1.0  0.22721  0.60529  0.79163  1.0000
  H   H3088     1.0  0.15013  0.61805  0.95772  1.0000
  C   C1850     1.0  0.20852  0.63881  0.78666  1.0000
  H   H3089     1.0  0.25897  0.54291  0.84277  1.0000
  H   H3090     1.0  0.27078  0.71531  0.81317  1.0000
  Fe  Fe262     1.0  0.10464  0.65383  0.94442  1.0000
  C   C1851     1.0  0.48343  0.64582  0.83268  1.0000
  C   C1852     1.0  0.29586  0.71295  0.87160  1.0000
  H   H3091     1.0  0.01332  0.53296  0.74418  1.0000
  H   H3092     1.0  0.47600  0.61999  0.86374  1.0000
  H   H3093     1.0  0.20758  0.60229  0.81071  1.0000
  Fe  Fe263     1.0  0.20632  0.55707  0.97491  1.0000
  Fe  Fe264     1.0  0.46845  0.68649  0.89853  1.0000
  H   H3094     1.0  0.17593  0.62613  0.77344  1.0000
  H   H3095     1.0  0.09328  0.59332  0.94398  1.0000
  C   C1853     1.0  0.28253  0.72489  0.90105  1.0000
  C   C1854     1.0  0.19419  0.61977  0.78669  1.0000
  H   H3096     1.0  0.10251  0.55092  0.96692  1.0000
  H   H3097     1.0  0.47263  0.65388  0.85960  1.0000
  H   H3098     1.0  0.06933  0.65154  0.80631  1.0000
  H   H3099     1.0  0.25813  0.54305  0.88371  1.0000
  H   H3100     1.0  0.12348  0.52554  0.94930  1.0000
  H   H3101     1.0  0.46142  0.63442  0.82733  1.0000
  H   H3102     1.0  0.18042  0.64200  0.80570  1.0000
  H   H3103     1.0  0.27424  0.51638  0.89514  1.0000
  C   C1855     1.0  0.24904  0.52286  0.84669  1.0000
  H   H3104     1.0  0.37038  0.65803  0.91626  1.0000
  C   C1856     1.0  0.10378  0.69696  0.90419  1.0000
  N   N128      1.0  0.26773  0.69626  0.83314  1.0000
  C   C1857     1.0  0.25574  0.70672  0.84309  1.0000
  C   C1858     1.0  0.26711  0.70398  0.81640  1.0000
  C   C1859     1.0  0.28363  0.69547  0.83578  1.0000
  C   C1860     1.0  0.26389  0.68033  0.83799  1.0000
  C   C1861     1.0  0.25563  0.70203  0.86066  1.0000
  C   C1862     1.0  0.25723  0.53887  0.89650  1.0000
  H   H3105     1.0  0.06458  0.55119  0.76451  1.0000
  C   C1863     1.0  0.07839  0.65303  0.79540  1.0000
  H   H3106     1.0  0.31570  0.51452  0.80636  1.0000
  H   H3107     1.0  0.46812  0.62170  0.84348  1.0000
  H   H3108     1.0  0.45233  0.68672  0.83085  1.0000
  C   C1864     1.0  0.15446  0.51882  0.97372  1.0000
  C   C1865     1.0  0.12483  0.53321  0.93752  1.0000
  H   H3109     1.0  0.20403  0.70648  0.87159  1.0000
  H   H3110     1.0  0.43502  0.64225  0.84349  1.0000
  C   C1866     1.0  0.22874  0.54659  0.90068  1.0000
  H   H3111     1.0  0.24510  0.70922  0.86692  1.0000
  H   H3112     1.0  0.25499  0.68968  0.86570  1.0000
  H   H3113     1.0  0.26591  0.70448  0.86307  1.0000
  C   C1867     1.0  0.27748  0.49107  0.81673  1.0000
  C   C1868     1.0  0.15756  0.60655  0.95833  1.0000
  C   C1869     1.0  0.15489  0.72334  0.84902  1.0000
  H   H3114     1.0  0.26806  0.67361  0.84878  1.0000
  H   H3115     1.0  0.24296  0.71761  0.81665  1.0000
  H   H3116     1.0  0.24033  0.50284  0.92766  1.0000
  H   H3117     1.0  0.37915  0.70417  0.89046  1.0000
  H   H3118     1.0  0.11094  0.57098  0.97548  1.0000
  H   H3119     1.0  0.07295  0.65738  0.78517  1.0000
  H   H3120     1.0  0.00280  0.68383  0.78745  1.0000
  H   H3121     1.0  0.10283  0.69950  0.77683  1.0000
  C   C1870     1.0  0.17918  0.58710  0.96755  1.0000
  C   C1871     1.0  0.05114  0.60604  0.75772  1.0000
  H   H3122     1.0  0.27990  0.71386  0.90064  1.0000
  H   H3123     1.0  0.37931  0.73191  0.97045  1.0000
  C   C1872     1.0  0.24194  0.52056  0.89660  1.0000
  H   H3124     1.0  0.14609  0.71609  0.85214  1.0000
  H   H3125     1.0  0.25735  0.54905  0.90076  1.0000
  H   H3126     1.0  0.40429  0.72806  0.97643  1.0000
  C   C1873     1.0  0.07384  0.56547  0.73601  1.0000
  C   C1874     1.0  0.44376  0.63250  0.84867  1.0000
  C   C1875     1.0  0.14735  0.56089  0.92779  1.0000
  S   S536      1.0  0.23839  0.49680  0.84939  1.0000
  C   C1876     1.0  0.46574  0.64592  0.85881  1.0000
  N   N129      1.0  0.29885  0.72629  0.89190  1.0000
  Fe  Fe265     1.0  0.35843  0.69983  0.94131  1.0000
  C   C1877     1.0  0.31108  0.49140  0.81725  1.0000
  Fe  Fe266     1.0  0.01149  0.62199  0.86515  1.0000
  H   H3127     1.0  0.19500  0.69521  0.85461  1.0000
  S   S537      1.0  0.36271  0.67478  0.94046  1.0000
  S   S538      1.0  0.36635  0.70621  0.95923  1.0000
  H   H3128     1.0  0.26698  0.50086  0.81670  1.0000
  H   H3129     1.0  0.33429  0.69915  0.89362  1.0000
  H   H3130     1.0  0.30984  0.71205  0.91078  1.0000
  H   H3131     1.0  0.43063  0.72533  0.94305  1.0000
  C   C1878     1.0  0.20521  0.71175  0.85932  1.0000
  H   H3132     1.0  0.28340  0.71220  0.87623  1.0000
  C   C1879     1.0  0.31014  0.72290  0.81834  1.0000
  H   H3133     1.0  0.04817  0.54600  0.79068  1.0000
  H   H3134     1.0  0.44434  0.66268  0.84167  1.0000
  H   H3135     1.0  0.07873  0.66005  0.82593  1.0000
  C   C1880     1.0  0.07723  0.57541  0.76403  1.0000
  N   N130      1.0  0.12125  0.55794  0.94773  1.0000
  C   C1881     1.0  0.28375  0.48895  0.83137  1.0000
  C   C1882     1.0  0.17734  0.57702  0.95948  1.0000
  H   H3136     1.0  0.99970  0.58593  0.83652  1.0000
  C   C1883     1.0  0.13886  0.55521  0.94473  1.0000
  H   H3137     1.0  0.21009  0.49432  0.94945  1.0000
  H   H3138     1.0  0.25985  0.50646  0.92191  1.0000
  H   H3139     1.0  0.47267  0.67795  0.82658  1.0000
  H   H3140     1.0  0.21770  0.52340  0.89466  1.0000
  C   C1884     1.0  0.16943  0.60198  0.96679  1.0000
  H   H3141     1.0  0.25236  0.71027  0.79950  1.0000
  C   C1885     1.0  0.49167  0.70391  0.92939  1.0000
  C   C1886     1.0  0.48470  0.69463  0.92471  1.0000
  H   H3142     1.0  0.01141  0.66220  0.75740  1.0000
  H   H3143     1.0  0.16463  0.57389  0.94440  1.0000
  H   H3144     1.0  0.14229  0.56133  0.95178  1.0000
  H   H3145     1.0  0.14431  0.54277  0.94881  1.0000
  H   H3146     1.0  0.49312  0.62033  0.83497  1.0000
  H   H3147     1.0  0.20897  0.48704  0.96982  1.0000
  C   C1887     1.0  0.09664  0.58039  0.94727  1.0000
  H   H3148     1.0  0.12112  0.53839  0.96756  1.0000
  H   H3149     1.0  0.08446  0.56331  0.76483  1.0000
  H   H3150     1.0  0.42609  0.68697  0.97164  1.0000
  C   C1888     1.0  0.31034  0.71230  0.89844  1.0000
  H   H3151     1.0  0.06716  0.68322  0.77985  1.0000
  H   H3152     1.0  0.36046  0.71824  0.89215  1.0000
  H   H3153     1.0  0.30724  0.70112  0.89921  1.0000
  C   C1889     1.0  0.11624  0.55028  0.93783  1.0000
  H   H3154     1.0  0.24362  0.70724  0.84224  1.0000
  H   H3155     1.0  0.17146  0.71078  0.87185  1.0000
  C   C1890     1.0  0.46078  0.63335  0.83991  1.0000
  H   H3156     1.0  0.01180  0.65703  0.78466  1.0000
  H   H3157     1.0  0.39874  0.68493  0.96067  1.0000
  C   C1891     1.0  0.25092  0.70733  0.81236  1.0000
  N   N131      1.0  0.20116  0.62544  0.79670  1.0000
  C   C1892     1.0  0.21162  0.72507  0.85311  1.0000
  H   H3158     1.0  0.05865  0.66694  0.83339  1.0000
  H   H3159     1.0  0.18478  0.56556  0.95990  1.0000
  H   H3160     1.0  0.20280  0.61806  0.77565  1.0000
  C   C1893     1.0  0.02066  0.52325  0.73859  1.0000
  S   S539      1.0  0.00488  0.59509  0.74780  1.0000
  S   S540      1.0  0.11835  0.63481  0.73596  1.0000
  C   C1894     1.0  0.32349  0.71787  0.82479  1.0000
  C   C1895     1.0  0.15568  0.59637  0.95039  1.0000
  H   H3161     1.0  0.25734  0.71897  0.83888  1.0000
  H   H3162     1.0  0.06735  0.58939  0.73739  1.0000
  H   H3163     1.0  0.22310  0.65448  0.78561  1.0000
  H   H3164     1.0  0.23632  0.56848  0.89692  1.0000
  H   H3165     1.0  0.25142  0.51010  0.89881  1.0000
  H   H3166     1.0  0.46044  0.71874  0.95567  1.0000
  H   H3167     1.0  0.07517  0.71279  0.78287  1.0000
  H   H3168     1.0  0.08417  0.58253  0.75403  1.0000
  H   H3169     1.0  0.11739  0.55703  0.92558  1.0000
  H   H3170     1.0  0.13499  0.66761  0.88176  1.0000
  H   H3171     1.0  0.36269  0.70028  0.88708  1.0000
  H   H3172     1.0  0.06350  0.60711  0.75519  1.0000
  C   C1896     1.0  0.24064  0.52789  0.92155  1.0000
  N   N132      1.0  0.19020  0.61195  0.90621  1.0000
  C   C1897     1.0  0.19458  0.60913  0.92164  1.0000
  C   C1898     1.0  0.18096  0.62849  0.90250  1.0000
  C   C1899     1.0  0.20457  0.60977  0.89329  1.0000
  C   C1900     1.0  0.18064  0.60042  0.90740  1.0000
  C   C1901     1.0  0.20543  0.59324  0.92662  1.0000
  C   C1902     1.0  0.16475  0.63238  0.91343  1.0000
  C   C1903     1.0  0.21701  0.61894  0.89179  1.0000
  C   C1904     1.0  0.17342  0.60274  0.89330  1.0000
  H   H3173     1.0  0.20019  0.61843  0.92186  1.0000
  H   H3174     1.0  0.18393  0.60978  0.93120  1.0000
  H   H3175     1.0  0.17915  0.63170  0.89038  1.0000
  H   H3176     1.0  0.18765  0.63684  0.90286  1.0000
  H   H3177     1.0  0.21055  0.59727  0.89426  1.0000
  H   H3178     1.0  0.20122  0.61341  0.88183  1.0000
  H   H3179     1.0  0.18786  0.58833  0.90901  1.0000
  H   H3180     1.0  0.17092  0.60044  0.91788  1.0000
  H   H3181     1.0  0.19963  0.58344  0.92877  1.0000
  H   H3182     1.0  0.21672  0.59135  0.91809  1.0000
  H   H3183     1.0  0.20823  0.59283  0.93782  1.0000
  H   H3184     1.0  0.16565  0.63093  0.92559  1.0000
  H   H3185     1.0  0.15919  0.64481  0.90943  1.0000
  H   H3186     1.0  0.15659  0.62545  0.91321  1.0000
  H   H3187     1.0  0.22683  0.61637  0.88181  1.0000
  H   H3188     1.0  0.22223  0.61542  0.90218  1.0000
  H   H3189     1.0  0.21231  0.63171  0.88925  1.0000
  H   H3190     1.0  0.16497  0.61407  0.89130  1.0000
  H   H3191     1.0  0.16681  0.59351  0.89557  1.0000
  H   H3192     1.0  0.18251  0.60173  0.88250  1.0000
  H   H3193     1.0  0.16630  0.71505  0.84621  1.0000
  H   H3194     1.0  0.14912  0.67147  0.76478  1.0000
  H   H3195     1.0  0.46981  0.73155  0.91118  1.0000
  H   H3196     1.0  0.13303  0.65601  0.76003  1.0000
  N   N133      1.0  0.09530  0.60002  0.83288  1.0000
  C   C1905     1.0  0.09255  0.61027  0.81738  1.0000
  C   C1906     1.0  0.09406  0.61068  0.84333  1.0000
  C   C1907     1.0  0.08230  0.59119  0.83952  1.0000
  C   C1908     1.0  0.11114  0.58903  0.83022  1.0000
  C   C1909     1.0  0.09192  0.60191  0.80511  1.0000
  C   C1910     1.0  0.10566  0.62161  0.83749  1.0000
  C   C1911     1.0  0.08188  0.58069  0.85590  1.0000
  C   C1912     1.0  0.11911  0.58202  0.84430  1.0000
  H   H3197     1.0  0.08138  0.61920  0.81898  1.0000
  H   H3198     1.0  0.10197  0.61687  0.81172  1.0000
  H   H3199     1.0  0.09541  0.60426  0.85521  1.0000
  H   H3200     1.0  0.08209  0.61823  0.84516  1.0000
  H   H3201     1.0  0.07070  0.59948  0.84001  1.0000
  H   H3202     1.0  0.08269  0.58341  0.83194  1.0000
  H   H3203     1.0  0.11038  0.57914  0.82578  1.0000
  H   H3204     1.0  0.11962  0.59512  0.82089  1.0000
  H   H3205     1.0  0.09177  0.61045  0.79381  1.0000
  H   H3206     1.0  0.10232  0.59234  0.80310  1.0000
  H   H3207     1.0  0.08099  0.59753  0.80815  1.0000
  H   H3208     1.0  0.11787  0.61538  0.83355  1.0000
  H   H3209     1.0  0.10207  0.63142  0.82799  1.0000
  H   H3210     1.0  0.10547  0.62686  0.84715  1.0000
  H   H3211     1.0  0.07122  0.57575  0.85937  1.0000
  H   H3212     1.0  0.08079  0.58715  0.86488  1.0000
  H   H3213     1.0  0.09202  0.57060  0.85601  1.0000
  H   H3214     1.0  0.12518  0.56971  0.84401  1.0000
  H   H3215     1.0  0.11118  0.58184  0.85587  1.0000
  H   H3216     1.0  0.12850  0.58808  0.84329  1.0000
  N   N134      1.0  0.30785  0.62212  0.88613  1.0000
  C   C1913     1.0  0.31359  0.60494  0.88611  1.0000
  C   C1914     1.0  0.32202  0.62841  0.88462  1.0000
  C   C1915     1.0  0.30042  0.62991  0.87225  1.0000
  C   C1916     1.0  0.29596  0.62370  0.90111  1.0000
  C   C1917     1.0  0.30140  0.59648  0.88525  1.0000
  C   C1918     1.0  0.33048  0.62184  0.89828  1.0000
  C   C1919     1.0  0.29949  0.64756  0.86591  1.0000
  C   C1920     1.0  0.28983  0.64015  0.90461  1.0000
  H   H3217     1.0  0.32366  0.60302  0.87610  1.0000
  H   H3218     1.0  0.31810  0.59837  0.89673  1.0000
  H   H3219     1.0  0.31917  0.64124  0.88322  1.0000
  H   H3220     1.0  0.33081  0.62628  0.87378  1.0000
  H   H3221     1.0  0.30703  0.62450  0.86219  1.0000
  H   H3222     1.0  0.28831  0.62799  0.87469  1.0000
  H   H3223     1.0  0.28534  0.61975  0.90138  1.0000
  H   H3224     1.0  0.30033  0.61564  0.91135  1.0000
  H   H3225     1.0  0.30715  0.58405  0.88529  1.0000
  H   H3226     1.0  0.29132  0.59662  0.89537  1.0000
  H   H3227     1.0  0.29714  0.60121  0.87428  1.0000
  H   H3228     1.0  0.33593  0.60925  0.89937  1.0000
  H   H3229     1.0  0.34017  0.62791  0.89609  1.0000
  H   H3230     1.0  0.32259  0.62407  0.90944  1.0000
  H   H3231     1.0  0.29361  0.65452  0.87485  1.0000
  H   H3232     1.0  0.29272  0.65171  0.85660  1.0000
  H   H3233     1.0  0.31132  0.65002  0.86035  1.0000
  H   H3234     1.0  0.27932  0.64640  0.89970  1.0000
  H   H3235     1.0  0.29867  0.64741  0.90049  1.0000
  H   H3236     1.0  0.28652  0.63910  0.91742  1.0000
  H   H3237     1.0  0.24527  0.69721  0.81702  1.0000
  S   S541      1.0  0.33547  0.71704  0.94377  1.0000
  H   H3238     1.0  0.30876  0.68764  0.82848  1.0000
  H   H3239     1.0  0.12551  0.72308  0.86899  1.0000
  C   C1921     1.0  0.40380  0.67587  0.95363  1.0000
  Fe  Fe267     1.0  0.34461  0.72521  0.95978  1.0000
  H   H3240     1.0  0.30993  0.49054  0.80581  1.0000
  H   H3241     1.0  0.44181  0.63215  0.86124  1.0000
  H   H3242     1.0  0.11913  0.58144  0.95009  1.0000
  H   H3243     1.0  0.28077  0.67232  0.81700  1.0000
  H   H3244     1.0  0.45648  0.66179  0.82296  1.0000
  H   H3245     1.0  0.21774  0.61563  0.81176  1.0000
  H   H3246     1.0  0.33270  0.71909  0.89431  1.0000
  C   C1922     1.0  0.37358  0.71676  0.86777  1.0000
  H   H3247     1.0  0.32994  0.71395  0.87764  1.0000
  H   H3248     1.0  0.24797  0.50904  0.94032  1.0000
  H   H3249     1.0  0.15420  0.69636  0.89181  1.0000
  H   H3250     1.0  0.01951  0.62841  0.78857  1.0000
  H   H3251     1.0  0.99388  0.68446  0.81445  1.0000
  N   N135      1.0  0.15468  0.73039  0.86218  1.0000
  C   C1923     1.0  0.07734  0.58088  0.77854  1.0000
  H   H3252     1.0  0.23062  0.55936  0.91722  1.0000
  H   H3253     1.0  0.10350  0.55023  0.94189  1.0000
  H   H3254     1.0  0.30370  0.70186  0.87593  1.0000
  C   C1924     1.0  0.06665  0.68024  0.81013  1.0000
  H   H3255     1.0  0.29804  0.71443  0.85877  1.0000
  H   H3256     1.0  0.46111  0.62704  0.87914  1.0000
  Fe  Fe268     1.0  0.99713  0.59218  0.77364  1.0000
  C   C1925     1.0  0.12231  0.67212  0.90441  1.0000
  H   H3257     1.0  0.39990  0.71670  0.87605  1.0000
  N   N136      1.0  0.41631  0.67369  0.92492  1.0000
  C   C1926     1.0  0.41067  0.68376  0.93683  1.0000
  C   C1927     1.0  0.42442  0.68314  0.91016  1.0000
  C   C1928     1.0  0.42796  0.65952  0.93101  1.0000
  C   C1929     1.0  0.40232  0.66925  0.92289  1.0000
  C   C1930     1.0  0.04888  0.58954  0.76661  1.0000
  C   C1931     1.0  0.41419  0.69854  0.90307  1.0000
  C   C1932     1.0  0.43646  0.64801  0.92028  1.0000
  C   C1933     1.0  0.40419  0.66345  0.90799  1.0000
  H   H3258     1.0  0.42033  0.68879  0.93740  1.0000
  H   H3259     1.0  0.40119  0.69384  0.93349  1.0000
  H   H3260     1.0  0.42953  0.67657  0.90084  1.0000
  H   H3261     1.0  0.43462  0.68614  0.91218  1.0000
  H   H3262     1.0  0.43721  0.66316  0.93417  1.0000
  S   S542      1.0  0.10537  0.67873  0.93283  1.0000
  H   H3263     1.0  0.07025  0.57524  0.78944  1.0000
  H   H3264     1.0  0.39222  0.67946  0.92279  1.0000
  C   C1934     1.0  0.16809  0.52448  0.96621  1.0000
  H   H3265     1.0  0.29066  0.72422  0.96329  1.0000
  H   H3266     1.0  0.04383  0.61467  0.76476  1.0000
  H   H3267     1.0  0.42101  0.70358  0.89161  1.0000
  H   H3268     1.0  0.40336  0.69678  0.90116  1.0000
  H   H3269     1.0  0.41121  0.70733  0.91027  1.0000
  H   H3270     1.0  0.44538  0.63895  0.92594  1.0000
  H   H3271     1.0  0.44296  0.65350  0.90890  1.0000
  H   H3272     1.0  0.42830  0.64176  0.91881  1.0000
  H   H3273     1.0  0.39939  0.65279  0.91116  1.0000
  H   H3274     1.0  0.41630  0.66041  0.90136  1.0000
  H   H3275     1.0  0.39707  0.67221  0.90007  1.0000
  H   H3276     1.0  0.40221  0.73205  0.88306  1.0000
  H   H3277     1.0  0.30825  0.71617  0.81129  1.0000
  H   H3278     1.0  0.28553  0.70746  0.83373  1.0000
  S   S543      1.0  0.03556  0.55655  0.73995  1.0000
  H   H3279     1.0  0.25091  0.68153  0.84104  1.0000
  N   N137      1.0  0.06139  0.57627  0.76108  1.0000
  C   C1935     1.0  0.20803  0.72540  0.82770  1.0000
  Fe  Fe269     1.0  0.48192  0.70981  0.87106  1.0000
  H   H3280     1.0  0.07329  0.59370  0.77708  1.0000
  H   H3281     1.0  0.39832  0.66018  0.93305  1.0000
  H   H3282     1.0  0.46186  0.67730  0.84659  1.0000
  S   S544      1.0  0.37093  0.71540  0.92119  1.0000
  N   N138      1.0  0.24227  0.53316  0.90412  1.0000
  H   H3283     1.0  0.08594  0.69880  0.80356  1.0000
  C   C1936     1.0  0.11099  0.68275  0.91247  1.0000
  C   C1937     1.0  0.07568  0.68868  0.78195  1.0000
  C   C1938     1.0  0.21434  0.48411  0.95822  1.0000
  C   C1939     1.0  0.11470  0.57525  0.94388  1.0000
  H   H3284     1.0  0.02333  0.51309  0.74818  1.0000
  C   C1940     1.0  0.46141  0.67654  0.83487  1.0000
  H   H3285     1.0  0.14175  0.55974  0.91900  1.0000
  Fe  Fe270     1.0  0.01318  0.56919  0.75284  1.0000
  S   S545      1.0  0.08274  0.64883  0.96172  1.0000
  H   H3286     1.0  0.06115  0.69237  0.81162  1.0000
  H   H3287     1.0  0.42216  0.65237  0.94185  1.0000
  C   C1941     1.0  0.32775  0.71135  0.89047  1.0000
  C   C1942     1.0  0.06771  0.70606  0.78096  1.0000
  N   N139      1.0  0.08086  0.68000  0.79691  1.0000
  C   C1943     1.0  0.27024  0.66986  0.82591  1.0000
  H   H3288     1.0  0.04546  0.56545  0.79244  1.0000
  H   H3289     1.0  0.24098  0.52876  0.83906  1.0000
  N   N140      1.0  0.46682  0.64628  0.84199  1.0000
  H   H3290     1.0  0.27351  0.65752  0.83210  1.0000
  C   C1944     1.0  0.27263  0.52723  0.89907  1.0000
  H   H3291     1.0  0.05610  0.70763  0.78912  1.0000
  H   H3292     1.0  0.29894  0.69061  0.81333  1.0000
  C   C1945     1.0  0.10631  0.69039  0.78686  1.0000
  H   H3293     1.0  0.48374  0.64800  0.82002  1.0000
  C   C1946     1.0  0.29796  0.68626  0.82603  1.0000
  H   H3294     1.0  0.08571  0.68787  0.77173  1.0000
  H   H3295     1.0  0.19588  0.48584  0.91052  1.0000
  H   H3296     1.0  0.17169  0.53177  0.97134  1.0000
  H   H3297     1.0  0.29827  0.67359  0.82945  1.0000
  C   C1947     1.0  0.32613  0.72675  0.83365  1.0000
  H   H3298     1.0  0.19928  0.64928  0.78345  1.0000
  H   H3299     1.0  0.22882  0.54978  0.88799  1.0000
  C   C1948     1.0  0.08907  0.66358  0.79523  1.0000
  H   H3300     1.0  0.29567  0.51500  0.81597  1.0000
  C   C1949     1.0  0.21311  0.61215  0.80351  1.0000
  H   H3301     1.0  0.09144  0.57588  0.94025  1.0000
  H   H3302     1.0  0.21274  0.64791  0.80483  1.0000
  C   C1950     1.0  0.47107  0.62995  0.86947  1.0000
  C   C1951     1.0  0.45674  0.66146  0.83515  1.0000
  C   C1952     1.0  0.17943  0.61929  0.82121  1.0000
  S   S546      1.0  0.19371  0.70593  0.82161  1.0000
  H   H3303     1.0  0.19165  0.60804  0.79234  1.0000
  H   H3304     1.0  0.23555  0.59624  0.79808  1.0000
  C   C1953     1.0  0.22807  0.56167  0.90555  1.0000
  H   H3305     1.0  0.03709  0.58874  0.76584  1.0000
  H   H3306     1.0  0.17766  0.61086  0.81558  1.0000
  C   C1954     1.0  0.21907  0.64420  0.79384  1.0000
  H   H3307     1.0  0.06548  0.71123  0.76906  1.0000
  H   H3308     1.0  0.18052  0.64267  0.77652  1.0000
  H   H3309     1.0  0.22977  0.63515  0.79582  1.0000
  H   H3310     1.0  0.45347  0.65066  0.86443  1.0000
  H   H3311     1.0  0.13710  0.71111  0.88930  1.0000
  H   H3312     1.0  0.22354  0.59953  0.78446  1.0000
  H   H3313     1.0  0.16749  0.62561  0.82605  1.0000
  H   H3314     1.0  0.18531  0.61272  0.83098  1.0000
  H   H3315     1.0  0.21572  0.63603  0.77538  1.0000
  H   H3316     1.0  0.23380  0.61412  0.78397  1.0000
  C   C1955     1.0  0.30459  0.48332  0.84545  1.0000
  N   N141      1.0  0.07440  0.67061  0.89430  1.0000
  C   C1956     1.0  0.08941  0.65885  0.89662  1.0000
  C   C1957     1.0  0.06832  0.67789  0.90835  1.0000
  C   C1958     1.0  0.07827  0.68275  0.87968  1.0000
  C   C1959     1.0  0.06313  0.66207  0.89270  1.0000
  C   C1960     1.0  0.09944  0.65204  0.88240  1.0000
  C   C1961     1.0  0.06409  0.66668  0.92413  1.0000
  C   C1962     1.0  0.06719  0.69902  0.87830  1.0000
  C   C1963     1.0  0.04644  0.67146  0.89142  1.0000
  H   H3317     1.0  0.09715  0.66400  0.90032  1.0000
  H   H3318     1.0  0.08697  0.64872  0.90618  1.0000
  H   H3319     1.0  0.05770  0.68730  0.90731  1.0000
  H   H3320     1.0  0.07716  0.68371  0.90937  1.0000
  H   H3321     1.0  0.09003  0.68498  0.87842  1.0000
  H   H3322     1.0  0.07912  0.67845  0.86915  1.0000
  H   H3323     1.0  0.06778  0.65700  0.88218  1.0000
  H   H3324     1.0  0.06205  0.65168  0.90231  1.0000
  H   H3325     1.0  0.10958  0.64302  0.88600  1.0000
  H   H3326     1.0  0.09289  0.64625  0.87797  1.0000
  H   H3327     1.0  0.10441  0.66099  0.87282  1.0000
  H   H3328     1.0  0.07449  0.65792  0.92738  1.0000
  H   H3329     1.0  0.05936  0.67346  0.93342  1.0000
  H   H3330     1.0  0.05487  0.66074  0.92441  1.0000
  H   H3331     1.0  0.07067  0.70608  0.86642  1.0000
  H   H3332     1.0  0.06837  0.70532  0.88654  1.0000
  H   H3333     1.0  0.05477  0.69865  0.88003  1.0000
  H   H3334     1.0  0.04596  0.67732  0.87915  1.0000
  H   H3335     1.0  0.04163  0.68003  0.89892  1.0000
  H   H3336     1.0  0.03831  0.66332  0.89567  1.0000
  Fe  Fe271     1.0  0.09598  0.62856  0.73641  1.0000
  C   C1964     1.0  0.00001  0.65972  0.78188  1.0000
  Fe  Fe272     1.0  0.37718  0.72327  0.93934  1.0000
  H   H3337     1.0  0.09789  0.66368  0.78404  1.0000
  H   H3338     1.0  0.29959  0.49521  0.84784  1.0000
  C   C1965     1.0  0.00164  0.66904  0.76484  1.0000
  H   H3339     1.0  0.06492  0.55268  0.79027  1.0000
  C   C1966     1.0  0.06953  0.67085  0.82632  1.0000
  C   C1967     1.0  0.36868  0.70984  0.88537  1.0000
  S   S547      1.0  0.49207  0.72451  0.94558  1.0000
  H   H3340     1.0  0.28569  0.49442  0.80565  1.0000
  H   H3341     1.0  0.09606  0.65750  0.80426  1.0000
  C   C1968     1.0  0.16579  0.58172  0.95074  1.0000
  H   H3342     1.0  0.27557  0.69717  0.80815  1.0000
  H   H3343     1.0  0.99780  0.64840  0.78175  1.0000
  S   S548      1.0  0.40250  0.72324  0.93678  1.0000
  H   H3344     1.0  0.09686  0.68011  0.81049  1.0000
  H   H3345     1.0  0.00198  0.65607  0.81099  1.0000
  H   H3346     1.0  0.32374  0.48640  0.81737  1.0000
  H   H3347     1.0  0.21288  0.48731  0.92559  1.0000
  H   H3348     1.0  0.14999  0.72909  0.82588  1.0000
  H   H3349     1.0  0.39447  0.73063  0.84528  1.0000
  H   H3350     1.0  0.31083  0.72850  0.86753  1.0000
  H   H3351     1.0  0.45135  0.72658  0.91558  1.0000
  H   H3352     1.0  0.30603  0.73087  0.96672  1.0000
  S   S549      1.0  0.09400  0.60728  0.72978  1.0000
  C   C1969     1.0  0.01227  0.51869  0.72849  1.0000
  H   H3353     1.0  0.15961  0.72236  0.88534  1.0000
  H   H3354     1.0  0.38840  0.71180  0.97246  1.0000
  H   H3355     1.0  0.03203  0.52621  0.73189  1.0000
  S   S550      1.0  0.49314  0.68756  0.88550  1.0000
  Fe  Fe273     1.0  0.48814  0.67573  0.86947  1.0000
  H   H3356     1.0  0.49161  0.68773  0.91634  1.0000
  C   C1970     1.0  0.21317  0.73173  0.83723  1.0000
  H   H3357     1.0  0.20900  0.73087  0.81547  1.0000
  H   H3358     1.0  0.00218  0.51396  0.73653  1.0000
  C   C1971     1.0  0.39837  0.72949  0.87374  1.0000
  C   C1972     1.0  0.42198  0.69811  0.97567  1.0000
  Fe  Fe274     1.0  0.09922  0.63189  0.97609  1.0000
  H   H3359     1.0  0.12986  0.55767  0.97626  1.0000
  S   S551      1.0  0.48862  0.73303  0.86622  1.0000
  C   C1973     1.0  0.11733  0.55862  0.97668  1.0000
  H   H3360     1.0  0.30914  0.87622  0.11022  1.0000
  H   H3361     1.0  0.21947  0.73759  0.15675  1.0000
  C   C1974     1.0  0.41440  0.79523  0.99689  1.0000
  S   S552      1.0  0.47007  0.81545  0.02888  1.0000
  C   C1975     1.0  0.32475  0.85812  0.19400  1.0000
  H   H3362     1.0  0.26426  0.88999  0.13094  1.0000
  H   H3363     1.0  0.31737  0.84521  0.12462  1.0000
  H   H3364     1.0  0.49060  0.96709  0.17467  1.0000
  C   C1976     1.0  0.46236  0.88687  0.06978  1.0000
  C   C1977     1.0  0.25063  0.85728  0.97896  1.0000
  H   H3365     1.0  0.38707  0.79514  0.01697  1.0000
  C   C1978     1.0  0.43182  0.88525  0.14795  1.0000
  C   C1979     1.0  0.31900  0.89056  0.18317  1.0000
  C   C1980     1.0  0.39439  0.85773  0.21375  1.0000
  H   H3366     1.0  0.46064  0.89913  0.06423  1.0000
  H   H3367     1.0  0.41879  0.87230  0.14159  1.0000
  C   C1981     1.0  0.29028  0.96934  0.19447  1.0000
  H   H3368     1.0  0.27868  0.87065  0.98404  1.0000
  Fe  Fe275     1.0  0.44629  0.82945  0.08082  1.0000
  C   C1982     1.0  0.37995  0.91176  0.18328  1.0000
  H   H3369     1.0  0.34052  0.74025  0.11751  1.0000
  Fe  Fe276     1.0  0.43470  0.80145  0.08140  1.0000
  S   S553      1.0  0.45852  0.78935  0.07038  1.0000
  S   S554      1.0  0.41221  0.79300  0.08823  1.0000
  H   H3370     1.0  0.25902  0.87510  0.99332  1.0000
  Fe  Fe277     1.0  0.46041  0.81250  0.05459  1.0000
  N   N142      1.0  0.42956  0.88633  0.11992  1.0000
  S   S555      1.0  0.44323  0.80779  0.09911  1.0000
  S   S556      1.0  0.43589  0.82397  0.06406  1.0000
  Fe  Fe278     1.0  0.35584  0.74610  0.07169  1.0000
  C   C1983     1.0  0.33967  0.73811  0.99122  1.0000
  S   S557      1.0  0.33697  0.76043  0.08648  1.0000
  H   H3371     1.0  0.32460  0.80056  0.98623  1.0000
  H   H3372     1.0  0.35873  0.84946  0.19721  1.0000
  H   H3373     1.0  0.42779  0.87855  0.15987  1.0000
  Fe  Fe279     1.0  0.36909  0.74346  0.03828  1.0000
  S   S558      1.0  0.36833  0.75579  0.01361  1.0000
  H   H3374     1.0  0.41095  0.89225  0.13934  1.0000
  S   S559      1.0  0.37378  0.75684  0.05287  1.0000
  C   C1984     1.0  0.44446  0.90866  0.11398  1.0000
  Fe  Fe280     1.0  0.30120  0.75201  0.16931  1.0000
  Fe  Fe281     1.0  0.27675  0.78171  0.16336  1.0000
  S   S560      1.0  0.25829  0.77302  0.18350  1.0000
  S   S561      1.0  0.27470  0.80679  0.15029  1.0000
  H   H3375     1.0  0.32092  0.75664  0.19175  1.0000
  H   H3376     1.0  0.41948  0.91105  0.11867  1.0000
  S   S562      1.0  0.29531  0.77433  0.17735  1.0000
  S   S563      1.0  0.28399  0.75997  0.15371  1.0000
  Fe  Fe282     1.0  0.30516  0.86001  0.03340  1.0000
  S   S564      1.0  0.32106  0.86831  0.04291  1.0000
  S   S565      1.0  0.30698  0.86465  0.00743  1.0000
  Fe  Fe283     1.0  0.29195  0.84143  0.06525  1.0000
  S   S566      1.0  0.30643  0.84834  0.07732  1.0000
  S   S567      1.0  0.27828  0.82283  0.07778  1.0000
  Fe  Fe284     1.0  0.30015  0.87218  0.06257  1.0000
  S   S568      1.0  0.29317  0.89281  0.07401  1.0000
  Fe  Fe285     1.0  0.32578  0.84382  0.05685  1.0000
  S   S569      1.0  0.34876  0.82855  0.06135  1.0000
  S   S570      1.0  0.28371  0.86574  0.05204  1.0000
  S   S571      1.0  0.31186  0.83527  0.04565  1.0000
  C   C1985     1.0  0.48645  0.92937  0.17938  1.0000
  H   H3377     1.0  0.48467  0.75659  0.03178  1.0000
  C   C1986     1.0  0.47694  0.86290  0.03698  1.0000
  H   H3378     1.0  0.45913  0.93972  0.16887  1.0000
  C   C1987     1.0  0.21125  0.75565  0.16976  1.0000
  C   C1988     1.0  0.31373  0.88412  0.19893  1.0000
  Fe  Fe286     1.0  0.34264  0.91555  0.11910  1.0000
  S   S572      1.0  0.32055  0.92898  0.13209  1.0000
  S   S573      1.0  0.34591  0.89894  0.10356  1.0000
  Fe  Fe287     1.0  0.36367  0.92370  0.13498  1.0000
  S   S574      1.0  0.34355  0.93725  0.14961  1.0000
  S   S575      1.0  0.38854  0.92158  0.13633  1.0000
  Fe  Fe288     1.0  0.33135  0.91810  0.15289  1.0000
  H   H3379     1.0  0.41789  0.86990  0.11688  1.0000
  Fe  Fe289     1.0  0.33444  0.94734  0.12781  1.0000
  H   H3380     1.0  0.38576  0.77809  0.98385  1.0000
  S   S576      1.0  0.35252  0.90336  0.14037  1.0000
  S   S577      1.0  0.35556  0.93495  0.11270  1.0000
  H   H3381     1.0  0.42991  0.90638  0.10050  1.0000
  H   H3382     1.0  0.44865  0.95947  0.16692  1.0000
  C   C1989     1.0  0.32662  0.88078  0.17277  1.0000
  H   H3383     1.0  0.33569  0.85703  0.17016  1.0000
  H   H3384     1.0  0.33043  0.88571  0.16058  1.0000
  H   H3385     1.0  0.25852  0.90032  0.99353  1.0000
  Fe  Fe290     1.0  0.27762  0.76387  0.19663  1.0000
  C   C1990     1.0  0.37812  0.91480  0.16796  1.0000
  C   C1991     1.0  0.39022  0.91900  0.15553  1.0000
  C   C1992     1.0  0.40394  0.92064  0.15846  1.0000
  C   C1993     1.0  0.40574  0.91769  0.17383  1.0000
  H   H3386     1.0  0.44951  0.79382  0.04281  1.0000
  H   H3387     1.0  0.36743  0.91372  0.16575  1.0000
  H   H3388     1.0  0.41320  0.92415  0.14884  1.0000
  H   H3389     1.0  0.41645  0.91870  0.17606  1.0000
  H   H3390     1.0  0.33551  0.78769  0.16550  1.0000
  C   C1994     1.0  0.30804  0.89548  0.08126  1.0000
  C   C1995     1.0  0.32275  0.88532  0.07965  1.0000
  C   C1996     1.0  0.33415  0.88677  0.08647  1.0000
  C   C1997     1.0  0.33111  0.89837  0.09484  1.0000
  C   C1998     1.0  0.31645  0.90870  0.09635  1.0000
  C   C1999     1.0  0.30493  0.90725  0.08953  1.0000
  H   H3391     1.0  0.32523  0.87617  0.07338  1.0000
  H   H3392     1.0  0.34533  0.87876  0.08546  1.0000
  H   H3393     1.0  0.31400  0.91775  0.10273  1.0000
  H   H3394     1.0  0.29355  0.91518  0.09076  1.0000
  C   C2000     1.0  0.30086  0.85171  0.00044  1.0000
  C   C2001     1.0  0.28951  0.84344  0.00982  1.0000
  C   C2002     1.0  0.28403  0.83402  0.00360  1.0000
  C   C2003     1.0  0.28982  0.83287  0.98797  1.0000
  H   H3395     1.0  0.49050  0.84152  0.01975  1.0000
  C   C2004     1.0  0.30686  0.85031  0.98491  1.0000
  H   H3396     1.0  0.28471  0.84458  0.02176  1.0000
  H   H3397     1.0  0.43196  0.76586  0.00186  1.0000
  H   H3398     1.0  0.42284  0.80238  0.01390  1.0000
  H   H3399     1.0  0.36354  0.83266  0.22198  1.0000
  C   C2005     1.0  0.27468  0.81121  0.13035  1.0000
  C   C2006     1.0  0.27383  0.80003  0.12303  1.0000
  C   C2007     1.0  0.27473  0.80371  0.10689  1.0000
  C   C2008     1.0  0.27655  0.81854  0.09805  1.0000
  C   C2009     1.0  0.27703  0.82981  0.10548  1.0000
  C   C2010     1.0  0.27601  0.82617  0.12159  1.0000
  H   H3400     1.0  0.27242  0.78859  0.12978  1.0000
  H   H3401     1.0  0.27417  0.79502  0.10122  1.0000
  H   H3402     1.0  0.27787  0.84142  0.09883  1.0000
  H   H3403     1.0  0.27630  0.83496  0.12725  1.0000
  C   C2011     1.0  0.34020  0.77935  0.08004  1.0000
  C   C2012     1.0  0.32758  0.79202  0.07823  1.0000
  C   C2013     1.0  0.33021  0.80715  0.07301  1.0000
  C   C2014     1.0  0.34548  0.80964  0.06906  1.0000
  C   C2015     1.0  0.35808  0.79696  0.07117  1.0000
  C   C2016     1.0  0.35540  0.78183  0.07678  1.0000
  H   H3404     1.0  0.31574  0.79021  0.08099  1.0000
  H   H3405     1.0  0.32029  0.81681  0.07230  1.0000
  H   H3406     1.0  0.36988  0.79879  0.06838  1.0000
  H   H3407     1.0  0.36508  0.77209  0.07868  1.0000
  C   C2017     1.0  0.41288  0.77727  0.08043  1.0000
  C   C2018     1.0  0.39927  0.77166  0.08327  1.0000
  C   C2019     1.0  0.39972  0.75886  0.07743  1.0000
  C   C2020     1.0  0.41376  0.75168  0.06875  1.0000
  H   H3408     1.0  0.45050  0.87824  0.10364  1.0000
  C   C2021     1.0  0.42685  0.77011  0.07162  1.0000
  H   H3409     1.0  0.38842  0.77717  0.09003  1.0000
  H   H3410     1.0  0.38931  0.75430  0.07993  1.0000
  S   S578      1.0  0.48633  0.78028  0.09788  1.0000
  H   H3411     1.0  0.43732  0.77435  0.06928  1.0000
  C   C2022     1.0  0.49204  0.85407  0.04295  1.0000
  C   C2023     1.0  0.36967  0.84975  0.20032  1.0000
  H   H3412     1.0  0.30902  0.79048  0.99698  1.0000
  C   C2024     1.0  0.35711  0.74903  0.00521  1.0000
  C   C2025     1.0  0.35712  0.75467  0.98936  1.0000
  H   H3413     1.0  0.34568  0.87605  0.19838  1.0000
  H   H3414     1.0  0.43903  0.88533  0.07005  1.0000
  C   C2026     1.0  0.17973  0.75125  0.16730  1.0000
  H   H3415     1.0  0.42924  0.77328  0.01837  1.0000
  C   C2027     1.0  0.46659  0.80076  0.02222  1.0000
  C   C2028     1.0  0.27445  0.89530  0.12457  1.0000
  H   H3416     1.0  0.35692  0.88906  0.19828  1.0000
  C   C2029     1.0  0.32949  0.86458  0.17818  1.0000
  C   C2030     1.0  0.45647  0.79122  0.03185  1.0000
  C   C2031     1.0  0.37354  0.83415  0.21192  1.0000
  H   H3417     1.0  0.44253  0.85539  0.13530  1.0000
  H   H3418     1.0  0.48228  0.77550  0.04615  1.0000
  C   C2032     1.0  0.44698  0.85844  0.12254  1.0000
  H   H3419     1.0  0.27741  0.89451  0.11218  1.0000
  C   C2033     1.0  0.44573  0.87614  0.11640  1.0000
  C   C2034     1.0  0.33256  0.75392  0.19464  1.0000
  H   H3420     1.0  0.44450  0.88015  0.14485  1.0000
  H   H3421     1.0  0.45433  0.87913  0.12099  1.0000
  H   H3422     1.0  0.25900  0.73990  0.14508  1.0000
  S   S579      1.0  0.32972  0.83789  0.20047  1.0000
  H   H3423     1.0  0.48006  0.78250  0.99183  1.0000
  H   H3424     1.0  0.45954  0.85241  0.12006  1.0000
  C   C2035     1.0  0.40246  0.89224  0.11281  1.0000
  C   C2036     1.0  0.28874  0.88829  0.13228  1.0000
  H   H3425     1.0  0.44095  0.85368  0.11652  1.0000
  H   H3426     1.0  0.43005  0.89759  0.14852  1.0000
  H   H3427     1.0  0.31945  0.88661  0.13434  1.0000
  H   H3428     1.0  0.45513  0.90408  0.10568  1.0000
  H   H3429     1.0  0.32835  0.93423  0.19145  1.0000
  S   S580      1.0  0.41464  0.73524  0.06212  1.0000
  H   H3430     1.0  0.34504  0.76306  0.13584  1.0000
  H   H3431     1.0  0.44227  0.92158  0.11041  1.0000
  H   H3432     1.0  0.44678  0.90537  0.12581  1.0000
  H   H3433     1.0  0.44804  0.77050  0.03510  1.0000
  H   H3434     1.0  0.32831  0.95317  0.19290  1.0000
  H   H3435     1.0  0.42000  0.79319  0.98493  1.0000
  C   C2037     1.0  0.46676  0.74403  0.10287  1.0000
  H   H3436     1.0  0.27905  0.89157  0.99313  1.0000
  C   C2038     1.0  0.39618  0.78500  0.02103  1.0000
  S   S581      1.0  0.32377  0.97324  0.12198  1.0000
  H   H3437     1.0  0.37582  0.88195  0.17387  1.0000
  C   C2039     1.0  0.41931  0.75348  0.02306  1.0000
  H   H3438     1.0  0.46850  0.84294  0.08961  1.0000
  H   H3439     1.0  0.29167  0.97247  0.14310  1.0000
  C   C2040     1.0  0.42229  0.88374  0.13710  1.0000
  H   H3440     1.0  0.31915  0.85216  0.10445  1.0000
  C   C2041     1.0  0.46047  0.95179  0.16727  1.0000
  S   S582      1.0  0.43697  0.85371  0.08480  1.0000
  H   H3441     1.0  0.25326  0.85431  0.99068  1.0000
  H   H3442     1.0  0.30215  0.84459  0.11567  1.0000
  N   N143      1.0  0.38111  0.84789  0.07356  1.0000
  C   C2042     1.0  0.38247  0.83058  0.07583  1.0000
  C   C2043     1.0  0.37359  0.85215  0.08915  1.0000
  C   C2044     1.0  0.39751  0.85088  0.06809  1.0000
  C   C2045     1.0  0.37136  0.85635  0.06158  1.0000
  C   C2046     1.0  0.39159  0.82322  0.06171  1.0000
  C   C2047     1.0  0.35779  0.84741  0.09749  1.0000
  C   C2048     1.0  0.40017  0.86576  0.07090  1.0000
  C   C2049     1.0  0.36858  0.87428  0.05709  1.0000
  H   H3443     1.0  0.38824  0.82397  0.08572  1.0000
  H   H3444     1.0  0.37069  0.82776  0.07900  1.0000
  H   H3445     1.0  0.37163  0.86483  0.08836  1.0000
  H   H3446     1.0  0.38171  0.84659  0.09730  1.0000
  H   H3447     1.0  0.40569  0.84121  0.07420  1.0000
  H   H3448     1.0  0.40192  0.85107  0.05543  1.0000
  H   H3449     1.0  0.37689  0.85255  0.05043  1.0000
  H   H3450     1.0  0.35978  0.85313  0.06485  1.0000
  H   H3451     1.0  0.39228  0.81046  0.06525  1.0000
  H   H3452     1.0  0.38548  0.82753  0.05190  1.0000
  H   H3453     1.0  0.40385  0.82474  0.05771  1.0000
  H   H3454     1.0  0.35952  0.83467  0.10237  1.0000
  H   H3455     1.0  0.35234  0.85326  0.10744  1.0000
  H   H3456     1.0  0.34931  0.85094  0.08983  1.0000
  H   H3457     1.0  0.39310  0.87665  0.06528  1.0000
  H   H3458     1.0  0.41263  0.86641  0.06574  1.0000
  H   H3459     1.0  0.39834  0.86537  0.08349  1.0000
  H   H3460     1.0  0.37797  0.87808  0.04719  1.0000
  H   H3461     1.0  0.36762  0.87979  0.06669  1.0000
  H   H3462     1.0  0.35712  0.87912  0.05354  1.0000
  N   N144      1.0  0.29530  0.87098  0.13364  1.0000
  C   C2050     1.0  0.30797  0.86645  0.14282  1.0000
  C   C2051     1.0  0.28209  0.86269  0.14223  1.0000
  C   C2052     1.0  0.32238  0.87385  0.13512  1.0000
  C   C2053     1.0  0.28661  0.84545  0.15056  1.0000
  H   H3463     1.0  0.28521  0.89124  0.14398  1.0000
  H   H3464     1.0  0.31268  0.85370  0.14544  1.0000
  H   H3465     1.0  0.30302  0.86946  0.15447  1.0000
  H   H3466     1.0  0.27411  0.86870  0.15149  1.0000
  H   H3467     1.0  0.27465  0.86311  0.13421  1.0000
  H   H3468     1.0  0.32814  0.87133  0.12345  1.0000
  H   H3469     1.0  0.33129  0.86880  0.14238  1.0000
  H   H3470     1.0  0.29505  0.83807  0.14286  1.0000
  H   H3471     1.0  0.27589  0.84055  0.15489  1.0000
  H   H3472     1.0  0.29123  0.84432  0.16094  1.0000
  H   H3473     1.0  0.29186  0.87097  0.11114  1.0000
  H   H3474     1.0  0.48403  0.96740  0.19968  1.0000
  H   H3475     1.0  0.39773  0.76372  0.00556  1.0000
  H   H3476     1.0  0.36392  0.78182  0.12938  1.0000
  H   H3477     1.0  0.30770  0.89168  0.20699  1.0000
  H   H3478     1.0  0.22046  0.76224  0.16293  1.0000
  H   H3479     1.0  0.23855  0.88841  0.97969  1.0000
  H   H3480     1.0  0.42998  0.74639  0.02737  1.0000
  Fe  Fe291     1.0  0.41157  0.92049  0.21047  1.0000
  C   C2054     1.0  0.29312  0.96314  0.15368  1.0000
  H   H3481     1.0  0.31281  0.86292  0.21658  1.0000
  C   C2055     1.0  0.40068  0.78916  0.03424  1.0000
  H   H3482     1.0  0.46536  0.75949  0.05929  1.0000
  H   H3483     1.0  0.20057  0.76421  0.17375  1.0000
  C   C2056     1.0  0.46684  0.85513  0.08385  1.0000
  H   H3484     1.0  0.31801  0.76066  0.12385  1.0000
  H   H3485     1.0  0.29230  0.96223  0.20593  1.0000
  H   H3486     1.0  0.34608  0.88752  0.22350  1.0000
  N   N145      1.0  0.19458  0.73869  0.16583  1.0000
  H   H3487     1.0  0.26717  0.76572  0.98905  1.0000
  H   H3488     1.0  0.28303  0.94120  0.21249  1.0000
  C   C2057     1.0  0.30139  0.84090  0.97871  1.0000
  H   H3489     1.0  0.32210  0.75126  0.21909  1.0000
  H   H3490     1.0  0.41162  0.74327  0.12187  1.0000
  H   H3491     1.0  0.47910  0.86766  0.02428  1.0000
  H   H3492     1.0  0.38952  0.77563  0.02641  1.0000
  H   H3493     1.0  0.41242  0.78292  0.03641  1.0000
  H   H3494     1.0  0.34411  0.76831  0.11605  1.0000
  H   H3495     1.0  0.47784  0.92252  0.18740  1.0000
  H   H3496     1.0  0.27511  0.82781  0.01086  1.0000
  C   C2058     1.0  0.38306  0.86867  0.20356  1.0000
  S   S583      1.0  0.49184  0.88887  0.06933  1.0000
  H   H3497     1.0  0.38978  0.86906  0.19137  1.0000
  H   H3498     1.0  0.41217  0.76902  0.98898  1.0000
  H   H3499     1.0  0.46459  0.96309  0.20666  1.0000
  H   H3500     1.0  0.48890  0.76947  0.06391  1.0000
  H   H3501     1.0  0.48240  0.80540  0.00007  1.0000
  H   H3502     1.0  0.48527  0.92966  0.16759  1.0000
  H   H3503     1.0  0.19652  0.73526  0.18972  1.0000
  C   C2059     1.0  0.20846  0.74638  0.15939  1.0000
  C   C2060     1.0  0.47074  0.74692  0.06026  1.0000
  H   H3504     1.0  0.28407  0.95637  0.15573  1.0000
  H   H3505     1.0  0.47126  0.87306  0.04247  1.0000
  S   S584      1.0  0.34957  0.73448  0.05648  1.0000
  Fe  Fe292     1.0  0.46575  0.76113  0.98227  1.0000
  C   C2061     1.0  0.48341  0.94346  0.19935  1.0000
  H   H3506     1.0  0.41541  0.73846  0.99113  1.0000
  S   S585      1.0  0.32685  0.74116  0.16193  1.0000
  H   H3507     1.0  0.27868  0.97747  0.16969  1.0000
  H   H3508     1.0  0.42741  0.74286  0.10475  1.0000
  C   C2062     1.0  0.33209  0.74473  0.21157  1.0000
  H   H3509     1.0  0.29842  0.97960  0.16288  1.0000
  H   H3510     1.0  0.17767  0.75558  0.17808  1.0000
  H   H3511     1.0  0.18105  0.76151  0.15746  1.0000
  C   C2063     1.0  0.35819  0.86321  0.22226  1.0000
  Fe  Fe293     1.0  0.44245  0.91871  0.21825  1.0000
  H   H3512     1.0  0.46408  0.96640  0.18020  1.0000
  H   H3513     1.0  0.36345  0.86939  0.17382  1.0000
  H   H3514     1.0  0.34824  0.73358  0.02627  1.0000
  H   H3515     1.0  0.40415  0.80517  0.99551  1.0000
  C   C2064     1.0  0.47732  0.95828  0.20613  1.0000
  C   C2065     1.0  0.41929  0.88211  0.11195  1.0000
  H   H3516     1.0  0.31262  0.94371  0.20443  1.0000
  C   C2066     1.0  0.34824  0.73807  0.01409  1.0000
  C   C2067     1.0  0.26963  0.89467  0.98651  1.0000
  H   H3517     1.0  0.43815  0.79334  0.99971  1.0000
  C   C2068     1.0  0.41077  0.97968  0.22195  1.0000
  C   C2069     1.0  0.28561  0.94747  0.18681  1.0000
  Fe  Fe294     1.0  0.26698  0.75058  0.17504  1.0000
  N   N146      1.0  0.48259  0.94547  0.18262  1.0000
  H   H3518     1.0  0.43815  0.75165  0.05919  1.0000
  H   H3519     1.0  0.46817  0.95520  0.15586  1.0000
  Fe  Fe295     1.0  0.42318  0.94986  0.20591  1.0000
  H   H3520     1.0  0.31487  0.94333  0.17238  1.0000
  S   S586      1.0  0.46347  0.75805  0.00793  1.0000
  H   H3521     1.0  0.36290  0.78532  0.10919  1.0000
  C   C2070     1.0  0.42732  0.75726  0.06589  1.0000
  C   C2071     1.0  0.31247  0.95265  0.17886  1.0000
  H   H3522     1.0  0.29868  0.92806  0.20189  1.0000
  C   C2072     1.0  0.34850  0.74913  0.98235  1.0000
  H   H3523     1.0  0.40257  0.84866  0.20768  1.0000
  H   H3524     1.0  0.48837  0.84493  0.05312  1.0000
  C   C2073     1.0  0.33452  0.97904  0.14479  1.0000
  C   C2074     1.0  0.42420  0.73841  0.11750  1.0000
  H   H3525     1.0  0.27823  0.78092  0.98312  1.0000
  C   C2075     1.0  0.47890  0.86303  0.08090  1.0000
  H   H3526     1.0  0.28914  0.94020  0.17795  1.0000
  C   C2076     1.0  0.36390  0.87954  0.17795  1.0000
  C   C2077     1.0  0.26879  0.77690  0.98087  1.0000
  H   H3527     1.0  0.34678  0.86037  0.22314  1.0000
  C   C2078     1.0  0.47334  0.78507  0.00287  1.0000
  C   C2079     1.0  0.39873  0.97843  0.17049  1.0000
  H   H3528     1.0  0.45939  0.76896  0.09866  1.0000
  C   C2080     1.0  0.45545  0.77816  0.02737  1.0000
  H   H3529     1.0  0.28369  0.74620  0.97888  1.0000
  H   H3530     1.0  0.15441  0.75350  0.17464  1.0000
  C   C2081     1.0  0.35791  0.87760  0.19572  1.0000
  H   H3531     1.0  0.37753  0.98173  0.18781  1.0000
  C   C2082     1.0  0.26776  0.87971  0.98314  1.0000
  S   S587      1.0  0.39625  0.90770  0.20547  1.0000
  H   H3532     1.0  0.27061  0.90793  0.12464  1.0000
  S   S588      1.0  0.47123  0.81978  0.06986  1.0000
  N   N147      1.0  0.32253  0.79574  0.01976  1.0000
  C   C2083     1.0  0.32311  0.81230  0.01136  1.0000
  C   C2084     1.0  0.30566  0.79493  0.02718  1.0000
  C   C2085     1.0  0.32894  0.78487  0.00862  1.0000
  C   C2086     1.0  0.33242  0.79084  0.03180  1.0000
  C   C2087     1.0  0.33942  0.81519  0.00218  1.0000
  C   C2088     1.0  0.29755  0.80407  0.04020  1.0000
  C   C2089     1.0  0.32187  0.78954  0.99402  1.0000
  C   C2090     1.0  0.33124  0.77504  0.04317  1.0000
  H   H3533     1.0  0.31506  0.81671  0.00320  1.0000
  H   H3534     1.0  0.31881  0.82020  0.01965  1.0000
  H   H3535     1.0  0.30450  0.78262  0.03202  1.0000
  H   H3536     1.0  0.29828  0.79959  0.01834  1.0000
  H   H3537     1.0  0.34190  0.78334  0.00458  1.0000
  H   H3538     1.0  0.32703  0.77297  0.01455  1.0000
  H   H3539     1.0  0.34507  0.78986  0.02611  1.0000
  H   H3540     1.0  0.32962  0.79982  0.03885  1.0000
  H   H3541     1.0  0.34478  0.80820  0.99314  1.0000
  H   H3542     1.0  0.33807  0.82766  0.99608  1.0000
  H   H3543     1.0  0.34753  0.81306  0.01001  1.0000
  H   H3544     1.0  0.29576  0.81681  0.03555  1.0000
  H   H3545     1.0  0.28567  0.80162  0.04545  1.0000
  H   H3546     1.0  0.30383  0.80075  0.04981  1.0000
  S   S589      1.0  0.28249  0.82128  0.98037  1.0000
  H   H3547     1.0  0.40762  0.96860  0.22440  1.0000
  H   H3548     1.0  0.38425  0.83264  0.21612  1.0000
  H   H3549     1.0  0.31945  0.77524  0.05094  1.0000
  H   H3550     1.0  0.33964  0.77241  0.05081  1.0000
  H   H3551     1.0  0.33445  0.76536  0.03703  1.0000
  H   H3552     1.0  0.48819  0.74383  0.07298  1.0000
  N   N148      1.0  0.40912  0.78087  0.00743  1.0000
  H   H3553     1.0  0.36399  0.76316  0.98243  1.0000
  C   C2091     1.0  0.47470  0.79793  0.00755  1.0000
  H   H3554     1.0  0.37901  0.84930  0.18951  1.0000
  H   H3555     1.0  0.20743  0.75473  0.14810  1.0000
  H   H3556     1.0  0.46855  0.85515  0.03997  1.0000
  H   H3557     1.0  0.39249  0.78561  0.04542  1.0000
  C   C2092     1.0  0.45245  0.86319  0.08001  1.0000
  C   C2093     1.0  0.48819  0.74303  0.06108  1.0000
  H   H3558     1.0  0.40986  0.75555  0.03336  1.0000
  Fe  Fe296     1.0  0.46731  0.79738  0.08664  1.0000
  H   H3559     1.0  0.45593  0.74247  0.10148  1.0000
  S   S590      1.0  0.42596  0.97406  0.19325  1.0000
  C   C2094     1.0  0.40263  0.77383  0.99812  1.0000
  H   H3560     1.0  0.40377  0.96724  0.17780  1.0000
  S   S591      1.0  0.43366  0.92830  0.19614  1.0000
  H   H3561     1.0  0.31135  0.97944  0.18741  1.0000
  H   H3562     1.0  0.37902  0.78925  0.99852  1.0000
  N   N149      1.0  0.36752  0.86456  0.20570  1.0000
  H   H3563     1.0  0.18680  0.74841  0.13663  1.0000
  N   N150      1.0  0.29512  0.95981  0.18218  1.0000
  H   H3564     1.0  0.33548  0.76530  0.19333  1.0000
  C   C2095     1.0  0.28678  0.93566  0.20234  1.0000
  H   H3565     1.0  0.27738  0.97425  0.19656  1.0000
  C   C2096     1.0  0.46401  0.77500  0.01293  1.0000
  H   H3566     1.0  0.37058  0.76623  0.11928  1.0000
  C   C2097     1.0  0.38953  0.78481  0.99005  1.0000
  H   H3567     1.0  0.29386  0.78557  0.21124  1.0000
  N   N151      1.0  0.33152  0.78644  0.12877  1.0000
  C   C2098     1.0  0.33265  0.79313  0.14164  1.0000
  C   C2099     1.0  0.33162  0.79917  0.11421  1.0000
  C   C2100     1.0  0.34514  0.77305  0.12561  1.0000
  C   C2101     1.0  0.31657  0.78054  0.13365  1.0000
  C   C2102     1.0  0.33630  0.78127  0.15654  1.0000
  C   C2103     1.0  0.31617  0.81139  0.11345  1.0000
  S   S592      1.0  0.31675  0.91079  0.17677  1.0000
  C   C2104     1.0  0.31326  0.77344  0.12175  1.0000
  H   H3568     1.0  0.34179  0.80019  0.13758  1.0000
  H   H3569     1.0  0.32147  0.80142  0.14529  1.0000
  H   H3570     1.0  0.33489  0.79425  0.10373  1.0000
  H   H3571     1.0  0.34092  0.80564  0.11244  1.0000
  C   C2105     1.0  0.32052  0.94572  0.19288  1.0000
  H   H3572     1.0  0.31664  0.77127  0.14437  1.0000
  H   H3573     1.0  0.30612  0.78964  0.13716  1.0000
  H   H3574     1.0  0.34835  0.77397  0.15451  1.0000
  H   H3575     1.0  0.48973  0.85688  0.08442  1.0000
  H   H3576     1.0  0.40142  0.86468  0.21611  1.0000
  H   H3577     1.0  0.31134  0.81605  0.12416  1.0000
  H   H3578     1.0  0.31828  0.82123  0.10341  1.0000
  H   H3579     1.0  0.30729  0.80645  0.11133  1.0000
  C   C2106     1.0  0.39382  0.91299  0.18623  1.0000
  H   H3580     1.0  0.47662  0.93475  0.20713  1.0000
  H   H3581     1.0  0.31811  0.77868  0.10961  1.0000
  H   H3582     1.0  0.30045  0.77573  0.12264  1.0000
  C   C2107     1.0  0.43010  0.90330  0.11313  1.0000
  C   C2108     1.0  0.30154  0.86811  0.11741  1.0000
  H   H3583     1.0  0.38936  0.73410  0.99196  1.0000
  H   H3584     1.0  0.29776  0.89506  0.12532  1.0000
  C   C2109     1.0  0.31043  0.85149  0.11571  1.0000
  H   H3585     1.0  0.27876  0.92774  0.20433  1.0000
  C   C2110     1.0  0.46887  0.75910  0.10091  1.0000
  H   H3586     1.0  0.43095  0.74317  0.12282  1.0000
  H   H3587     1.0  0.42484  0.88268  0.09939  1.0000
  H   H3588     1.0  0.40229  0.90476  0.10765  1.0000
  H   H3589     1.0  0.39640  0.88836  0.10603  1.0000
  H   H3590     1.0  0.34287  0.74566  0.21445  1.0000
  H   H3591     1.0  0.39537  0.89091  0.12490  1.0000
  C   C2111     1.0  0.42300  0.76884  0.01232  1.0000
  C   C2112     1.0  0.36148  0.77703  0.12065  1.0000
  H   H3592     1.0  0.42753  0.81276  0.99421  1.0000
  H   H3593     1.0  0.37056  0.90865  0.19288  1.0000
  C   C2113     1.0  0.45018  0.87907  0.07302  1.0000
  C   C2114     1.0  0.31668  0.86787  0.20438  1.0000
  H   H3594     1.0  0.32712  0.78035  0.98715  1.0000
  H   H3595     1.0  0.34292  0.96816  0.14442  1.0000
  H   H3596     1.0  0.47895  0.95517  0.21829  1.0000
  H   H3597     1.0  0.31338  0.79009  0.22315  1.0000
  H   H3598     1.0  0.16193  0.75093  0.15532  1.0000
  H   H3599     1.0  0.38149  0.88076  0.20494  1.0000
  H   H3600     1.0  0.31566  0.85666  0.97762  1.0000
  C   C2115     1.0  0.29105  0.97074  0.16742  1.0000
  H   H3601     1.0  0.39326  0.97541  0.16261  1.0000
  C   C2116     1.0  0.42634  0.80113  0.00169  1.0000
  C   C2117     1.0  0.48307  0.76133  0.10209  1.0000
  C   C2118     1.0  0.47676  0.87886  0.07369  1.0000
  S   S593      1.0  0.25053  0.73458  0.17919  1.0000
  H   H3602     1.0  0.45742  0.94938  0.19162  1.0000
  H   H3603     1.0  0.48832  0.96776  0.14988  1.0000
  H   H3604     1.0  0.25779  0.78571  0.98358  1.0000
  H   H3605     1.0  0.37547  0.82443  0.20607  1.0000
  H   H3606     1.0  0.21590  0.74781  0.17987  1.0000
  C   C2119     1.0  0.46601  0.95365  0.18102  1.0000
  H   H3607     1.0  0.32785  0.77360  0.16158  1.0000
  H   H3608     1.0  0.39969  0.80191  0.03213  1.0000
  H   H3609     1.0  0.27293  0.95301  0.18735  1.0000
  S   S594      1.0  0.40019  0.94309  0.21802  1.0000
  S   S595      1.0  0.28492  0.74089  0.18978  1.0000
  H   H3610     1.0  0.35596  0.88978  0.17227  1.0000
  H   H3611     1.0  0.41617  0.74637  0.01685  1.0000
  H   H3612     1.0  0.31904  0.96144  0.17091  1.0000
  H   H3613     1.0  0.34152  0.74772  0.18613  1.0000
  H   H3614     1.0  0.46911  0.74292  0.05053  1.0000
  H   H3615     1.0  0.20756  0.73962  0.13176  1.0000
  H   H3616     1.0  0.46410  0.74059  0.07113  1.0000
  H   H3617     1.0  0.30499  0.95569  0.15093  1.0000
  H   H3618     1.0  0.47923  0.84879  0.97939  1.0000
  S   S596      1.0  0.27409  0.76266  0.22221  1.0000
  Fe  Fe297     1.0  0.39062  0.73499  0.06081  1.0000
  C   C2120     1.0  0.19573  0.73734  0.13773  1.0000
  S   S597      1.0  0.46693  0.90548  0.21969  1.0000
  H   H3619     1.0  0.39370  0.79461  0.98110  1.0000
  C   C2121     1.0  0.29666  0.77785  0.22189  1.0000
  H   H3620     1.0  0.23838  0.86394  0.97922  1.0000
  C   C2122     1.0  0.49277  0.76958  0.05123  1.0000
  C   C2123     1.0  0.16444  0.74697  0.16716  1.0000
  H   H3621     1.0  0.34098  0.98257  0.16427  1.0000
  H   H3622     1.0  0.30589  0.73544  0.21601  1.0000
  H   H3623     1.0  0.16404  0.73455  0.17159  1.0000
  H   H3624     1.0  0.38856  0.85198  0.22532  1.0000
  C   C2124     1.0  0.49249  0.73320  0.10874  1.0000
  Fe  Fe298     1.0  0.32613  0.82892  0.22638  1.0000
  C   C2125     1.0  0.29841  0.98305  0.19083  1.0000
  C   C2126     1.0  0.46732  0.80449  0.37368  1.0000
  Fe  Fe299     1.0  0.27478  0.82689  0.41503  1.0000
  S   S598      1.0  0.29086  0.84329  0.40246  1.0000
  H   H3625     1.0  0.01617  0.87408  0.43629  1.0000
  Fe  Fe300     1.0  0.30447  0.83105  0.42107  1.0000
  S   S599      1.0  0.33059  0.82166  0.41616  1.0000
  Fe  Fe301     1.0  0.38767  0.85589  0.35288  1.0000
  S   S600      1.0  0.37370  0.86724  0.37273  1.0000
  Fe  Fe302     1.0  0.41064  0.85923  0.32174  1.0000
  S   S601      1.0  0.40979  0.83622  0.31807  1.0000
  S   S602      1.0  0.42813  0.87223  0.30486  1.0000
  Fe  Fe303     1.0  0.38377  0.84339  0.32708  1.0000
  S   S603      1.0  0.36257  0.84228  0.31933  1.0000
  Fe  Fe304     1.0  0.41140  0.82779  0.34321  1.0000
  S   S604      1.0  0.42698  0.80507  0.35237  1.0000
  S   S605      1.0  0.38458  0.86722  0.32862  1.0000
  S   S606      1.0  0.41388  0.85035  0.34619  1.0000
  H   H3626     1.0  0.28014  0.79200  0.35625  1.0000
  C   C2127     1.0  0.25694  0.83030  0.25474  1.0000
  H   H3627     1.0  0.36524  0.88165  0.22841  1.0000
  C   C2128     1.0  0.13366  0.82775  0.40385  1.0000
  H   H3628     1.0  0.23400  0.85506  0.34347  1.0000
  H   H3629     1.0  0.08009  0.75279  0.29581  1.0000
  H   H3630     1.0  0.29918  0.82941  0.30668  1.0000
  H   H3631     1.0  0.25073  0.84257  0.25113  1.0000
  S   S607      1.0  0.38523  0.83253  0.35195  1.0000
  H   H3632     1.0  0.32452  0.85576  0.36147  1.0000
  C   C2129     1.0  0.35846  0.82898  0.39974  1.0000
  C   C2130     1.0  0.39947  0.85552  0.40302  1.0000
  H   H3633     1.0  0.06878  0.73889  0.32049  1.0000
  C   C2131     1.0  0.46800  0.91779  0.24340  1.0000
  S   S608      1.0  0.14470  0.76915  0.30967  1.0000
  C   C2132     1.0  0.16622  0.86230  0.38324  1.0000
  H   H3634     1.0  0.02701  0.87871  0.40469  1.0000
  N   N152      1.0  0.14801  0.84749  0.40615  1.0000
  H   H3635     1.0  0.47862  0.86824  0.33526  1.0000
  S   S609      1.0  0.07286  0.75160  0.34564  1.0000
  H   H3636     1.0  0.23576  0.96135  0.42560  1.0000
  S   S610      1.0  0.10578  0.75900  0.30786  1.0000
  Fe  Fe305     1.0  0.02471  0.82259  0.37823  1.0000
  Fe  Fe306     1.0  0.48075  0.85822  0.38430  1.0000
  H   H3637     1.0  0.38584  0.97469  0.29143  1.0000
  Fe  Fe307     1.0  0.02548  0.85626  0.36241  1.0000
  S   S611      1.0  0.01249  0.85636  0.34465  1.0000
  S   S612      1.0  0.03252  0.87813  0.36249  1.0000
  H   H3638     1.0  0.03951  0.84636  0.44984  1.0000
  H   H3639     1.0  0.25192  0.86078  0.33387  1.0000
  Fe  Fe308     1.0  0.02796  0.83254  0.34376  1.0000
  S   S613      1.0  0.04116  0.82229  0.32299  1.0000
  C   C2133     1.0  0.01430  0.76643  0.41850  1.0000
  S   S614      1.0  0.04241  0.83371  0.35950  1.0000
  S   S615      1.0  0.47313  0.90047  0.28795  1.0000
  C   C2134     1.0  0.48908  0.82386  0.32430  1.0000
  H   H3640     1.0  0.26052  0.97024  0.44685  1.0000
  C   C2135     1.0  0.48182  0.84072  0.32663  1.0000
  C   C2136     1.0  0.46965  0.90629  0.38002  1.0000
  Fe  Fe309     1.0  0.41169  0.93211  0.23827  1.0000
  S   S616      1.0  0.39849  0.93390  0.26249  1.0000
  C   C2137     1.0  0.48821  0.90118  0.41783  1.0000
  H   H3641     1.0  0.43078  0.97533  0.30528  1.0000
  S   S617      1.0  0.48160  0.84779  0.36469  1.0000
  H   H3642     1.0  0.22792  0.80085  0.25927  1.0000
  Fe  Fe310     1.0  0.32517  0.79815  0.24941  1.0000
  S   S618      1.0  0.30633  0.81754  0.24064  1.0000
  S   S619      1.0  0.32479  0.77313  0.25143  1.0000
  Fe  Fe311     1.0  0.34302  0.82046  0.25298  1.0000
  S   S620      1.0  0.32551  0.84156  0.24439  1.0000
  S   S621      1.0  0.36554  0.82330  0.25690  1.0000
  Fe  Fe312     1.0  0.30748  0.82805  0.25965  1.0000
  S   S622      1.0  0.28548  0.84018  0.27408  1.0000
  H   H3643     1.0  0.29682  0.82986  0.46845  1.0000
  H   H3644     1.0  0.27320  0.82475  0.32124  1.0000
  S   S623      1.0  0.32498  0.80776  0.26967  1.0000
  S   S624      1.0  0.46705  0.97714  0.28855  1.0000
  S   S625      1.0  0.20361  0.95865  0.40563  1.0000
  H   H3645     1.0  0.48471  0.89954  0.43073  1.0000
  Fe  Fe313     1.0  0.16702  0.93562  0.45286  1.0000
  S   S626      1.0  0.14363  0.93133  0.45381  1.0000
  S   S627      1.0  0.19038  0.92434  0.43996  1.0000
  Fe  Fe314     1.0  0.20046  0.82449  0.36254  1.0000
  S   S628      1.0  0.21350  0.83361  0.33862  1.0000
  S   S629      1.0  0.20227  0.83420  0.38200  1.0000
  Fe  Fe315     1.0  0.18616  0.80402  0.35118  1.0000
  S   S630      1.0  0.19861  0.81131  0.32639  1.0000
  S   S631      1.0  0.16916  0.78766  0.35939  1.0000
  Fe  Fe316     1.0  0.21950  0.80888  0.33609  1.0000
  S   S632      1.0  0.24416  0.79724  0.32586  1.0000
  Fe  Fe317     1.0  0.19146  0.83537  0.33119  1.0000
  S   S633      1.0  0.18271  0.85508  0.31261  1.0000
  S   S634      1.0  0.20783  0.79942  0.36070  1.0000
  S   S635      1.0  0.17761  0.82842  0.35537  1.0000
  Fe  Fe318     1.0  0.10033  0.89881  0.38344  1.0000
  S   S636      1.0  0.09708  0.92062  0.36472  1.0000
  S   S637      1.0  0.08920  0.87776  0.39055  1.0000
  Fe  Fe319     1.0  0.12919  0.90571  0.38923  1.0000
  S   S638      1.0  0.12852  0.92780  0.37097  1.0000
  S   S639      1.0  0.14913  0.89605  0.40176  1.0000
  Fe  Fe320     1.0  0.10256  0.93233  0.38069  1.0000
  S   S640      1.0  0.08982  0.95606  0.38583  1.0000
  Fe  Fe321     1.0  0.12331  0.91437  0.35663  1.0000
  S   S641      1.0  0.13482  0.91531  0.33143  1.0000
  S   S642      1.0  0.10356  0.91094  0.40027  1.0000
  S   S643      1.0  0.12614  0.89194  0.37398  1.0000
  C   C2138     1.0  0.40834  0.95887  0.28580  1.0000
  H   H3646     1.0  0.11369  0.96265  0.35786  1.0000
  H   H3647     1.0  0.13640  0.87159  0.40034  1.0000
  C   C2139     1.0  0.16995  0.87180  0.31837  1.0000
  C   C2140     1.0  0.16384  0.88393  0.30704  1.0000
  C   C2141     1.0  0.15327  0.89727  0.31121  1.0000
  C   C2142     1.0  0.14871  0.89862  0.32674  1.0000
  C   C2143     1.0  0.15507  0.88663  0.33810  1.0000
  C   C2144     1.0  0.16564  0.87317  0.33393  1.0000
  H   H3648     1.0  0.16720  0.88294  0.29500  1.0000
  H   H3649     1.0  0.14851  0.90652  0.30236  1.0000
  H   H3650     1.0  0.15216  0.88782  0.34999  1.0000
  H   H3651     1.0  0.17054  0.86395  0.34269  1.0000
  C   C2145     1.0  0.14456  0.92021  0.44065  1.0000
  C   C2146     1.0  0.13200  0.92327  0.43341  1.0000
  C   C2147     1.0  0.13333  0.91587  0.42144  1.0000
  C   C2148     1.0  0.14697  0.90493  0.41714  1.0000
  C   C2149     1.0  0.15920  0.90124  0.42497  1.0000
  C   C2150     1.0  0.15808  0.90900  0.43660  1.0000
  H   H3652     1.0  0.12147  0.93182  0.43665  1.0000
  H   H3653     1.0  0.12381  0.91874  0.41551  1.0000
  H   H3654     1.0  0.16957  0.89248  0.42201  1.0000
  H   H3655     1.0  0.16759  0.90626  0.44250  1.0000
  H   H3656     1.0  0.25686  0.78899  0.23512  1.0000
  H   H3657     1.0  0.00654  0.77199  0.38293  1.0000
  N   N153      1.0  0.41592  0.85294  0.39311  1.0000
  H   H3658     1.0  0.04000  0.86142  0.42209  1.0000
  H   H3659     1.0  0.06500  0.78864  0.26944  1.0000
  C   C2151     1.0  0.16148  0.95439  0.35963  1.0000
  C   C2152     1.0  0.27420  0.82815  0.28858  1.0000
  C   C2153     1.0  0.28053  0.81237  0.29386  1.0000
  C   C2154     1.0  0.27123  0.80299  0.30538  1.0000
  C   C2155     1.0  0.25555  0.80932  0.31161  1.0000
  C   C2156     1.0  0.24921  0.82509  0.30630  1.0000
  C   C2157     1.0  0.25857  0.83452  0.29494  1.0000
  H   H3660     1.0  0.29258  0.80737  0.28906  1.0000
  H   H3661     1.0  0.27617  0.79077  0.30941  1.0000
  H   H3662     1.0  0.23706  0.83002  0.31078  1.0000
  H   H3663     1.0  0.25359  0.84671  0.29084  1.0000
  H   H3664     1.0  0.24631  0.78999  0.28479  1.0000
  H   H3665     1.0  0.16538  0.95890  0.34693  1.0000
  H   H3666     1.0  0.39150  0.86970  0.24591  1.0000
  C   C2158     1.0  0.02998  0.77391  0.30250  1.0000
  C   C2159     1.0  0.02320  0.77765  0.41519  1.0000
  C   C2160     1.0  0.47227  0.88880  0.26395  1.0000
  C   C2161     1.0  0.47113  0.88981  0.24875  1.0000
  C   C2162     1.0  0.28896  0.76555  0.22924  1.0000
  H   H3667     1.0  0.46268  0.88438  0.33165  1.0000
  C   C2163     1.0  0.27884  0.79501  0.26630  1.0000
  H   H3668     1.0  0.47156  0.87940  0.24508  1.0000
  H   H3669     1.0  0.37652  0.85955  0.24985  1.0000
  S   S644      1.0  0.03361  0.80343  0.39722  1.0000
  H   H3670     1.0  0.27920  0.90335  0.46065  1.0000
  C   C2164     1.0  0.41582  0.82359  0.40051  1.0000
  H   H3671     1.0  0.42301  0.84748  0.41521  1.0000
  H   H3672     1.0  0.04062  0.74507  0.38474  1.0000
  C   C2165     1.0  0.12964  0.95771  0.40603  1.0000
  H   H3673     1.0  0.44814  0.83684  0.30753  1.0000
  H   H3674     1.0  0.04497  0.76269  0.26178  1.0000
  H   H3675     1.0  0.00020  0.83976  0.43766  1.0000
  C   C2166     1.0  0.04791  0.87779  0.37091  1.0000
  C   C2167     1.0  0.05574  0.86398  0.37928  1.0000
  C   C2168     1.0  0.06815  0.86418  0.38556  1.0000
  C   C2169     1.0  0.07295  0.87814  0.38334  1.0000
  C   C2170     1.0  0.06502  0.89195  0.37512  1.0000
  C   C2171     1.0  0.05247  0.89178  0.36902  1.0000
  H   H3676     1.0  0.05227  0.85316  0.38080  1.0000
  H   H3677     1.0  0.07424  0.85346  0.39194  1.0000
  H   H3678     1.0  0.06855  0.90277  0.37341  1.0000
  H   H3679     1.0  0.04640  0.90251  0.36263  1.0000
  N   N154      1.0  0.25068  0.80290  0.26088  1.0000
  C   C2172     1.0  0.15087  0.77448  0.32378  1.0000
  C   C2173     1.0  0.16273  0.78294  0.31879  1.0000
  C   C2174     1.0  0.16827  0.78717  0.32958  1.0000
  C   C2175     1.0  0.16200  0.78298  0.34551  1.0000
  C   C2176     1.0  0.15002  0.77458  0.35054  1.0000
  C   C2177     1.0  0.14442  0.77038  0.33971  1.0000
  H   H3680     1.0  0.16772  0.78622  0.30649  1.0000
  H   H3681     1.0  0.17747  0.79360  0.32552  1.0000
  H   H3682     1.0  0.14507  0.77138  0.36284  1.0000
  H   H3683     1.0  0.13511  0.76407  0.34364  1.0000
  C   C2178     1.0  0.06417  0.77139  0.33980  1.0000
  C   C2179     1.0  0.04804  0.77675  0.34502  1.0000
  C   C2180     1.0  0.04093  0.79243  0.33997  1.0000
  C   C2181     1.0  0.04992  0.80275  0.32963  1.0000
  C   C2182     1.0  0.06606  0.79742  0.32462  1.0000
  C   C2183     1.0  0.07319  0.78183  0.32986  1.0000
  H   H3684     1.0  0.04101  0.76879  0.35287  1.0000
  H   H3685     1.0  0.02844  0.79646  0.34382  1.0000
  H   H3686     1.0  0.07311  0.80545  0.31692  1.0000
  H   H3687     1.0  0.08573  0.77808  0.32649  1.0000
  H   H3688     1.0  0.45932  0.82735  0.32201  1.0000
  C   C2184     1.0  0.29241  0.75579  0.24315  1.0000
  C   C2185     1.0  0.30368  0.75804  0.24959  1.0000
  C   C2186     1.0  0.31117  0.77047  0.24252  1.0000
  H   H3689     1.0  0.13366  0.96110  0.38169  1.0000
  S   S645      1.0  0.48829  0.83555  0.40024  1.0000
  H   H3690     1.0  0.15152  0.97759  0.36349  1.0000
  H   H3691     1.0  0.41841  0.92780  0.29842  1.0000
  C   C2187     1.0  0.22858  0.81142  0.28376  1.0000
  C   C2188     1.0  0.14111  0.95586  0.39036  1.0000
  H   H3692     1.0  0.04695  0.78304  0.30771  1.0000
  H   H3693     1.0  0.01457  0.85769  0.45150  1.0000
  H   H3694     1.0  0.10134  0.73504  0.38880  1.0000
  C   C2189     1.0  0.48466  0.91353  0.35372  1.0000
  H   H3695     1.0  0.26813  0.78127  0.25885  1.0000
  H   H3696     1.0  0.44455  0.82979  0.40151  1.0000
  H   H3697     1.0  0.24433  0.85007  0.32498  1.0000
  H   H3698     1.0  0.26948  0.97440  0.46688  1.0000
  H   H3699     1.0  0.06507  0.79870  0.29264  1.0000
  H   H3700     1.0  0.49039  0.82219  0.31249  1.0000
  H   H3701     1.0  0.15721  0.87314  0.38099  1.0000
  Fe  Fe322     1.0  0.27635  0.85798  0.41953  1.0000
  H   H3702     1.0  0.03836  0.74003  0.40535  1.0000
  H   H3703     1.0  0.02549  0.77391  0.29241  1.0000
  Fe  Fe323     1.0  0.18062  0.95792  0.46146  1.0000
  C   C2190     1.0  0.13342  0.85997  0.40431  1.0000
  H   H3704     1.0  0.24774  0.96332  0.46451  1.0000
  H   H3705     1.0  0.99678  0.81070  0.41343  1.0000
  H   H3706     1.0  0.10875  0.86560  0.41586  1.0000
  C   C2191     1.0  0.36378  0.83666  0.30207  1.0000
  C   C2192     1.0  0.34984  0.83798  0.29755  1.0000
  C   C2193     1.0  0.35025  0.83366  0.28385  1.0000
  C   C2194     1.0  0.36464  0.82808  0.27453  1.0000
  C   C2195     1.0  0.37860  0.82675  0.27905  1.0000
  C   C2196     1.0  0.37820  0.83102  0.29280  1.0000
  C   C2197     1.0  0.47158  0.90223  0.26885  1.0000
  H   H3707     1.0  0.38977  0.82234  0.27190  1.0000
  H   H3708     1.0  0.38900  0.82987  0.29625  1.0000
  C   C2198     1.0  0.42016  0.89028  0.29411  1.0000
  C   C2199     1.0  0.42897  0.89612  0.27960  1.0000
  C   C2200     1.0  0.42244  0.90980  0.27006  1.0000
  C   C2201     1.0  0.40715  0.91783  0.27515  1.0000
  C   C2202     1.0  0.39853  0.91241  0.28999  1.0000
  C   C2203     1.0  0.40502  0.89854  0.29946  1.0000
  H   H3709     1.0  0.44067  0.88975  0.27550  1.0000
  H   H3710     1.0  0.42928  0.91406  0.25874  1.0000
  H   H3711     1.0  0.38673  0.91870  0.29397  1.0000
  H   H3712     1.0  0.39831  0.89422  0.31082  1.0000
  C   C2204     1.0  0.44767  0.81882  0.35836  1.0000
  C   C2205     1.0  0.44252  0.80519  0.36035  1.0000
  H   H3713     1.0  0.15302  0.84698  0.38170  1.0000
  H   H3714     1.0  0.44224  0.82961  0.35161  1.0000
  C   C2206     1.0  0.24971  0.81936  0.39616  1.0000
  C   C2207     1.0  0.24638  0.81127  0.38692  1.0000
  C   C2208     1.0  0.23188  0.81576  0.38248  1.0000
  C   C2209     1.0  0.22047  0.82817  0.38757  1.0000
  C   C2210     1.0  0.22357  0.83595  0.39724  1.0000
  C   C2211     1.0  0.23820  0.83162  0.40146  1.0000
  C   C2212     1.0  0.30760  0.78046  0.22868  1.0000
  H   H3715     1.0  0.22952  0.80954  0.37521  1.0000
  H   H3716     1.0  0.21462  0.84532  0.40145  1.0000
  H   H3717     1.0  0.24054  0.83758  0.40894  1.0000
  C   C2213     1.0  0.24020  0.88417  0.45633  1.0000
  H   H3718     1.0  0.40307  0.82373  0.40450  1.0000
  H   H3719     1.0  0.39114  0.85229  0.26135  1.0000
  H   H3720     1.0  0.25866  0.86768  0.44520  1.0000
  C   C2214     1.0  0.34248  0.83485  0.40528  1.0000
  C   C2215     1.0  0.33621  0.85086  0.40134  1.0000
  C   C2216     1.0  0.34593  0.86093  0.39171  1.0000
  C   C2217     1.0  0.36177  0.85493  0.38572  1.0000
  C   C2218     1.0  0.36803  0.83896  0.38983  1.0000
  C   C2219     1.0  0.32423  0.84332  0.36677  1.0000
  H   H3721     1.0  0.32388  0.85544  0.40559  1.0000
  H   H3722     1.0  0.34106  0.87330  0.38854  1.0000
  C   C2220     1.0  0.02070  0.78430  0.38843  1.0000
  H   H3723     1.0  0.30879  0.86706  0.45599  1.0000
  C   C2221     1.0  0.46960  0.91672  0.25849  1.0000
  H   H3724     1.0  0.41378  0.87767  0.38275  1.0000
  H   H3725     1.0  0.25352  0.81931  0.23873  1.0000
  H   H3726     1.0  0.12191  0.86933  0.42533  1.0000
  Fe  Fe324     1.0  0.19409  0.94870  0.43054  1.0000
  H   H3727     1.0  0.27412  0.84442  0.31756  1.0000
  H   H3728     1.0  0.42147  0.81295  0.39570  1.0000
  H   H3729     1.0  0.13897  0.82943  0.42484  1.0000
  H   H3730     1.0  0.32631  0.84114  0.37860  1.0000
  H   H3731     1.0  0.17355  0.86364  0.39043  1.0000
  C   C2222     1.0  0.15905  0.84779  0.39041  1.0000
  H   H3732     1.0  0.24881  0.83412  0.35767  1.0000
  C   C2223     1.0  0.34755  0.81163  0.37596  1.0000
  C   C2224     1.0  0.14435  0.83150  0.41217  1.0000
  H   H3733     1.0  0.38029  0.83428  0.38541  1.0000
  S   S646      1.0  0.26863  0.81431  0.40014  1.0000
  H   H3734     1.0  0.29072  0.81501  0.35074  1.0000
  S   S647      1.0  0.34496  0.80870  0.23381  1.0000
  H   H3735     1.0  0.11969  0.84984  0.42738  1.0000
  H   H3736     1.0  0.35941  0.78671  0.37781  1.0000
  C   C2225     1.0  0.05029  0.77014  0.26565  1.0000
  H   H3737     1.0  0.05588  0.74008  0.30862  1.0000
  H   H3738     1.0  0.23616  0.82517  0.25182  1.0000
  C   C2226     1.0  0.24876  0.81935  0.25131  1.0000
  H   H3739     1.0  0.42072  0.82255  0.41066  1.0000
  H   H3740     1.0  0.34101  0.81854  0.38476  1.0000
  C   C2227     1.0  0.49129  0.86634  0.42052  1.0000
  H   H3741     1.0  0.24115  0.78273  0.26395  1.0000
  S   S648      1.0  0.48324  0.80336  0.38178  1.0000
  H   H3742     1.0  0.21982  0.91979  0.38568  1.0000
  H   H3743     1.0  0.48046  0.88270  0.31734  1.0000
  C   C2228     1.0  0.47846  0.91629  0.36876  1.0000
  C   C2229     1.0  0.09040  0.73530  0.38554  1.0000
  C   C2230     1.0  0.01320  0.83767  0.43580  1.0000
  H   H3744     1.0  0.12057  0.95091  0.40813  1.0000
  S   S649      1.0  0.47056  0.93320  0.31053  1.0000
  H   H3745     1.0  0.20191  0.92963  0.39589  1.0000
  H   H3746     1.0  0.17236  0.73903  0.31299  1.0000
  H   H3747     1.0  0.48750  0.78267  0.34980  1.0000
  H   H3748     1.0  0.46279  0.85688  0.29589  1.0000
  Fe  Fe325     1.0  0.11306  0.73654  0.29986  1.0000
  C   C2231     1.0  0.48667  0.91878  0.41078  1.0000
  H   H3749     1.0  0.17031  0.94372  0.36296  1.0000
  H   H3750     1.0  0.29969  0.88634  0.47228  1.0000
  H   H3751     1.0  0.36942  0.91382  0.25445  1.0000
  C   C2232     1.0  0.17459  0.74032  0.36739  1.0000
  H   H3752     1.0  0.46038  0.87519  0.30925  1.0000
  H   H3753     1.0  0.25018  0.97222  0.42349  1.0000
  C   C2233     1.0  0.03979  0.73830  0.44375  1.0000
  H   H3754     1.0  0.01243  0.75900  0.42989  1.0000
  S   S650      1.0  0.21672  0.90531  0.47031  1.0000
  H   H3755     1.0  0.17191  0.94090  0.38694  1.0000
  S   S651      1.0  0.00869  0.84522  0.38262  1.0000
  H   H3756     1.0  0.21946  0.80631  0.28239  1.0000
  C   C2234     1.0  0.06026  0.74719  0.31379  1.0000
  H   H3757     1.0  0.01578  0.81427  0.43279  1.0000
  C   C2235     1.0  0.15521  0.85070  0.41759  1.0000
  C   C2236     1.0  0.27470  0.80261  0.34854  1.0000
  H   H3758     1.0  0.22250  0.97981  0.47328  1.0000
  H   H3759     1.0  0.45071  0.96891  0.25394  1.0000
  C   C2237     1.0  0.00738  0.76517  0.40721  1.0000
  H   H3760     1.0  0.04853  0.75321  0.28723  1.0000
  H   H3761     1.0  0.41992  0.95910  0.25643  1.0000
  H   H3762     1.0  0.17410  0.86094  0.37178  1.0000
  H   H3763     1.0  0.46292  0.98051  0.31987  1.0000
  C   C2238     1.0  0.48153  0.90122  0.34972  1.0000
  C   C2239     1.0  0.46804  0.84702  0.30456  1.0000
  C   C2240     1.0  0.35018  0.79440  0.38474  1.0000
  H   H3764     1.0  0.04119  0.78069  0.26790  1.0000
  C   C2241     1.0  0.23109  0.89937  0.45458  1.0000
  C   C2242     1.0  0.25172  0.87947  0.44374  1.0000
  H   H3765     1.0  0.15535  0.82229  0.41115  1.0000
  H   H3766     1.0  0.22644  0.92156  0.43870  1.0000
  H   H3767     1.0  0.45163  0.84447  0.40512  1.0000
  C   C2243     1.0  0.05681  0.76072  0.28017  1.0000
  H   H3768     1.0  0.35919  0.81491  0.37210  1.0000
  H   H3769     1.0  0.34792  0.83722  0.35393  1.0000
  N   N155      1.0  0.10453  0.86961  0.34062  1.0000
  C   C2244     1.0  0.08744  0.87154  0.34065  1.0000
  C   C2245     1.0  0.10632  0.88472  0.34288  1.0000
  C   C2246     1.0  0.10853  0.85644  0.35407  1.0000
  C   C2247     1.0  0.11412  0.86586  0.32528  1.0000
  C   C2248     1.0  0.08211  0.85661  0.34155  1.0000
  C   C2249     1.0  0.10261  0.89919  0.32993  1.0000
  C   C2250     1.0  0.12278  0.85607  0.36033  1.0000
  C   C2251     1.0  0.13191  0.86486  0.32185  1.0000
  H   H3770     1.0  0.07975  0.87660  0.35059  1.0000
  H   H3771     1.0  0.08424  0.87991  0.33003  1.0000
  H   H3772     1.0  0.11832  0.88411  0.34400  1.0000
  H   H3773     1.0  0.09864  0.88729  0.35410  1.0000
  H   H3774     1.0  0.09849  0.85671  0.36435  1.0000
  H   H3775     1.0  0.11051  0.84495  0.35104  1.0000
  H   H3776     1.0  0.11297  0.85439  0.32431  1.0000
  H   H3777     1.0  0.10950  0.87414  0.31529  1.0000
  H   H3778     1.0  0.08306  0.84804  0.35267  1.0000
  H   H3779     1.0  0.06947  0.85982  0.34114  1.0000
  H   H3780     1.0  0.08851  0.85106  0.33159  1.0000
  H   H3781     1.0  0.10439  0.90946  0.33290  1.0000
  H   H3782     1.0  0.11067  0.89797  0.31856  1.0000
  H   H3783     1.0  0.09022  0.90203  0.32891  1.0000
  H   H3784     1.0  0.12541  0.84482  0.36870  1.0000
  H   H3785     1.0  0.11999  0.86537  0.36688  1.0000
  H   H3786     1.0  0.13357  0.85701  0.35122  1.0000
  H   H3787     1.0  0.13832  0.85289  0.32632  1.0000
  H   H3788     1.0  0.13499  0.87325  0.32647  1.0000
  H   H3789     1.0  0.13644  0.86801  0.30908  1.0000
  C   C2252     1.0  0.45993  0.81849  0.36515  1.0000
  S   S652      1.0  0.11925  0.73970  0.33952  1.0000
  C   C2253     1.0  0.07060  0.78057  0.27890  1.0000
  C   C2254     1.0  0.25079  0.97416  0.45636  1.0000
  C   C2255     1.0  0.15133  0.97792  0.39161  1.0000
  N   N156      1.0  0.42552  0.95789  0.27837  1.0000
  C   C2256     1.0  0.42667  0.96456  0.26115  1.0000
  S   S653      1.0  0.46153  0.87801  0.39108  1.0000
  C   C2257     1.0  0.43441  0.94108  0.28038  1.0000
  C   C2258     1.0  0.43279  0.96734  0.28441  1.0000
  C   C2259     1.0  0.44339  0.96291  0.25077  1.0000
  C   C2260     1.0  0.26752  0.79399  0.25701  1.0000
  C   C2261     1.0  0.43025  0.93012  0.29634  1.0000
  C   C2262     1.0  0.43077  0.96440  0.30220  1.0000
  H   H3790     1.0  0.14874  0.73817  0.35740  1.0000
  H   H3791     1.0  0.05583  0.73460  0.47378  1.0000
  H   H3792     1.0  0.48075  0.92598  0.37172  1.0000
  C   C2263     1.0  0.11167  0.97138  0.36452  1.0000
  H   H3793     1.0  0.43268  0.93551  0.27176  1.0000
  H   H3794     1.0  0.44725  0.94035  0.27799  1.0000
  H   H3795     1.0  0.44566  0.96523  0.27965  1.0000
  H   H3796     1.0  0.40329  0.95236  0.28047  1.0000
  H   H3797     1.0  0.42137  0.97726  0.25892  1.0000
  H   H3798     1.0  0.26599  0.89285  0.45974  1.0000
  H   H3799     1.0  0.17158  0.97064  0.36440  1.0000
  H   H3800     1.0  0.48633  0.89904  0.33812  1.0000
  H   H3801     1.0  0.34875  0.87484  0.24163  1.0000
  C   C2264     1.0  0.02010  0.82498  0.42618  1.0000
  H   H3802     1.0  0.08338  0.78467  0.29425  1.0000
  H   H3803     1.0  0.43862  0.91863  0.29636  1.0000
  C   C2265     1.0  0.06867  0.75930  0.30165  1.0000
  S   S654      1.0  0.17545  0.93456  0.47402  1.0000
  H   H3804     1.0  0.41957  0.96132  0.30904  1.0000
  H   H3805     1.0  0.36398  0.85340  0.23045  1.0000
  H   H3806     1.0  0.06343  0.74980  0.47566  1.0000
  Fe  Fe326     1.0  0.99676  0.84366  0.36476  1.0000
  S   S655      1.0  0.42144  0.90893  0.23174  1.0000
  Fe  Fe327     1.0  0.47978  0.95231  0.29209  1.0000
  C   C2266     1.0  0.46888  0.90430  0.23850  1.0000
  H   H3807     1.0  0.04210  0.82854  0.44348  1.0000
  C   C2267     1.0  0.45477  0.83888  0.31503  1.0000
  H   H3808     1.0  0.46906  0.92710  0.26216  1.0000
  H   H3809     1.0  0.02069  0.78172  0.30935  1.0000
  C   C2268     1.0  0.24427  0.79369  0.23951  1.0000
  C   C2269     1.0  0.04382  0.84066  0.43977  1.0000
  H   H3810     1.0  0.40638  0.95308  0.29828  1.0000
  H   H3811     1.0  0.47347  0.87760  0.27194  1.0000
  C   C2270     1.0  0.03629  0.85009  0.42586  1.0000
  C   C2271     1.0  0.25788  0.98180  0.46509  1.0000
  H   H3812     1.0  0.39876  0.88720  0.25222  1.0000
  H   H3813     1.0  0.01560  0.83260  0.44766  1.0000
  C   C2272     1.0  0.24537  0.80231  0.27815  1.0000
  H   H3814     1.0  0.02372  0.79072  0.37666  1.0000
  H   H3815     1.0  0.42878  0.98009  0.27998  1.0000
  H   H3816     1.0  0.17058  0.74486  0.33795  1.0000
  H   H3817     1.0  0.15008  0.95133  0.36121  1.0000
  H   H3818     1.0  0.47164  0.84003  0.33669  1.0000
  H   H3819     1.0  0.17508  0.84324  0.42875  1.0000
  H   H3820     1.0  0.07160  0.76588  0.30856  1.0000
  H   H3821     1.0  0.27293  0.79772  0.24447  1.0000
  N   N157      1.0  0.05987  0.77022  0.28968  1.0000
  H   H3822     1.0  0.26199  0.80269  0.35132  1.0000
  C   C2273     1.0  0.27711  0.84495  0.34583  1.0000
  H   H3823     1.0  0.16896  0.83741  0.39076  1.0000
  C   C2274     1.0  0.23345  0.90982  0.44019  1.0000
  Fe  Fe328     1.0  0.27532  0.83109  0.44711  1.0000
  C   C2275     1.0  0.39328  0.87124  0.40813  1.0000
  H   H3824     1.0  0.46781  0.77997  0.38212  1.0000
  H   H3825     1.0  0.17998  0.95597  0.38730  1.0000
  C   C2276     1.0  0.38392  0.86304  0.25553  1.0000
  S   S656      1.0  0.28941  0.81356  0.43267  1.0000
  H   H3826     1.0  0.18084  0.74025  0.37627  1.0000
  C   C2277     1.0  0.17096  0.83967  0.42019  1.0000
  H   H3827     1.0  0.27405  0.85777  0.36365  1.0000
  H   H3828     1.0  0.43717  0.85516  0.36316  1.0000
  C   C2278     1.0  0.25415  0.83549  0.34502  1.0000
  S   S657      1.0  0.25904  0.84269  0.43062  1.0000
  H   H3829     1.0  0.14747  0.97591  0.40444  1.0000
  C   C2279     1.0  0.24495  0.90513  0.42760  1.0000
  H   H3830     1.0  0.38592  0.91151  0.23890  1.0000
  C   C2280     1.0  0.42739  0.85226  0.40263  1.0000
  H   H3831     1.0  0.33865  0.84241  0.30463  1.0000
  H   H3832     1.0  0.27271  0.81690  0.36427  1.0000
  H   H3833     1.0  0.16982  0.82742  0.42502  1.0000
  S   S658      1.0  0.29161  0.84750  0.43685  1.0000
  H   H3834     1.0  0.27993  0.80120  0.33642  1.0000
  C   C2281     1.0  0.46558  0.86663  0.31878  1.0000
  N   N158      1.0  0.38043  0.88238  0.27293  1.0000
  C   C2282     1.0  0.36749  0.89215  0.28286  1.0000
  C   C2283     1.0  0.38855  0.89345  0.25972  1.0000
  C   C2284     1.0  0.39173  0.87206  0.28298  1.0000
  C   C2285     1.0  0.37309  0.87267  0.26731  1.0000
  C   C2286     1.0  0.35825  0.88307  0.29776  1.0000
  C   C2287     1.0  0.01396  0.85978  0.41332  1.0000
  C   C2288     1.0  0.40892  0.86666  0.27467  1.0000
  H   H3835     1.0  0.17494  0.97992  0.39194  1.0000
  H   H3836     1.0  0.37229  0.90027  0.28646  1.0000
  H   H3837     1.0  0.35852  0.89964  0.27623  1.0000
  C   C2289     1.0  0.47242  0.87583  0.32616  1.0000
  H   H3838     1.0  0.39362  0.90050  0.26439  1.0000
  H   H3839     1.0  0.39246  0.87809  0.29169  1.0000
  H   H3840     1.0  0.38745  0.86139  0.28998  1.0000
  H   H3841     1.0  0.36811  0.86400  0.27727  1.0000
  H   H3842     1.0  0.36266  0.87972  0.26255  1.0000
  H   H3843     1.0  0.34990  0.89148  0.30456  1.0000
  H   H3844     1.0  0.35117  0.87641  0.29510  1.0000
  H   H3845     1.0  0.36595  0.87509  0.30544  1.0000
  H   H3846     1.0  0.44936  0.95055  0.25093  1.0000
  H   H3847     1.0  0.37271  0.89890  0.24349  1.0000
  H   H3848     1.0  0.03136  0.76210  0.31001  1.0000
  H   H3849     1.0  0.41008  0.86101  0.26509  1.0000
  H   H3850     1.0  0.41536  0.85807  0.28325  1.0000
  H   H3851     1.0  0.41497  0.87654  0.27015  1.0000
  H   H3852     1.0  0.22664  0.81078  0.29643  1.0000
  H   H3853     1.0  0.49047  0.84436  0.33065  1.0000
  S   S659      1.0  0.48922  0.93846  0.27355  1.0000
  N   N159      1.0  0.33966  0.81572  0.36244  1.0000
  C   C2290     1.0  0.35130  0.80836  0.34969  1.0000
  C   C2291     1.0  0.33680  0.83316  0.35636  1.0000
  C   C2292     1.0  0.32479  0.80981  0.36638  1.0000
  C   C2293     1.0  0.34508  0.80895  0.33538  1.0000
  C   C2294     1.0  0.31308  0.81210  0.38193  1.0000
  H   H3854     1.0  0.36177  0.81373  0.34539  1.0000
  H   H3855     1.0  0.35596  0.79580  0.35410  1.0000
  H   H3856     1.0  0.33318  0.83660  0.34507  1.0000
  H   H3857     1.0  0.31819  0.81531  0.35693  1.0000
  H   H3858     1.0  0.32771  0.79707  0.36666  1.0000
  H   H3859     1.0  0.35512  0.80464  0.32634  1.0000
  H   H3860     1.0  0.33672  0.80120  0.33833  1.0000
  H   H3861     1.0  0.33954  0.82082  0.32990  1.0000
  H   H3862     1.0  0.33927  0.78995  0.38876  1.0000
  H   H3863     1.0  0.31228  0.84209  0.36739  1.0000
  H   H3864     1.0  0.30160  0.81941  0.37965  1.0000
  H   H3865     1.0  0.31688  0.81748  0.38925  1.0000
  H   H3866     1.0  0.31070  0.80071  0.38915  1.0000
  H   H3867     1.0  0.25190  0.91849  0.46237  1.0000
  H   H3868     1.0  0.12165  0.83519  0.40572  1.0000
  H   H3869     1.0  0.44983  0.84565  0.38598  1.0000
  H   H3870     1.0  0.47143  0.88104  0.35818  1.0000
  H   H3871     1.0  0.39091  0.85449  0.39689  1.0000
  S   S660      1.0  0.20513  0.94872  0.44946  1.0000
  H   H3872     1.0  0.46357  0.82906  0.36378  1.0000
  H   H3873     1.0  0.13248  0.81548  0.40875  1.0000
  S   S661      1.0  0.01122  0.81992  0.36237  1.0000
  H   H3874     1.0  0.39853  0.84635  0.41393  1.0000
  S   S662      1.0  0.26759  0.88382  0.41322  1.0000
  H   H3875     1.0  0.02153  0.85317  0.40438  1.0000
  H   H3876     1.0  0.40735  0.86734  0.37275  1.0000
  H   H3877     1.0  0.21402  0.88794  0.43458  1.0000
  C   C2295     1.0  0.12034  0.86115  0.41915  1.0000
  H   H3878     1.0  0.23772  0.78562  0.23832  1.0000
  H   H3879     1.0  0.41091  0.83964  0.37954  1.0000
  H   H3880     1.0  0.08161  0.77344  0.27303  1.0000
  H   H3881     1.0  0.47584  0.83875  0.29743  1.0000
  H   H3882     1.0  0.30630  0.75038  0.26033  1.0000
  N   N160      1.0  0.27179  0.83258  0.34185  1.0000
  H   H3883     1.0  0.25045  0.82648  0.34166  1.0000
  C   C2296     1.0  0.43231  0.86619  0.36726  1.0000
  C   C2297     1.0  0.25404  0.88992  0.42933  1.0000
  H   H3884     1.0  0.30101  0.81607  0.32473  1.0000
  H   H3885     1.0  0.13872  0.82878  0.39122  1.0000
  C   C2298     1.0  0.24048  0.79482  0.25673  1.0000
  C   C2299     1.0  0.25598  0.91085  0.47290  1.0000
  Fe  Fe329     1.0  0.12860  0.75250  0.31550  1.0000
  H   H3886     1.0  0.33944  0.83476  0.28042  1.0000
  C   C2300     1.0  0.26858  0.84924  0.36166  1.0000
  H   H3887     1.0  0.30191  0.83630  0.32197  1.0000
  H   H3888     1.0  0.05989  0.77363  0.25583  1.0000
  H   H3889     1.0  0.18021  0.84034  0.40940  1.0000
  H   H3890     1.0  0.28983  0.84126  0.34600  1.0000
  C   C2301     1.0  0.37832  0.90493  0.24869  1.0000
  H   H3891     1.0  0.14708  0.84999  0.42923  1.0000
  C   C2302     1.0  0.07536  0.79128  0.28637  1.0000
  H   H3892     1.0  0.12830  0.85925  0.39487  1.0000
  N   N161      1.0  0.07958  0.76359  0.38938  1.0000
  C   C2303     1.0  0.07094  0.75726  0.40558  1.0000
  C   C2304     1.0  0.08150  0.75203  0.37966  1.0000
  C   C2305     1.0  0.06928  0.77878  0.38303  1.0000
  C   C2306     1.0  0.09505  0.76599  0.39034  1.0000
  C   C2307     1.0  0.06657  0.76780  0.41740  1.0000
  H   H3893     1.0  0.13538  0.95337  0.41604  1.0000
  C   C2308     1.0  0.07580  0.78765  0.36665  1.0000
  C   C2309     1.0  0.10832  0.76609  0.37544  1.0000
  H   H3894     1.0  0.05987  0.75447  0.40520  1.0000
  H   H3895     1.0  0.07809  0.74611  0.41099  1.0000
  H   H3896     1.0  0.08760  0.75583  0.36749  1.0000
  H   H3897     1.0  0.06979  0.75119  0.37875  1.0000
  H   H3898     1.0  0.05771  0.77687  0.38291  1.0000
  H   H3899     1.0  0.06669  0.78726  0.39053  1.0000
  H   H3900     1.0  0.09324  0.77710  0.39404  1.0000
  H   H3901     1.0  0.09996  0.75655  0.39952  1.0000
  H   H3902     1.0  0.05668  0.77778  0.41505  1.0000
  H   H3903     1.0  0.06250  0.76094  0.42922  1.0000
  H   H3904     1.0  0.07668  0.77207  0.41784  1.0000
  H   H3905     1.0  0.33870  0.73606  0.24116  1.0000
  C   C2310     1.0  0.26956  0.89746  0.46796  1.0000
  C   C2311     1.0  0.04080  0.73508  0.39493  1.0000
  H   H3906     1.0  0.06638  0.79761  0.36289  1.0000
  H   H3907     1.0  0.07945  0.78044  0.35787  1.0000
  H   H3908     1.0  0.08561  0.79266  0.36662  1.0000
  H   H3909     1.0  0.11539  0.77443  0.37495  1.0000
  H   H3910     1.0  0.10444  0.76971  0.36432  1.0000
  H   H3911     1.0  0.11663  0.75456  0.37598  1.0000
  H   H3912     1.0  0.20118  0.91816  0.38333  1.0000
  C   C2312     1.0  0.24578  0.85124  0.33623  1.0000
  H   H3913     1.0  0.26957  0.83901  0.37148  1.0000
  H   H3914     1.0  0.25306  0.80690  0.28241  1.0000
  C   C2313     1.0  0.44993  0.79121  0.36887  1.0000
  C   C2314     1.0  0.29611  0.82834  0.31951  1.0000
  H   H3915     1.0  0.43049  0.87557  0.35681  1.0000
  H   H3916     1.0  0.05669  0.83989  0.43615  1.0000
  C   C2315     1.0  0.29594  0.87152  0.45955  1.0000
  C   C2316     1.0  0.39794  0.97548  0.28481  1.0000
  C   C2317     1.0  0.46751  0.89331  0.37630  1.0000
  H   H3917     1.0  0.24666  0.91322  0.41646  1.0000
  S   S663      1.0  0.17005  0.95992  0.44158  1.0000
  H   H3918     1.0  0.27616  0.85591  0.33671  1.0000
  H   H3919     1.0  0.44619  0.84598  0.32293  1.0000
  C   C2318     1.0  0.16897  0.95155  0.39168  1.0000
  N   N162      1.0  0.47678  0.85274  0.31292  1.0000
  C   C2319     1.0  0.27786  0.81705  0.35175  1.0000
  C   C2320     1.0  0.47310  0.89102  0.36108  1.0000
  C   C2321     1.0  0.46224  0.79086  0.37552  1.0000
  H   H3920     1.0  0.38979  0.88082  0.39839  1.0000
  H   H3921     1.0  0.42855  0.86423  0.40209  1.0000
  H   H3922     1.0  0.15694  0.86286  0.41417  1.0000
  H   H3923     1.0  0.44102  0.86895  0.37195  1.0000
  H   H3924     1.0  0.45540  0.86311  0.32775  1.0000
  H   H3925     1.0  0.08192  0.79927  0.27705  1.0000
  H   H3926     1.0  0.22684  0.82396  0.27803  1.0000
  H   H3927     1.0  0.36334  0.81661  0.40282  1.0000
  H   H3928     1.0  0.21465  0.86755  0.44083  1.0000
  C   C2322     1.0  0.41652  0.86639  0.37914  1.0000
  C   C2323     1.0  0.04510  0.78030  0.29730  1.0000
  H   H3929     1.0  0.44066  0.95529  0.30613  1.0000
  C   C2324     1.0  0.35450  0.87777  0.22911  1.0000
  H   H3930     1.0  0.40190  0.87412  0.41281  1.0000
  Fe  Fe330     1.0  0.09699  0.74450  0.33115  1.0000
  H   H3931     1.0  0.25507  0.80150  0.38313  1.0000
  H   H3932     1.0  0.46538  0.90805  0.39179  1.0000
  H   H3933     1.0  0.25602  0.85484  0.36200  1.0000
  H   H3934     1.0  0.43075  0.83508  0.38078  1.0000
  H   H3935     1.0  0.35435  0.79347  0.39536  1.0000
  H   H3936     1.0  0.38249  0.87062  0.41746  1.0000
  H   H3937     1.0  0.27881  0.80714  0.26604  1.0000
  C   C2325     1.0  0.27809  0.83271  0.32480  1.0000
  C   C2326     1.0  0.02565  0.78720  0.40033  1.0000
  C   C2327     1.0  0.49067  0.85844  0.30161  1.0000
  H   H3938     1.0  0.04214  0.79187  0.28939  1.0000
  C   C2328     1.0  0.41868  0.83811  0.38762  1.0000
  H   H3939     1.0  0.23136  0.87394  0.42799  1.0000
  H   H3940     1.0  0.28633  0.74642  0.24898  1.0000
  C   C2329     1.0  0.44420  0.84247  0.39838  1.0000
  Fe  Fe331     1.0  0.49112  0.82530  0.37972  1.0000
  H   H3941     1.0  0.44605  0.78060  0.37043  1.0000
  Fe  Fe332     1.0  0.19919  0.92537  0.46018  1.0000
  H   H3942     1.0  0.39700  0.98147  0.27269  1.0000
  H   H3943     1.0  0.43118  0.93442  0.30610  1.0000
  H   H3944     1.0  0.03309  0.82169  0.42387  1.0000
  C   C2330     1.0  0.01134  0.77339  0.39190  1.0000
  N   N163      1.0  0.01867  0.85272  0.42877  1.0000
  N   N164      1.0  0.21528  0.88895  0.40238  1.0000
  C   C2331     1.0  0.20958  0.88605  0.38967  1.0000
  C   C2332     1.0  0.23268  0.88824  0.39703  1.0000
  C   C2333     1.0  0.20724  0.90481  0.40586  1.0000
  C   C2334     1.0  0.21169  0.87673  0.41696  1.0000
  C   C2335     1.0  0.19170  0.88786  0.39239  1.0000
  C   C2336     1.0  0.24317  0.87220  0.39486  1.0000
  C   C2337     1.0  0.20767  0.91869  0.39172  1.0000
  C   C2338     1.0  0.21838  0.87675  0.43072  1.0000
  H   H3945     1.0  0.21348  0.89376  0.37827  1.0000
  H   H3946     1.0  0.21484  0.87398  0.38790  1.0000
  H   H3947     1.0  0.23701  0.89223  0.40517  1.0000
  H   H3948     1.0  0.23533  0.89642  0.38564  1.0000
  H   H3949     1.0  0.19475  0.90520  0.41198  1.0000
  H   H3950     1.0  0.21272  0.90743  0.41404  1.0000
  H   H3951     1.0  0.19880  0.87809  0.42142  1.0000
  H   H3952     1.0  0.21598  0.86484  0.41449  1.0000
  H   H3953     1.0  0.18895  0.88628  0.38190  1.0000
  H   H3954     1.0  0.18739  0.87876  0.40223  1.0000
  H   H3955     1.0  0.18495  0.89956  0.39421  1.0000
  H   H3956     1.0  0.25559  0.87333  0.39067  1.0000
  H   H3957     1.0  0.24262  0.86346  0.40596  1.0000
  H   H3958     1.0  0.24038  0.86777  0.38607  1.0000
  H   H3959     1.0  0.48003  0.97667  0.24591  1.0000
  C   C2339     1.0  0.10050  0.97092  0.37856  1.0000
  C   C2340     1.0  0.20400  0.97827  0.40327  1.0000
  H   H3960     1.0  0.46623  0.92903  0.23551  1.0000
  H   H3961     1.0  0.26541  0.86857  0.47433  1.0000
  H   H3962     1.0  0.00641  0.88490  0.41346  1.0000
  H   H3963     1.0  0.47859  0.89800  0.41487  1.0000
  C   C2341     1.0  0.02712  0.74126  0.45615  1.0000
  C   C2342     1.0  0.01136  0.86335  0.44004  1.0000
  H   H3964     1.0  0.02744  0.77943  0.42436  1.0000
  H   H3965     1.0  0.13076  0.97281  0.45600  1.0000
  S   S664      1.0  0.17431  0.97853  0.47221  1.0000
  H   H3966     1.0  0.17821  0.94132  0.41253  1.0000
  H   H3967     1.0  0.17814  0.74942  0.35711  1.0000
  C   C2343     1.0  0.29243  0.87760  0.47455  1.0000
  H   H3968     1.0  0.29099  0.78956  0.26115  1.0000
  H   H3969     1.0  0.48183  0.81582  0.33259  1.0000
  C   C2344     1.0  0.16661  0.94551  0.40936  1.0000
  H   H3970     1.0  0.01619  0.82860  0.41503  1.0000
  H   H3971     1.0  0.05077  0.75278  0.32242  1.0000
  H   H3972     1.0  0.04217  0.84414  0.41600  1.0000
  H   H3973     1.0  0.48246  0.92206  0.39978  1.0000
  C   C2345     1.0  0.16003  0.96723  0.36827  1.0000
  H   H3974     1.0  0.47899  0.87274  0.42374  1.0000
  Fe  Fe333     1.0  0.48235  0.91870  0.29256  1.0000
  H   H3975     1.0  0.14468  0.94318  0.39032  1.0000
  H   H3976     1.0  0.44247  0.96853  0.23853  1.0000
  H   H3977     1.0  0.26938  0.82891  0.24832  1.0000
  H   H3978     1.0  0.22516  0.96560  0.45371  1.0000
  C   C2346     1.0  0.23029  0.97430  0.44386  1.0000
  H   H3979     1.0  0.06782  0.75244  0.27606  1.0000
  H   H3980     1.0  0.00186  0.85882  0.41388  1.0000
  H   H3981     1.0  0.24930  0.95445  0.43820  1.0000
  H   H3982     1.0  0.29036  0.86161  0.46158  1.0000
  C   C2347     1.0  0.24220  0.96515  0.43209  1.0000
  N   N165      1.0  0.15531  0.96305  0.38583  1.0000
  H   H3983     1.0  0.29223  0.88069  0.44966  1.0000
  H   H3984     1.0  0.16045  0.93579  0.41314  1.0000
  H   H3985     1.0  0.12327  0.97001  0.40572  1.0000
  H   H3986     1.0  0.22040  0.98120  0.43824  1.0000
  H   H3987     1.0  0.01680  0.73487  0.39710  1.0000
  H   H3988     1.0  0.01922  0.75256  0.45527  1.0000
  H   H3989     1.0  0.40208  0.98276  0.29002  1.0000
  H   H3990     1.0  0.48661  0.86829  0.29236  1.0000
  H   H3991     1.0  0.19522  0.97886  0.42758  1.0000
  H   H3992     1.0  0.04133  0.74717  0.43320  1.0000
  H   H3993     1.0  0.16026  0.95458  0.41604  1.0000
  H   H3994     1.0  0.16188  0.74378  0.37234  1.0000
  H   H3995     1.0  0.21272  0.98147  0.37849  1.0000
  H   H3996     1.0  0.13859  0.98039  0.43618  1.0000
  H   H3997     1.0  0.01216  0.88046  0.39465  1.0000
  S   S665      1.0  0.26483  0.82649  0.47296  1.0000
  C   C2348     1.0  0.01502  0.87695  0.40635  1.0000
  H   H3998     1.0  0.23815  0.87591  0.46729  1.0000
  H   H3999     1.0  0.24049  0.80515  0.23190  1.0000
  H   H4000     1.0  0.25634  0.82880  0.26722  1.0000
  S   S666      1.0  0.10954  0.73619  0.27645  1.0000
  H   H4001     1.0  0.27620  0.78841  0.27852  1.0000
  S   S667      1.0  0.43371  0.94075  0.22692  1.0000
  H   H4002     1.0  0.04343  0.75357  0.47348  1.0000
  H   H4003     1.0  0.47799  0.92541  0.41915  1.0000
  H   H4004     1.0  0.15518  0.73452  0.32657  1.0000
  H   H4005     1.0  0.49232  0.85453  0.42825  1.0000
  C   C2349     1.0  0.09778  0.98249  0.38695  1.0000
  H   H4006     1.0  0.08913  0.98219  0.39780  1.0000
  C   C2350     1.0  0.38355  0.86386  0.69129  1.0000
  C   C2351     1.0  0.01059  0.75614  0.56294  1.0000
  Fe  Fe334     1.0  0.01061  0.86934  0.61901  1.0000
  S   S668      1.0  0.01578  0.88954  0.59968  1.0000
  S   S669      1.0  0.03170  0.85412  0.62786  1.0000
  H   H4007     1.0  0.47637  0.87973  0.61154  1.0000
  C   C2352     1.0  0.49117  0.92378  0.70151  1.0000
  H   H4008     1.0  0.34881  0.79760  0.58043  1.0000
  S   S670      1.0  0.00767  0.88206  0.56380  1.0000
  H   H4009     1.0  0.15403  0.78075  0.63027  1.0000
  H   H4010     1.0  0.14448  0.77912  0.58117  1.0000
  Fe  Fe335     1.0  0.06440  0.77175  0.63359  1.0000
  S   S671      1.0  0.08758  0.77508  0.61813  1.0000
  S   S672      1.0  0.04182  0.78363  0.62577  1.0000
  H   H4011     1.0  0.21986  0.87211  0.51781  1.0000
  H   H4012     1.0  0.30366  0.90116  0.71889  1.0000
  C   C2353     1.0  0.47324  0.89291  0.71156  1.0000
  Fe  Fe336     1.0  0.16102  0.82603  0.66029  1.0000
  S   S673      1.0  0.14757  0.84785  0.64743  1.0000
  S   S674      1.0  0.15746  0.80189  0.66276  1.0000
  S   S675      1.0  0.16757  0.86694  0.65785  1.0000
  Fe  Fe337     1.0  0.14566  0.85762  0.66789  1.0000
  S   S676      1.0  0.12158  0.87148  0.67606  1.0000
  Fe  Fe338     1.0  0.17046  0.85524  0.63844  1.0000
  S   S677      1.0  0.17782  0.86834  0.61393  1.0000
  S   S678      1.0  0.18431  0.83255  0.64949  1.0000
  Fe  Fe339     1.0  0.07659  0.96229  0.60404  1.0000
  Fe  Fe340     1.0  0.38574  0.91434  0.72557  1.0000
  Fe  Fe341     1.0  0.05866  0.95019  0.63632  1.0000
  S   S679      1.0  0.04327  0.93291  0.64875  1.0000
  H   H4013     1.0  0.43580  0.87539  0.58529  1.0000
  S   S680      1.0  0.08087  0.93976  0.62123  1.0000
  C   C2354     1.0  0.32601  0.85751  0.71910  1.0000
  H   H4014     1.0  0.32123  0.83879  0.56029  1.0000
  C   C2355     1.0  0.44147  0.91284  0.69075  1.0000
  H   H4015     1.0  0.36128  0.81733  0.56575  1.0000
  H   H4016     1.0  0.26285  0.88137  0.64984  1.0000
  H   H4017     1.0  0.21678  0.80881  0.69699  1.0000
  Fe  Fe342     1.0  0.25828  0.84041  0.56814  1.0000
  S   S681      1.0  0.26305  0.85717  0.57914  1.0000
  S   S682      1.0  0.23900  0.82754  0.58001  1.0000
  Fe  Fe343     1.0  0.28576  0.84386  0.54058  1.0000
  S   S683      1.0  0.29306  0.86078  0.54939  1.0000
  S   S684      1.0  0.30059  0.83799  0.51783  1.0000
  Fe  Fe344     1.0  0.28825  0.84502  0.57296  1.0000
  S   S685      1.0  0.30267  0.83626  0.59145  1.0000
  Fe  Fe345     1.0  0.26729  0.87138  0.55467  1.0000
  S   S686      1.0  0.25907  0.89716  0.54678  1.0000
  S   S687      1.0  0.28323  0.82701  0.56370  1.0000
  S   S688      1.0  0.26027  0.85568  0.54417  1.0000
  H   H4018     1.0  0.20651  0.75827  0.72013  1.0000
  H   H4019     1.0  0.05590  0.74323  0.52207  1.0000
  C   C2356     1.0  0.05270  0.74503  0.47892  1.0000
  C   C2357     1.0  0.47773  0.93485  0.69819  1.0000
  H   H4020     1.0  0.45256  0.91632  0.68388  1.0000
  C   C2358     1.0  0.28124  0.87873  0.50806  1.0000
  H   H4021     1.0  0.25992  0.91821  0.47822  1.0000
  H   H4022     1.0  0.40730  0.96523  0.67530  1.0000
  S   S689      1.0  0.99947  0.83175  0.51831  1.0000
  H   H4023     1.0  0.17349  0.93874  0.63082  1.0000
  C   C2359     1.0  0.05227  0.87355  0.64612  1.0000
  S   S690      1.0  0.44121  0.88078  0.66137  1.0000
  H   H4024     1.0  0.29491  0.85972  0.65631  1.0000
  C   C2360     1.0  0.13227  0.89839  0.66256  1.0000
  Fe  Fe346     1.0  0.35243  0.85445  0.65237  1.0000
  S   S691      1.0  0.34401  0.87729  0.63693  1.0000
  S   S692      1.0  0.33593  0.84285  0.67279  1.0000
  Fe  Fe347     1.0  0.38652  0.85269  0.63490  1.0000
  S   S693      1.0  0.38068  0.87520  0.61792  1.0000
  S   S694      1.0  0.41184  0.84094  0.63514  1.0000
  Fe  Fe348     1.0  0.36529  0.88372  0.63892  1.0000
  S   S695      1.0  0.36561  0.90658  0.64326  1.0000
  Fe  Fe349     1.0  0.36002  0.86648  0.61738  1.0000
  S   S696      1.0  0.35199  0.87172  0.59478  1.0000
  S   S697      1.0  0.37242  0.86176  0.65601  1.0000
  S   S698      1.0  0.36717  0.84297  0.63266  1.0000
  H   H4025     1.0  0.37440  0.89130  0.69877  1.0000
  C   C2361     1.0  0.05947  0.85599  0.64697  1.0000
  H   H4026     1.0  0.00957  0.82949  0.55312  1.0000
  H   H4027     1.0  0.16834  0.75603  0.60891  1.0000
  H   H4028     1.0  0.06697  0.94151  0.54678  1.0000
  H   H4029     1.0  0.13194  0.76634  0.59259  1.0000
  H   H4030     1.0  0.15527  0.79138  0.70109  1.0000
  Fe  Fe350     1.0  0.16584  0.95119  0.55780  1.0000
  S   S699      1.0  0.16307  0.95490  0.58164  1.0000
  S   S700      1.0  0.15143  0.93872  0.55137  1.0000
  Fe  Fe351     1.0  0.19520  0.96426  0.54460  1.0000
  S   S701      1.0  0.19533  0.96922  0.56714  1.0000
  S   S702      1.0  0.21357  0.96703  0.52262  1.0000
  Fe  Fe352     1.0  0.18904  0.94597  0.57786  1.0000
  S   S703      1.0  0.20081  0.92618  0.59419  1.0000
  C   C2362     1.0  0.16560  0.79243  0.70467  1.0000
  C   C2363     1.0  0.21602  0.84747  0.69744  1.0000
  S   S704      1.0  0.19127  0.94029  0.55512  1.0000
  H   H4031     1.0  0.03762  0.75505  0.52948  1.0000
  C   C2364     1.0  0.17955  0.79247  0.69051  1.0000
  H   H4032     1.0  0.43752  0.87179  0.61936  1.0000
  H   H4033     1.0  0.37533  0.80376  0.55555  1.0000
  C   C2365     1.0  0.06565  0.84941  0.67261  1.0000
  N   N166      1.0  0.04045  0.75282  0.50579  1.0000
  H   H4034     1.0  0.16777  0.76507  0.58948  1.0000
  H   H4035     1.0  0.46114  0.90243  0.59945  1.0000
  H   H4036     1.0  0.20409  0.76806  0.69093  1.0000
  C   C2366     1.0  0.29065  0.87647  0.68975  1.0000
  S   S705      1.0  0.99429  0.92760  0.61378  1.0000
  H   H4037     1.0  0.41316  0.86640  0.68169  1.0000
  S   S706      1.0  0.33895  0.90466  0.71468  1.0000
  H   H4038     1.0  0.38924  0.89185  0.67098  1.0000
  H   H4039     1.0  0.26732  0.85827  0.63315  1.0000
  H   H4040     1.0  0.28505  0.84448  0.63499  1.0000
  C   C2367     1.0  0.04881  0.76609  0.49875  1.0000
  C   C2368     1.0  0.19359  0.80257  0.70387  1.0000
  H   H4041     1.0  0.16702  0.95038  0.64510  1.0000
  C   C2369     1.0  0.20331  0.97063  0.50801  1.0000
  C   C2370     1.0  0.20733  0.96041  0.49797  1.0000
  C   C2371     1.0  0.19817  0.96255  0.48718  1.0000
  H   H4042     1.0  0.43664  0.91442  0.61430  1.0000
  H   H4043     1.0  0.99600  0.77119  0.61868  1.0000
  H   H4044     1.0  0.21727  0.95070  0.49876  1.0000
  H   H4045     1.0  0.26225  0.89581  0.49975  1.0000
  C   C2372     1.0  0.31870  0.85577  0.67973  1.0000
  C   C2373     1.0  0.31786  0.87181  0.67576  1.0000
  C   C2374     1.0  0.30382  0.88214  0.68054  1.0000
  H   H4046     1.0  0.32794  0.87632  0.66876  1.0000
  H   H4047     1.0  0.30322  0.89457  0.67720  1.0000
  C   C2375     1.0  0.43409  0.86979  0.65298  1.0000
  C   C2376     1.0  0.41930  0.87586  0.64932  1.0000
  C   C2377     1.0  0.41251  0.86701  0.64389  1.0000
  C   C2378     1.0  0.42045  0.85195  0.64204  1.0000
  C   C2379     1.0  0.43543  0.84594  0.64538  1.0000
  C   C2380     1.0  0.44227  0.85486  0.65086  1.0000
  H   H4048     1.0  0.41309  0.88754  0.65052  1.0000
  H   H4049     1.0  0.40121  0.87200  0.64086  1.0000
  H   H4050     1.0  0.44165  0.83432  0.64389  1.0000
  H   H4051     1.0  0.45366  0.85005  0.65378  1.0000
  H   H4052     1.0  0.35080  0.92853  0.68962  1.0000
  H   H4053     1.0  0.30611  0.83763  0.69202  1.0000
  H   H4054     1.0  0.14108  0.97850  0.59878  1.0000
  H   H4055     1.0  0.46350  0.94593  0.68109  1.0000
  C   C2381     1.0  0.34438  0.90644  0.69448  1.0000
  C   C2382     1.0  0.34361  0.89453  0.68809  1.0000
  C   C2383     1.0  0.34977  0.89486  0.67225  1.0000
  C   C2384     1.0  0.35668  0.90706  0.66273  1.0000
  C   C2385     1.0  0.35695  0.91929  0.66897  1.0000
  C   C2386     1.0  0.35074  0.91899  0.68486  1.0000
  H   H4056     1.0  0.33871  0.88483  0.69537  1.0000
  H   H4057     1.0  0.34926  0.88561  0.66741  1.0000
  H   H4058     1.0  0.36207  0.92888  0.66157  1.0000
  C   C2387     1.0  0.24309  0.90508  0.56020  1.0000
  C   C2388     1.0  0.23526  0.89539  0.57280  1.0000
  C   C2389     1.0  0.22255  0.90185  0.58352  1.0000
  C   C2390     1.0  0.21755  0.91801  0.58162  1.0000
  C   C2391     1.0  0.22522  0.92771  0.56887  1.0000
  C   C2392     1.0  0.23798  0.92126  0.55817  1.0000
  H   H4059     1.0  0.23874  0.88294  0.57409  1.0000
  H   H4060     1.0  0.21628  0.89433  0.59290  1.0000
  H   H4061     1.0  0.22133  0.94023  0.56721  1.0000
  H   H4062     1.0  0.24389  0.92882  0.54834  1.0000
  C   C2393     1.0  0.31652  0.84619  0.59187  1.0000
  C   C2394     1.0  0.32584  0.83973  0.60297  1.0000
  C   C2395     1.0  0.33702  0.84729  0.60371  1.0000
  C   C2396     1.0  0.33892  0.86139  0.59336  1.0000
  C   C2397     1.0  0.32978  0.86774  0.58207  1.0000
  C   C2398     1.0  0.31852  0.86021  0.58138  1.0000
  H   H4063     1.0  0.32441  0.82882  0.61105  1.0000
  H   H4064     1.0  0.34416  0.84223  0.61231  1.0000
  H   H4065     1.0  0.33121  0.87869  0.57405  1.0000
  H   H4066     1.0  0.31137  0.86530  0.57279  1.0000
  C   C2399     1.0  0.29151  0.86039  0.69403  1.0000
  H   H4067     1.0  0.10749  0.84185  0.64428  1.0000
  H   H4068     1.0  0.48677  0.88081  0.56813  1.0000
  N   N167      1.0  0.29601  0.87583  0.63359  1.0000
  H   H4069     1.0  0.14071  0.91941  0.65128  1.0000
  H   H4070     1.0  0.06094  0.88090  0.64001  1.0000
  H   H4071     1.0  0.04873  0.78956  0.49994  1.0000
  H   H4072     1.0  0.06351  0.85436  0.63474  1.0000
  C   C2400     1.0  0.29089  0.83373  0.50582  1.0000
  C   C2401     1.0  0.27541  0.83180  0.51116  1.0000
  C   C2402     1.0  0.26763  0.82932  0.50104  1.0000
  H   H4073     1.0  0.26941  0.83226  0.52305  1.0000
  H   H4074     1.0  0.25564  0.82790  0.50520  1.0000
  C   C2403     1.0  0.09939  0.95537  0.57082  1.0000
  C   C2404     1.0  0.11048  0.96081  0.57465  1.0000
  C   C2405     1.0  0.12646  0.95622  0.56815  1.0000
  C   C2406     1.0  0.13141  0.94582  0.55820  1.0000
  C   C2407     1.0  0.12033  0.94046  0.55427  1.0000
  C   C2408     1.0  0.10430  0.94541  0.56041  1.0000
  H   H4075     1.0  0.47751  0.86049  0.70797  1.0000
  H   H4076     1.0  0.13491  0.96065  0.57098  1.0000
  H   H4077     1.0  0.12415  0.93250  0.54647  1.0000
  C   C2409     1.0  0.13311  0.96336  0.65763  1.0000
  C   C2410     1.0  0.19427  0.85709  0.60370  1.0000
  C   C2411     1.0  0.19683  0.84084  0.60757  1.0000
  C   C2412     1.0  0.21050  0.83185  0.60006  1.0000
  C   C2413     1.0  0.22173  0.83909  0.58879  1.0000
  C   C2414     1.0  0.21908  0.85537  0.58474  1.0000
  C   C2415     1.0  0.20526  0.86437  0.59210  1.0000
  H   H4078     1.0  0.18822  0.83516  0.61625  1.0000
  H   H4079     1.0  0.21248  0.81927  0.60309  1.0000
  H   H4080     1.0  0.22763  0.86097  0.57587  1.0000
  H   H4081     1.0  0.20322  0.87693  0.58902  1.0000
  C   C2416     1.0  0.11961  0.89115  0.66643  1.0000
  C   C2417     1.0  0.10411  0.91500  0.65362  1.0000
  C   C2418     1.0  0.10544  0.89955  0.66218  1.0000
  H   H4082     1.0  0.09322  0.92136  0.65016  1.0000
  H   H4083     1.0  0.09557  0.89404  0.66528  1.0000
  C   C2419     1.0  0.11773  0.80085  0.64171  1.0000
  C   C2420     1.0  0.12550  0.81318  0.63594  1.0000
  C   C2421     1.0  0.13774  0.81349  0.64232  1.0000
  C   C2422     1.0  0.14226  0.80148  0.65453  1.0000
  C   C2423     1.0  0.13472  0.78891  0.66008  1.0000
  C   C2424     1.0  0.12239  0.78863  0.65372  1.0000
  H   H4084     1.0  0.12210  0.82251  0.62646  1.0000
  H   H4085     1.0  0.14386  0.82288  0.63755  1.0000
  H   H4086     1.0  0.13823  0.77953  0.66947  1.0000
  C   C2425     1.0  0.13088  0.91388  0.65423  1.0000
  C   C2426     1.0  0.00752  0.92893  0.62402  1.0000
  C   C2427     1.0  0.00899  0.94366  0.62448  1.0000
  C   C2428     1.0  0.02001  0.94502  0.63195  1.0000
  C   C2429     1.0  0.02944  0.93163  0.63920  1.0000
  C   C2430     1.0  0.02769  0.91691  0.63906  1.0000
  C   C2431     1.0  0.01690  0.91554  0.63134  1.0000
  C   C2432     1.0  0.27451  0.89062  0.49461  1.0000
  H   H4087     1.0  0.02115  0.95641  0.63218  1.0000
  H   H4088     1.0  0.03477  0.90655  0.64486  1.0000
  H   H4089     1.0  0.01575  0.90414  0.63115  1.0000
  C   C2433     1.0  0.03422  0.83461  0.62726  1.0000
  C   C2434     1.0  0.04931  0.82513  0.62568  1.0000
  C   C2435     1.0  0.05162  0.80950  0.62514  1.0000
  C   C2436     1.0  0.03884  0.80327  0.62622  1.0000
  C   C2437     1.0  0.02372  0.81272  0.62787  1.0000
  C   C2438     1.0  0.02139  0.82843  0.62836  1.0000
  H   H4090     1.0  0.05927  0.82986  0.62479  1.0000
  H   H4091     1.0  0.06333  0.80232  0.62385  1.0000
  H   H4092     1.0  0.01385  0.80777  0.62915  1.0000
  H   H4093     1.0  0.00967  0.83563  0.63005  1.0000
  C   C2439     1.0  0.26652  0.87151  0.48493  1.0000
  H   H4094     1.0  0.21521  0.79187  0.71292  1.0000
  C   C2440     1.0  0.42003  0.86957  0.70135  1.0000
  H   H4095     1.0  0.11531  0.79070  0.58582  1.0000
  H   H4096     1.0  0.12155  0.97014  0.63153  1.0000
  H   H4097     1.0  0.30722  0.83657  0.72074  1.0000
  H   H4098     1.0  0.01028  0.87070  0.53680  1.0000
  H   H4099     1.0  0.39722  0.83977  0.69128  1.0000
  H   H4100     1.0  0.42122  0.95986  0.65002  1.0000
  C   C2441     1.0  0.38752  0.86385  0.71720  1.0000
  C   C2442     1.0  0.30897  0.88233  0.62137  1.0000
  C   C2443     1.0  0.28777  0.86870  0.62600  1.0000
  C   C2444     1.0  0.30415  0.89417  0.60690  1.0000
  C   C2445     1.0  0.31557  0.84990  0.64115  1.0000
  H   H4101     1.0  0.31503  0.88808  0.62649  1.0000
  H   H4102     1.0  0.31814  0.87288  0.61681  1.0000
  H   H4103     1.0  0.27954  0.87798  0.61958  1.0000
  H   H4104     1.0  0.29649  0.86284  0.61697  1.0000
  H   H4105     1.0  0.29661  0.90526  0.60973  1.0000
  H   H4106     1.0  0.31496  0.89714  0.59860  1.0000
  H   H4107     1.0  0.29849  0.88928  0.60062  1.0000
  H   H4108     1.0  0.31761  0.84073  0.65168  1.0000
  H   H4109     1.0  0.31157  0.84473  0.63378  1.0000
  Fe  Fe353     1.0  0.99966  0.88347  0.58890  1.0000
  H   H4110     1.0  0.13969  0.79494  0.60989  1.0000
  C   C2446     1.0  0.02409  0.74585  0.56714  1.0000
  C   C2447     1.0  0.33907  0.84656  0.54106  1.0000
  H   H4111     1.0  0.00247  0.81536  0.56985  1.0000
  H   H4112     1.0  0.46448  0.88635  0.71208  1.0000
  H   H4113     1.0  0.33682  0.81595  0.58518  1.0000
  H   H4114     1.0  0.49039  0.87600  0.58718  1.0000
  H   H4115     1.0  0.44151  0.95820  0.64291  1.0000
  H   H4116     1.0  0.13179  0.96566  0.66927  1.0000
  H   H4117     1.0  0.45879  0.88326  0.57740  1.0000
  H   H4118     1.0  0.03426  0.96521  0.59533  1.0000
  S   S707      1.0  0.48906  0.86237  0.65128  1.0000
  H   H4119     1.0  0.02472  0.91738  0.56735  1.0000
  H   H4120     1.0  0.12702  0.77492  0.62560  1.0000
  H   H4121     1.0  0.04915  0.77064  0.55316  1.0000
  H   H4122     1.0  0.42148  0.87094  0.60266  1.0000
  H   H4123     1.0  0.29168  0.89516  0.64465  1.0000
  S   S708      1.0  0.07265  0.74599  0.64190  1.0000
  H   H4124     1.0  0.35694  0.81524  0.53450  1.0000
  H   H4125     1.0  0.24171  0.88397  0.48965  1.0000
  H   H4126     1.0  0.06247  0.95489  0.55934  1.0000
  H   H4127     1.0  0.18765  0.81466  0.69900  1.0000
  Fe  Fe354     1.0  0.00339  0.80729  0.53252  1.0000
  S   S709      1.0  0.10232  0.80122  0.63346  1.0000
  H   H4128     1.0  0.04701  0.77647  0.51842  1.0000
  S   S710      1.0  0.37400  0.92643  0.70568  1.0000
  S   S711      1.0  0.07091  0.96062  0.64799  1.0000
  H   H4129     1.0  0.30980  0.87011  0.65087  1.0000
  H   H4130     1.0  0.27560  0.85631  0.64925  1.0000
  C   C2448     1.0  0.20171  0.84875  0.69362  1.0000
  H   H4131     1.0  0.03038  0.78420  0.50916  1.0000
  N   N168      1.0  0.14487  0.97369  0.62853  1.0000
  S   S712      1.0  0.47560  0.88844  0.67249  1.0000
  C   C2449     1.0  0.99750  0.77962  0.60734  1.0000
  H   H4132     1.0  0.46712  0.84781  0.61987  1.0000
  C   C2450     1.0  0.38737  0.88727  0.69636  1.0000
  C   C2451     1.0  0.39335  0.89548  0.67948  1.0000
  H   H4133     1.0  0.01750  0.74768  0.51065  1.0000
  H   H4134     1.0  0.39119  0.89217  0.70419  1.0000
  H   H4135     1.0  0.38844  0.90818  0.67819  1.0000
  H   H4136     1.0  0.40630  0.89368  0.67649  1.0000
  H   H4137     1.0  0.27492  0.87719  0.66407  1.0000
  H   H4138     1.0  0.22677  0.84106  0.69133  1.0000
  C   C2452     1.0  0.48354  0.92890  0.67261  1.0000
  C   C2453     1.0  0.27118  0.88548  0.65372  1.0000
  C   C2454     1.0  0.07913  0.83246  0.65326  1.0000
  H   H4139     1.0  0.34782  0.83964  0.72053  1.0000
  H   H4140     1.0  0.05454  0.84513  0.67693  1.0000
  H   H4141     1.0  0.16892  0.73608  0.59683  1.0000
  H   H4142     1.0  0.03901  0.96229  0.57602  1.0000
  H   H4143     1.0  0.08626  0.86233  0.63600  1.0000
  H   H4144     1.0  0.31846  0.79777  0.54761  1.0000
  Fe  Fe355     1.0  0.46698  0.88054  0.65594  1.0000
  C   C2455     1.0  0.46725  0.87291  0.61392  1.0000
  H   H4145     1.0  0.04846  0.74321  0.56687  1.0000
  H   H4146     1.0  0.06895  0.83687  0.69582  1.0000
  H   H4147     1.0  0.33840  0.79590  0.53589  1.0000
  H   H4148     1.0  0.08322  0.83258  0.64058  1.0000
  H   H4149     1.0  0.27656  0.86802  0.51160  1.0000
  N   N169      1.0  0.21627  0.87997  0.63193  1.0000
  C   C2456     1.0  0.19998  0.88370  0.62891  1.0000
  C   C2457     1.0  0.22600  0.86694  0.62387  1.0000
  C   C2458     1.0  0.22285  0.89455  0.62525  1.0000
  C   C2459     1.0  0.21489  0.87516  0.64930  1.0000
  C   C2460     1.0  0.18834  0.89777  0.63489  1.0000
  C   C2461     1.0  0.22079  0.85125  0.62983  1.0000
  C   C2462     1.0  0.24070  0.89245  0.61849  1.0000
  C   C2463     1.0  0.23041  0.86943  0.65483  1.0000
  H   H4150     1.0  0.20045  0.88590  0.61623  1.0000
  H   H4151     1.0  0.19429  0.87367  0.63435  1.0000
  H   H4152     1.0  0.23844  0.86412  0.62480  1.0000
  H   H4153     1.0  0.22625  0.87060  0.61115  1.0000
  H   H4154     1.0  0.21752  0.90212  0.61543  1.0000
  H   H4155     1.0  0.21968  0.90192  0.63399  1.0000
  H   H4156     1.0  0.20810  0.88498  0.65502  1.0000
  H   H4157     1.0  0.20809  0.86586  0.65444  1.0000
  H   H4158     1.0  0.17714  0.89946  0.63135  1.0000
  H   H4159     1.0  0.18550  0.89569  0.64777  1.0000
  H   H4160     1.0  0.19247  0.90880  0.62980  1.0000
  H   H4161     1.0  0.22138  0.84609  0.64218  1.0000
  H   H4162     1.0  0.20891  0.85218  0.62826  1.0000
  H   H4163     1.0  0.22885  0.84282  0.62288  1.0000
  H   H4164     1.0  0.24781  0.88457  0.62674  1.0000
  H   H4165     1.0  0.24386  0.90399  0.61540  1.0000
  H   H4166     1.0  0.24402  0.88816  0.60753  1.0000
  H   H4167     1.0  0.23786  0.85898  0.65054  1.0000
  H   H4168     1.0  0.22774  0.86603  0.66774  1.0000
  H   H4169     1.0  0.23689  0.87884  0.65159  1.0000
  C   C2464     1.0  0.04749  0.74002  0.49675  1.0000
  H   H4170     1.0  0.43215  0.86757  0.69418  1.0000
  S   S713      1.0  0.27322  0.88984  0.69519  1.0000
  H   H4171     1.0  0.06363  0.81998  0.67302  1.0000
  H   H4172     1.0  0.04293  0.87721  0.63933  1.0000
  N   N170      1.0  0.14142  0.90531  0.60299  1.0000
  C   C2465     1.0  0.15556  0.91210  0.60035  1.0000
  C   C2466     1.0  0.14561  0.89422  0.59222  1.0000
  C   C2467     1.0  0.13811  0.89663  0.61978  1.0000
  C   C2468     1.0  0.12779  0.91863  0.59969  1.0000
  C   C2469     1.0  0.15451  0.92241  0.61158  1.0000
  C   C2470     1.0  0.14868  0.90164  0.57468  1.0000
  C   C2471     1.0  0.12914  0.88350  0.62385  1.0000
  C   C2472     1.0  0.11247  0.91441  0.59982  1.0000
  H   H4173     1.0  0.16633  0.90265  0.60118  1.0000
  H   H4174     1.0  0.15795  0.91952  0.58844  1.0000
  H   H4175     1.0  0.13640  0.88766  0.59431  1.0000
  H   H4176     1.0  0.15624  0.88509  0.59448  1.0000
  H   H4177     1.0  0.14923  0.89103  0.62391  1.0000
  H   H4178     1.0  0.13136  0.90486  0.62743  1.0000
  H   H4179     1.0  0.12442  0.92603  0.60841  1.0000
  H   H4180     1.0  0.13109  0.92687  0.58851  1.0000
  H   H4181     1.0  0.15264  0.91610  0.62390  1.0000
  H   H4182     1.0  0.16581  0.92607  0.60887  1.0000
  H   H4183     1.0  0.14520  0.93317  0.61017  1.0000
  H   H4184     1.0  0.15907  0.90693  0.57084  1.0000
  H   H4185     1.0  0.15119  0.89242  0.56804  1.0000
  H   H4186     1.0  0.13830  0.91040  0.57137  1.0000
  H   H4187     1.0  0.13673  0.87316  0.61938  1.0000
  H   H4188     1.0  0.11815  0.88717  0.61960  1.0000
  H   H4189     1.0  0.12591  0.87973  0.63672  1.0000
  H   H4190     1.0  0.10525  0.91225  0.61183  1.0000
  H   H4191     1.0  0.11433  0.90439  0.59454  1.0000
  H   H4192     1.0  0.10564  0.92431  0.59253  1.0000
  N   N171      1.0  0.42294  0.93326  0.67427  1.0000
  C   C2473     1.0  0.42938  0.91626  0.68060  1.0000
  C   C2474     1.0  0.41018  0.93401  0.66631  1.0000
  C   C2475     1.0  0.41618  0.94118  0.68790  1.0000
  C   C2476     1.0  0.43635  0.93997  0.66326  1.0000
  C   C2477     1.0  0.41540  0.92620  0.65222  1.0000
  C   C2478     1.0  0.40360  0.95641  0.68569  1.0000
  C   C2479     1.0  0.43239  0.95681  0.65385  1.0000
  H   H4193     1.0  0.43542  0.90998  0.67103  1.0000
  H   H4194     1.0  0.40413  0.94615  0.66209  1.0000
  H   H4195     1.0  0.40075  0.92862  0.67484  1.0000
  H   H4196     1.0  0.41050  0.93326  0.69825  1.0000
  H   H4197     1.0  0.42566  0.94387  0.69160  1.0000
  H   H4198     1.0  0.44497  0.94005  0.66976  1.0000
  H   H4199     1.0  0.44342  0.93238  0.65499  1.0000
  H   H4200     1.0  0.44440  0.90007  0.69546  1.0000
  H   H4201     1.0  0.12635  0.80139  0.59063  1.0000
  H   H4202     1.0  0.46033  0.87397  0.62579  1.0000
  H   H4203     1.0  0.41942  0.91339  0.65562  1.0000
  H   H4204     1.0  0.15615  0.75498  0.63254  1.0000
  Fe  Fe356     1.0  0.36451  0.94622  0.71810  1.0000
  H   H4205     1.0  0.44071  0.90381  0.72562  1.0000
  H   H4206     1.0  0.39227  0.85108  0.72054  1.0000
  H   H4207     1.0  0.47552  0.90011  0.69960  1.0000
  C   C2480     1.0  0.04325  0.77973  0.50720  1.0000
  N   N172      1.0  0.03014  0.82369  0.57378  1.0000
  C   C2481     1.0  0.03076  0.80642  0.57972  1.0000
  C   C2482     1.0  0.01304  0.83180  0.57534  1.0000
  C   C2483     1.0  0.03721  0.82866  0.58424  1.0000
  C   C2484     1.0  0.03940  0.82636  0.55719  1.0000
  C   C2485     1.0  0.04714  0.79574  0.58048  1.0000
  C   C2486     1.0  0.00397  0.82753  0.56568  1.0000
  C   C2487     1.0  0.03714  0.84608  0.58117  1.0000
  C   C2488     1.0  0.03599  0.84305  0.54706  1.0000
  H   H4208     1.0  0.02334  0.80409  0.59167  1.0000
  H   H4209     1.0  0.02603  0.80187  0.57230  1.0000
  H   H4210     1.0  0.01132  0.84464  0.57213  1.0000
  H   H4211     1.0  0.00671  0.82940  0.58774  1.0000
  H   H4212     1.0  0.03110  0.82526  0.59657  1.0000
  H   H4213     1.0  0.04973  0.82260  0.58359  1.0000
  H   H4214     1.0  0.05221  0.82301  0.55691  1.0000
  H   H4215     1.0  0.03734  0.81856  0.55086  1.0000
  H   H4216     1.0  0.05181  0.79708  0.58992  1.0000
  H   H4217     1.0  0.04607  0.78339  0.58338  1.0000
  H   H4218     1.0  0.05568  0.79747  0.56921  1.0000
  H   H4219     1.0  0.14939  0.73936  0.60837  1.0000
  H   H4220     1.0  0.21642  0.77479  0.69793  1.0000
  H   H4221     1.0  0.01022  0.77722  0.60182  1.0000
  H   H4222     1.0  0.04506  0.84994  0.56996  1.0000
  H   H4223     1.0  0.04176  0.84795  0.59040  1.0000
  H   H4224     1.0  0.02525  0.85364  0.58184  1.0000
  H   H4225     1.0  0.04725  0.84630  0.54034  1.0000
  H   H4226     1.0  0.02953  0.85233  0.55345  1.0000
  H   H4227     1.0  0.02953  0.84339  0.53824  1.0000
  N   N173      1.0  0.20319  0.90814  0.52815  1.0000
  C   C2489     1.0  0.19662  0.92345  0.51814  1.0000
  C   C2490     1.0  0.21795  0.90984  0.53148  1.0000
  C   C2491     1.0  0.19103  0.90510  0.54310  1.0000
  C   C2492     1.0  0.20639  0.89553  0.51929  1.0000
  C   C2493     1.0  0.18048  0.92497  0.51472  1.0000
  C   C2494     1.0  0.23137  0.91278  0.51721  1.0000
  C   C2495     1.0  0.19706  0.89518  0.55778  1.0000
  C   C2496     1.0  0.21425  0.87901  0.52693  1.0000
  H   H4228     1.0  0.19548  0.93336  0.52354  1.0000
  H   H4229     1.0  0.20465  0.92572  0.50654  1.0000
  H   H4230     1.0  0.22309  0.89946  0.53960  1.0000
  H   H4231     1.0  0.21524  0.91958  0.53755  1.0000
  H   H4232     1.0  0.18394  0.91623  0.54638  1.0000
  H   H4233     1.0  0.18231  0.89949  0.54154  1.0000
  H   H4234     1.0  0.19524  0.89426  0.51748  1.0000
  H   H4235     1.0  0.21317  0.89870  0.50715  1.0000
  H   H4236     1.0  0.18110  0.91703  0.50726  1.0000
  H   H4237     1.0  0.17122  0.92312  0.52542  1.0000
  H   H4238     1.0  0.17661  0.93704  0.50818  1.0000
  H   H4239     1.0  0.22837  0.92429  0.50944  1.0000
  H   H4240     1.0  0.24177  0.91287  0.52129  1.0000
  H   H4241     1.0  0.23492  0.90343  0.51064  1.0000
  H   H4242     1.0  0.20297  0.90180  0.56204  1.0000
  H   H4243     1.0  0.20509  0.88398  0.55596  1.0000
  H   H4244     1.0  0.18694  0.89239  0.56729  1.0000
  H   H4245     1.0  0.20548  0.87300  0.53577  1.0000
  H   H4246     1.0  0.22391  0.87879  0.53218  1.0000
  Fe  Fe357     1.0  0.48440  0.90574  0.65157  1.0000
  N   N174      1.0  0.04834  0.92860  0.58503  1.0000
  C   C2497     1.0  0.05289  0.91302  0.59577  1.0000
  C   C2498     1.0  0.03386  0.92833  0.58017  1.0000
  C   C2499     1.0  0.04476  0.94108  0.59415  1.0000
  C   C2500     1.0  0.06204  0.93059  0.57144  1.0000
  C   C2501     1.0  0.06558  0.91170  0.60465  1.0000
  C   C2502     1.0  0.03620  0.91671  0.56988  1.0000
  H   H4247     1.0  0.12110  0.96441  0.65625  1.0000
  C   C2503     1.0  0.05935  0.94461  0.55776  1.0000
  H   H4248     1.0  0.04244  0.90998  0.60479  1.0000
  H   H4249     1.0  0.05731  0.90346  0.58931  1.0000
  H   H4250     1.0  0.02858  0.93986  0.57367  1.0000
  H   H4251     1.0  0.02443  0.92569  0.59063  1.0000
  H   H4252     1.0  0.03855  0.93697  0.60623  1.0000
  H   H4253     1.0  0.05576  0.94333  0.59531  1.0000
  H   H4254     1.0  0.07206  0.93187  0.57536  1.0000
  H   H4255     1.0  0.06687  0.91989  0.56660  1.0000
  H   H4256     1.0  0.06860  0.89950  0.61121  1.0000
  H   H4257     1.0  0.07654  0.91459  0.59676  1.0000
  H   H4258     1.0  0.06123  0.91910  0.61341  1.0000
  H   H4259     1.0  0.04435  0.91961  0.55853  1.0000
  H   H4260     1.0  0.04032  0.90449  0.57572  1.0000
  H   H4261     1.0  0.38807  0.86714  0.67850  1.0000
  H   H4262     1.0  0.20591  0.81114  0.71584  1.0000
  C   C2504     1.0  0.16049  0.75977  0.60062  1.0000
  H   H4263     1.0  0.11492  0.78902  0.60579  1.0000
  H   H4264     1.0  0.42810  0.89806  0.61808  1.0000
  H   H4265     1.0  0.02211  0.95619  0.59000  1.0000
  H   H4266     1.0  0.21391  0.79688  0.65332  1.0000
  C   C2505     1.0  0.47972  0.85218  0.71893  1.0000
  H   H4267     1.0  0.24524  0.86363  0.49742  1.0000
  C   C2506     1.0  0.15314  0.95729  0.62691  1.0000
  C   C2507     1.0  0.16052  0.78394  0.61810  1.0000
  C   C2508     1.0  0.03840  0.76660  0.55582  1.0000
  C   C2509     1.0  0.33568  0.84057  0.71952  1.0000
  H   H4268     1.0  0.37084  0.86953  0.69316  1.0000
  H   H4269     1.0  0.37780  0.84340  0.68852  1.0000
  Fe  Fe358     1.0  0.09267  0.95180  0.63129  1.0000
  S   S714      1.0  0.10323  0.75479  0.64800  1.0000
  H   H4270     1.0  0.17587  0.80326  0.68193  1.0000
  H   H4271     1.0  0.32710  0.85283  0.63508  1.0000
  Fe  Fe359     1.0  0.17978  0.84367  0.66978  1.0000
  S   S715      1.0  0.15751  0.83519  0.68169  1.0000
  H   H4272     1.0  0.41969  0.91035  0.68768  1.0000
  H   H4273     1.0  0.24997  0.87570  0.50690  1.0000
  H   H4274     1.0  0.05768  0.82466  0.65459  1.0000
  H   H4275     1.0  0.04947  0.85006  0.65223  1.0000
  H   H4276     1.0  0.17677  0.85794  0.69884  1.0000
  C   C2510     1.0  0.06781  0.82123  0.66026  1.0000
  S   S716      1.0  0.05341  0.97205  0.61827  1.0000
  C   C2511     1.0  0.30553  0.85005  0.68897  1.0000
  C   C2512     1.0  0.02298  0.75798  0.50684  1.0000
  H   H4277     1.0  0.14302  0.89214  0.66627  1.0000
  H   H4278     1.0  0.07417  0.80946  0.65822  1.0000
  H   H4279     1.0  0.27966  0.89828  0.63119  1.0000
  C   C2513     1.0  0.30357  0.86424  0.64613  1.0000
  C   C2514     1.0  0.27856  0.85634  0.63671  1.0000
  C   C2515     1.0  0.32741  0.81929  0.54116  1.0000
  C   C2516     1.0  0.14387  0.75447  0.63379  1.0000
  C   C2517     1.0  0.28504  0.88927  0.64028  1.0000
  C   C2518     1.0  0.20889  0.80344  0.70746  1.0000
  Fe  Fe360     1.0  0.07882  0.75266  0.66095  1.0000
  C   C2519     1.0  0.11690  0.92210  0.64951  1.0000
  H   H4280     1.0  0.15662  0.79145  0.59476  1.0000
  C   C2520     1.0  0.03805  0.75106  0.56349  1.0000
  H   H4281     1.0  0.20042  0.81120  0.67376  1.0000
  C   C2521     1.0  0.99887  0.86997  0.54427  1.0000
  S   S717      1.0  0.20166  0.83976  0.67892  1.0000
  H   H4282     1.0  0.16049  0.98186  0.60679  1.0000
  C   C2522     1.0  0.18787  0.85693  0.70165  1.0000
  H   H4283     1.0  0.43685  0.91843  0.70086  1.0000
  H   H4284     1.0  0.33898  0.85721  0.54472  1.0000
  S   S718      1.0  0.11613  0.94078  0.63754  1.0000
  H   H4285     1.0  0.26455  0.89637  0.65774  1.0000
  N   N175      1.0  0.07254  0.84889  0.65573  1.0000
  H   H4286     1.0  0.04653  0.87612  0.65777  1.0000
  C   C2523     1.0  0.43939  0.90153  0.61602  1.0000
  C   C2524     1.0  0.16867  0.95087  0.63254  1.0000
  H   H4287     1.0  0.08977  0.82672  0.65805  1.0000
  N   N176      1.0  0.27536  0.88437  0.48073  1.0000
  H   H4288     1.0  0.29376  0.86386  0.72185  1.0000
  S   S719      1.0  0.47796  0.93015  0.65540  1.0000
  C   C2525     1.0  0.14163  0.97531  0.64514  1.0000
  N   N177      1.0  0.14588  0.77160  0.60555  1.0000
  H   H4289     1.0  0.32194  0.80635  0.52741  1.0000
  H   H4290     1.0  0.04792  0.77124  0.48648  1.0000
  H   H4291     1.0  0.28131  0.85596  0.70101  1.0000
  S   S720      1.0  0.07216  0.73955  0.68567  1.0000
  S   S721      1.0  0.36574  0.97112  0.70696  1.0000
  C   C2526     1.0  0.08492  0.85851  0.64888  1.0000
  C   C2527     1.0  0.20273  0.86282  0.71702  1.0000
  H   H4292     1.0  0.35534  0.79809  0.54927  1.0000
  C   C2528     1.0  0.47558  0.85557  0.61526  1.0000
  H   H4293     1.0  0.31508  0.82574  0.54446  1.0000
  H   H4294     1.0  0.08463  0.83025  0.68132  1.0000
  C   C2529     1.0  0.07633  0.84093  0.68427  1.0000
  H   H4295     1.0  0.08130  0.86942  0.65337  1.0000
  H   H4296     1.0  0.10217  0.84543  0.66371  1.0000
  H   H4297     1.0  0.33974  0.83462  0.56464  1.0000
  H   H4298     1.0  0.44423  0.89674  0.62664  1.0000
  H   H4299     1.0  0.15609  0.95641  0.61453  1.0000
  H   H4300     1.0  0.47986  0.89530  0.57953  1.0000
  H   H4301     1.0  0.33238  0.82618  0.52965  1.0000
  H   H4302     1.0  0.31667  0.81287  0.57171  1.0000
  S   S722      1.0  0.06850  0.77820  0.65378  1.0000
  H   H4303     1.0  0.06184  0.86168  0.67405  1.0000
  C   C2530     1.0  0.10168  0.85072  0.65142  1.0000
  H   H4304     1.0  0.16214  0.80363  0.70853  1.0000
  C   C2531     1.0  0.36573  0.81432  0.55421  1.0000
  H   H4305     1.0  0.10886  0.85969  0.64752  1.0000
  H   H4306     1.0  0.22766  0.85369  0.71173  1.0000
  C   C2532     1.0  0.33390  0.83431  0.55565  1.0000
  C   C2533     1.0  0.32670  0.80379  0.53802  1.0000
  C   C2534     1.0  0.04311  0.74629  0.52212  1.0000
  H   H4307     1.0  0.08291  0.84890  0.68559  1.0000
  H   H4308     1.0  0.32962  0.79862  0.59253  1.0000
  C   C2535     1.0  0.13560  0.76524  0.62071  1.0000
  H   H4309     1.0  0.40102  0.96168  0.69595  1.0000
  N   N178      1.0  0.39195  0.86972  0.69986  1.0000
  H   H4310     1.0  0.13003  0.96350  0.60743  1.0000
  H   H4311     1.0  0.13737  0.75766  0.64507  1.0000
  H   H4312     1.0  0.04730  0.94799  0.55577  1.0000
  C   C2536     1.0  0.40935  0.86393  0.69457  1.0000
  C   C2537     1.0  0.32947  0.80792  0.56809  1.0000
  C   C2538     1.0  0.33681  0.80506  0.58217  1.0000
  C   C2539     1.0  0.21656  0.85461  0.70898  1.0000
  C   C2540     1.0  0.01104  0.77152  0.55494  1.0000
  H   H4313     1.0  0.33464  0.86478  0.71723  1.0000
  S   S723      1.0  0.02545  0.79607  0.54149  1.0000
  N   N179      1.0  0.33647  0.81807  0.55317  1.0000
  H   H4314     1.0  0.33041  0.79608  0.56645  1.0000
  H   H4315     1.0  0.06164  0.76167  0.49829  1.0000
  Fe  Fe361     1.0  0.35330  0.91704  0.72149  1.0000
  C   C2541     1.0  0.38499  0.84606  0.69510  1.0000
  H   H4316     1.0  0.20106  0.95445  0.47970  1.0000
  H   H4317     1.0  0.21207  0.77850  0.66603  1.0000
  H   H4318     1.0  0.41255  0.85100  0.69786  1.0000
  H   H4319     1.0  0.14531  0.94902  0.63297  1.0000
  C   C2542     1.0  0.35352  0.81098  0.54734  1.0000
  Fe  Fe362     1.0  0.09242  0.77977  0.63894  1.0000
  C   C2543     1.0  0.12256  0.79016  0.59401  1.0000
  H   H4320     1.0  0.42024  0.86335  0.71357  1.0000
  C   C2544     1.0  0.02490  0.77680  0.55147  1.0000
  H   H4321     1.0  0.37143  0.82360  0.54595  1.0000
  H   H4322     1.0  0.38048  0.84135  0.70757  1.0000
  H   H4323     1.0  0.48328  0.85244  0.62369  1.0000
  S   S724      1.0  0.09056  0.97355  0.61258  1.0000
  H   H4324     1.0  0.17191  0.77560  0.61586  1.0000
  C   C2545     1.0  0.45116  0.89680  0.60142  1.0000
  C   C2546     1.0  0.20517  0.79851  0.67757  1.0000
  H   H4325     1.0  0.11638  0.77910  0.65825  1.0000
  H   H4326     1.0  0.00009  0.79790  0.61618  1.0000
  Fe  Fe363     1.0  0.16931  0.97786  0.56887  1.0000
  H   H4327     1.0  0.16329  0.79535  0.61699  1.0000
  S   S725      1.0  0.99626  0.86189  0.60715  1.0000
  H   H4328     1.0  0.15267  0.97469  0.64854  1.0000
  H   H4329     1.0  0.18573  0.79927  0.71527  1.0000
  C   C2547     1.0  0.27521  0.82885  0.48553  1.0000
  S   S726      1.0  0.47443  0.89886  0.63534  1.0000
  C   C2548     1.0  0.24994  0.87420  0.49531  1.0000
  H   H4330     1.0  0.01701  0.76458  0.51621  1.0000
  H   H4331     1.0  0.43239  0.96530  0.66049  1.0000
  C   C2549     1.0  0.44356  0.87134  0.60717  1.0000
  N   N180      1.0  0.45699  0.87952  0.60217  1.0000
  H   H4332     1.0  0.44555  0.90259  0.59129  1.0000
  S   S727      1.0  0.07947  0.96044  0.57947  1.0000
  H   H4333     1.0  0.29162  0.88910  0.71835  1.0000
  Fe  Fe364     1.0  0.06783  0.98165  0.62839  1.0000
  H   H4334     1.0  0.99978  0.75215  0.56572  1.0000
  C   C2550     1.0  0.99433  0.87532  0.55810  1.0000
  H   H4335     1.0  0.36315  0.86199  0.71954  1.0000
  C   C2551     1.0  0.19689  0.76705  0.71526  1.0000
  S   S728      1.0  0.16974  0.97493  0.54526  1.0000
  Fe  Fe365     1.0  0.99411  0.90339  0.61232  1.0000
  C   C2552     1.0  0.43101  0.87747  0.59724  1.0000
  S   S729      1.0  0.23293  0.89799  0.72341  1.0000
  H   H4336     1.0  0.28086  0.90031  0.49097  1.0000
  Fe  Fe366     1.0  0.09637  0.75000  0.62830  1.0000
  H   H4337     1.0  0.44786  0.85871  0.60713  1.0000
  H   H4338     1.0  0.46866  0.86455  0.58573  1.0000
  H   H4339     1.0  0.35106  0.84244  0.53450  1.0000
  C   C2553     1.0  0.15763  0.74478  0.59829  1.0000
  C   C2554     1.0  0.15034  0.78600  0.60644  1.0000
  C   C2555     1.0  0.46601  0.87706  0.58622  1.0000
  C   C2556     1.0  0.18838  0.86381  0.71343  1.0000
  C   C2557     1.0  0.36161  0.98183  0.72141  1.0000
  H   H4340     1.0  0.47011  0.94112  0.70689  1.0000
  C   C2558     1.0  0.47400  0.93755  0.68361  1.0000
  H   H4341     1.0  0.19166  0.77465  0.72370  1.0000
  H   H4342     1.0  0.17765  0.95767  0.62566  1.0000
  C   C2559     1.0  0.13045  0.97561  0.60716  1.0000
  H   H4343     1.0  0.09576  0.94131  0.55730  1.0000
  H   H4344     1.0  0.41667  0.88227  0.70063  1.0000
  C   C2560     1.0  0.29077  0.83052  0.48028  1.0000
  H   H4345     1.0  0.32127  0.86135  0.70834  1.0000
  C   C2561     1.0  0.36981  0.86716  0.72449  1.0000
  C   C2562     1.0  0.03447  0.95701  0.58826  1.0000
  H   H4346     1.0  0.42465  0.93119  0.64307  1.0000
  H   H4347     1.0  0.12830  0.75837  0.61863  1.0000
  H   H4348     1.0  0.00496  0.77340  0.49516  1.0000
  H   H4349     1.0  0.02361  0.77677  0.48532  1.0000
  H   H4350     1.0  0.33069  0.85015  0.53324  1.0000
  H   H4351     1.0  0.40517  0.92826  0.64694  1.0000
  C   C2563     1.0  0.29860  0.83291  0.49041  1.0000
  H   H4352     1.0  0.27791  0.88402  0.51838  1.0000
  H   H4353     1.0  0.39300  0.86921  0.72332  1.0000
  Fe  Fe367     1.0  0.25713  0.88312  0.71835  1.0000
  N   N181      1.0  0.19539  0.79204  0.69308  1.0000
  H   H4354     1.0  0.39238  0.95411  0.68523  1.0000
  H   H4355     1.0  0.10672  0.96880  0.58235  1.0000
  H   H4356     1.0  0.24568  0.90683  0.48093  1.0000
  C   C2564     1.0  0.12948  0.97760  0.62360  1.0000
  C   C2565     1.0  0.13672  0.77622  0.59286  1.0000
  C   C2566     1.0  0.30374  0.88910  0.71855  1.0000
  H   H4357     1.0  0.18808  0.76087  0.71494  1.0000
  S   S730      1.0  0.99351  0.82941  0.47794  1.0000
  C   C2567     1.0  0.18530  0.97518  0.48617  1.0000
  H   H4358     1.0  0.42545  0.88996  0.59675  1.0000
  H   H4359     1.0  0.31060  0.83428  0.48624  1.0000
  H   H4360     1.0  0.31168  0.88688  0.70745  1.0000
  H   H4361     1.0  0.21743  0.79740  0.67840  1.0000
  C   C2568     1.0  0.20377  0.77556  0.69876  1.0000
  H   H4362     1.0  0.00171  0.95404  0.61892  1.0000
  H   H4363     1.0  0.29425  0.87555  0.50509  1.0000
  C   C2569     1.0  0.20643  0.79107  0.66390  1.0000
  H   H4364     1.0  0.13978  0.95117  0.65796  1.0000
  H   H4365     1.0  0.19488  0.79286  0.66101  1.0000
  H   H4366     1.0  0.18014  0.78261  0.68528  1.0000
  H   H4367     1.0  0.16775  0.78260  0.71456  1.0000
  H   H4368     1.0  0.33689  0.83754  0.70823  1.0000
  H   H4369     1.0  0.47152  0.84424  0.72201  1.0000
  H   H4370     1.0  0.29724  0.86748  0.48324  1.0000
  H   H4371     1.0  0.27322  0.86063  0.49112  1.0000
  H   H4372     1.0  0.02354  0.73427  0.53355  1.0000
  H   H4373     1.0  0.14322  0.74219  0.63519  1.0000
  S   S731      1.0  0.11512  0.73466  0.61398  1.0000
  H   H4374     1.0  0.00060  0.77926  0.55154  1.0000
  H   H4375     1.0  0.42144  0.95066  0.72254  1.0000
  C   C2570     1.0  0.48878  0.88209  0.71504  1.0000
  H   H4376     1.0  0.01794  0.75964  0.48419  1.0000
  H   H4377     1.0  0.15315  0.74700  0.58759  1.0000
  H   H4378     1.0  0.48328  0.85306  0.60414  1.0000
  H   H4379     1.0  0.36478  0.87982  0.72324  1.0000
  H   H4380     1.0  0.17762  0.87010  0.71965  1.0000
  H   H4381     1.0  0.49178  0.84493  0.71676  1.0000
  H   H4382     1.0  0.99527  0.80433  0.59775  1.0000
  C   C2571     1.0  0.01739  0.76734  0.49186  1.0000
  H   H4383     1.0  0.46824  0.90112  0.71949  1.0000
  H   H4384     1.0  0.40817  0.96896  0.72358  1.0000
  S   S732      1.0  0.41086  0.90176  0.72244  1.0000
  C   C2572     1.0  0.48157  0.88269  0.58014  1.0000
  S   S733      1.0  0.99590  0.79712  0.51682  1.0000
  H   H4385     1.0  0.08504  0.73348  0.60871  1.0000
  H   H4386     1.0  0.25042  0.98259  0.47683  1.0000
  C   C2573     1.0  0.29486  0.95822  0.86838  1.0000
  C   C2574     1.0  0.38235  0.73793  0.84677  1.0000
  H   H4387     1.0  0.18554  0.84496  0.79501  1.0000
  H   H4388     1.0  0.19065  0.86338  0.78639  1.0000
  Fe  Fe368     1.0  0.47583  0.77893  0.94933  1.0000
  H   H4389     1.0  0.16027  0.75225  0.87573  1.0000
  S   S734      1.0  0.29681  0.84434  0.93662  1.0000
  Fe  Fe369     1.0  0.48115  0.93162  0.77108  1.0000
  H   H4390     1.0  0.28807  0.94249  0.90447  1.0000
  H   H4391     1.0  0.30260  0.94721  0.87311  1.0000
  S   S735      1.0  0.47620  0.91329  0.76242  1.0000
  H   H4392     1.0  0.28880  0.85900  0.74251  1.0000
  H   H4393     1.0  0.40230  0.90924  0.77519  1.0000
  H   H4394     1.0  0.36348  0.74326  0.83389  1.0000
  S   S736      1.0  0.48642  0.94698  0.74744  1.0000
  C   C2575     1.0  0.43173  0.76703  0.90773  1.0000
  H   H4395     1.0  0.48761  0.88946  0.74113  1.0000
  H   H4396     1.0  0.47715  0.96677  0.81226  1.0000
  C   C2576     1.0  0.13907  0.74087  0.86745  1.0000
  S   S737      1.0  0.36603  0.90330  0.74041  1.0000
  H   H4397     1.0  0.17951  0.85668  0.77743  1.0000
  C   C2577     1.0  0.41077  0.90791  0.76443  1.0000
  H   H4398     1.0  0.18447  0.85053  0.75366  1.0000
  S   S738      1.0  0.46547  0.76572  0.93903  1.0000
  Fe  Fe370     1.0  0.47952  0.92958  0.73914  1.0000
  H   H4399     1.0  0.45915  0.83817  0.97420  1.0000
  C   C2578     1.0  0.48671  0.94793  0.80009  1.0000
  H   H4400     1.0  0.27194  0.78785  0.95654  1.0000
  N   N182      1.0  0.27074  0.95715  0.89137  1.0000
  C   C2579     1.0  0.40830  0.95216  0.74593  1.0000
  H   H4401     1.0  0.26907  0.91249  0.75066  1.0000
  H   H4402     1.0  0.31501  0.89973  0.76719  1.0000
  H   H4403     1.0  0.20182  0.82458  0.80517  1.0000
  S   S739      1.0  0.33610  0.74831  0.90649  1.0000
  H   H4404     1.0  0.25429  0.97815  0.89651  1.0000
  S   S740      1.0  0.48926  0.79645  0.93329  1.0000
  H   H4405     1.0  0.18967  0.81461  0.80014  1.0000
  H   H4406     1.0  0.49196  0.86238  0.97372  1.0000
  C   C2580     1.0  0.29932  0.83962  0.73157  1.0000
  H   H4407     1.0  0.23906  0.95275  0.87874  1.0000
  C   C2581     1.0  0.27884  0.94135  0.89928  1.0000
  C   C2582     1.0  0.29002  0.92234  0.74628  1.0000
  H   H4408     1.0  0.32401  0.74186  0.87608  1.0000
  C   C2583     1.0  0.35385  0.76068  0.86040  1.0000
  S   S741      1.0  0.35016  0.92338  0.77540  1.0000
  S   S742      1.0  0.45424  0.94169  0.74161  1.0000
  H   H4409     1.0  0.46416  0.86703  0.73409  1.0000
  C   C2584     1.0  0.45121  0.77160  0.86948  1.0000
  H   H4410     1.0  0.26700  0.94503  0.87577  1.0000
  H   H4411     1.0  0.29924  0.76011  0.93493  1.0000
  H   H4412     1.0  0.23552  0.83853  0.75898  1.0000
  S   S743      1.0  0.24774  0.93873  0.85067  1.0000
  S   S744      1.0  0.20283  0.87134  0.73207  1.0000
  S   S745      1.0  0.42023  0.77555  0.95683  1.0000
  H   H4413     1.0  0.27247  0.90121  0.95280  1.0000
  C   C2585     1.0  0.47662  0.86047  0.73242  1.0000
  H   H4414     1.0  0.19201  0.81526  0.76843  1.0000
  Fe  Fe371     1.0  0.27287  0.95831  0.81314  1.0000
  H   H4415     1.0  0.31759  0.74769  0.84264  1.0000
  Fe  Fe372     1.0  0.27375  0.93657  0.84487  1.0000
  S   S746      1.0  0.29022  0.92230  0.86063  1.0000
  Fe  Fe373     1.0  0.25091  0.93608  0.82618  1.0000
  S   S747      1.0  0.24239  0.91704  0.82163  1.0000
  S   S748      1.0  0.27709  0.93232  0.82111  1.0000
  Fe  Fe374     1.0  0.25278  0.86221  0.75061  1.0000
  S   S749      1.0  0.22821  0.87533  0.75837  1.0000
  S   S750      1.0  0.26606  0.84093  0.76475  1.0000
  H   H4416     1.0  0.27570  0.96005  0.91970  1.0000
  H   H4417     1.0  0.35786  0.76561  0.86802  1.0000
  C   C2586     1.0  0.30918  0.87770  0.73298  1.0000
  Fe  Fe375     1.0  0.23791  0.89674  0.74648  1.0000
  S   S751      1.0  0.23352  0.91898  0.75474  1.0000
  C   C2587     1.0  0.48115  0.88010  0.74324  1.0000
  C   C2588     1.0  0.31274  0.74967  0.87987  1.0000
  S   S752      1.0  0.26270  0.88365  0.74054  1.0000
  C   C2589     1.0  0.48520  0.85869  0.93039  1.0000
  Fe  Fe376     1.0  0.23265  0.75100  0.85479  1.0000
  S   S753      1.0  0.23748  0.76201  0.82930  1.0000
  N   N183      1.0  0.31297  0.86051  0.73300  1.0000
  Fe  Fe377     1.0  0.25622  0.76573  0.86130  1.0000
  S   S754      1.0  0.26295  0.77728  0.83623  1.0000
  S   S755      1.0  0.27206  0.76823  0.87516  1.0000
  Fe  Fe378     1.0  0.23722  0.78338  0.83701  1.0000
  S   S756      1.0  0.22588  0.80813  0.82722  1.0000
  Fe  Fe379     1.0  0.26266  0.75485  0.83119  1.0000
  H   H4418     1.0  0.31756  0.77049  0.93966  1.0000
  S   S757      1.0  0.23023  0.77309  0.86261  1.0000
  S   S758      1.0  0.25803  0.74261  0.85618  1.0000
  Fe  Fe380     1.0  0.30376  0.82650  0.92187  1.0000
  S   S759      1.0  0.32872  0.81782  0.91039  1.0000
  Fe  Fe381     1.0  0.27530  0.85236  0.92654  1.0000
  S   S760      1.0  0.26186  0.87720  0.92154  1.0000
  Fe  Fe382     1.0  0.27154  0.81956  0.92971  1.0000
  S   S761      1.0  0.25472  0.80633  0.92782  1.0000
  S   S762      1.0  0.28338  0.83613  0.91002  1.0000
  C   C2590     1.0  0.26639  0.78046  0.88849  1.0000
  C   C2591     1.0  0.25116  0.78313  0.89754  1.0000
  C   C2592     1.0  0.24757  0.79145  0.90936  1.0000
  C   C2593     1.0  0.25909  0.79741  0.91192  1.0000
  C   C2594     1.0  0.27413  0.79527  0.90243  1.0000
  C   C2595     1.0  0.27783  0.78662  0.89090  1.0000
  H   H4419     1.0  0.24231  0.77829  0.89585  1.0000
  H   H4420     1.0  0.23591  0.79305  0.91672  1.0000
  H   H4421     1.0  0.28303  0.79982  0.90435  1.0000
  H   H4422     1.0  0.28967  0.78452  0.88398  1.0000
  C   C2596     1.0  0.25509  0.83213  0.78244  1.0000
  C   C2597     1.0  0.24144  0.84069  0.79038  1.0000
  C   C2598     1.0  0.23264  0.83330  0.80426  1.0000
  C   C2599     1.0  0.23744  0.81730  0.81023  1.0000
  C   C2600     1.0  0.25117  0.80878  0.80237  1.0000
  C   C2601     1.0  0.26003  0.81620  0.78858  1.0000
  H   H4423     1.0  0.23773  0.85305  0.78591  1.0000
  H   H4424     1.0  0.22208  0.83998  0.81033  1.0000
  H   H4425     1.0  0.25487  0.79640  0.80676  1.0000
  H   H4426     1.0  0.27059  0.80951  0.78251  1.0000
  C   C2602     1.0  0.28224  0.90924  0.87707  1.0000
  C   C2603     1.0  0.29225  0.89659  0.88463  1.0000
  C   C2604     1.0  0.28608  0.88636  0.89805  1.0000
  C   C2605     1.0  0.26990  0.88905  0.90419  1.0000
  C   C2606     1.0  0.25993  0.90180  0.89678  1.0000
  C   C2607     1.0  0.26606  0.91174  0.88315  1.0000
  H   H4427     1.0  0.30479  0.89462  0.88001  1.0000
  H   H4428     1.0  0.29384  0.87654  0.90377  1.0000
  H   H4429     1.0  0.24740  0.90392  0.90150  1.0000
  H   H4430     1.0  0.25823  0.92148  0.87757  1.0000
  C   C2608     1.0  0.24018  0.91773  0.80290  1.0000
  C   C2609     1.0  0.24101  0.90380  0.79875  1.0000
  C   C2610     1.0  0.23915  0.90399  0.78395  1.0000
  C   C2611     1.0  0.23613  0.91817  0.77333  1.0000
  C   C2612     1.0  0.23524  0.93209  0.77751  1.0000
  C   C2613     1.0  0.23735  0.93188  0.79221  1.0000
  H   H4431     1.0  0.24308  0.89284  0.80703  1.0000
  H   H4432     1.0  0.23978  0.89322  0.78084  1.0000
  H   H4433     1.0  0.23281  0.94310  0.76937  1.0000
  H   H4434     1.0  0.23647  0.94268  0.79540  1.0000
  H   H4435     1.0  0.31527  0.75925  0.88337  1.0000
  H   H4436     1.0  0.27812  0.76471  0.92245  1.0000
  H   H4437     1.0  0.13811  0.74266  0.87925  1.0000
  H   H4438     1.0  0.20646  0.85440  0.76264  1.0000
  H   H4439     1.0  0.47078  0.88780  0.93762  1.0000
  H   H4440     1.0  0.44859  0.90983  0.74680  1.0000
  C   C2614     1.0  0.33330  0.93752  0.78021  1.0000
  C   C2615     1.0  0.32476  0.93613  0.79558  1.0000
  C   C2616     1.0  0.31061  0.94679  0.79924  1.0000
  C   C2617     1.0  0.30501  0.95875  0.78751  1.0000
  C   C2618     1.0  0.42189  0.73565  0.94528  1.0000
  C   C2619     1.0  0.32802  0.94993  0.76867  1.0000
  H   H4441     1.0  0.32890  0.92663  0.80460  1.0000
  H   H4442     1.0  0.30407  0.94569  0.81115  1.0000
  S   S763      1.0  0.29255  0.80868  0.94035  1.0000
  H   H4443     1.0  0.30695  0.75514  0.86987  1.0000
  H   H4444     1.0  0.26628  0.93303  0.74144  1.0000
  H   H4445     1.0  0.43163  0.73638  0.89317  1.0000
  H   H4446     1.0  0.21432  0.84518  0.77927  1.0000
  H   H4447     1.0  0.21812  0.81735  0.75205  1.0000
  H   H4448     1.0  0.34216  0.85321  0.74165  1.0000
  H   H4449     1.0  0.27594  0.90300  0.79928  1.0000
  H   H4450     1.0  0.43405  0.75859  0.87317  1.0000
  N   N184      1.0  0.20613  0.82978  0.77060  1.0000
  H   H4451     1.0  0.22359  0.81811  0.78458  1.0000
  H   H4452     1.0  0.28750  0.83850  0.73138  1.0000
  H   H4453     1.0  0.28425  0.94343  0.78407  1.0000
  C   C2620     1.0  0.30172  0.74524  0.83026  1.0000
  H   H4454     1.0  0.46664  0.97155  0.77191  1.0000
  H   H4455     1.0  0.32842  0.91185  0.76425  1.0000
  H   H4456     1.0  0.27589  0.92030  0.91681  1.0000
  H   H4457     1.0  0.44252  0.78708  0.89547  1.0000
  H   H4458     1.0  0.29326  0.75570  0.83260  1.0000
  H   H4459     1.0  0.35033  0.74007  0.87760  1.0000
  C   C2621     1.0  0.33436  0.76785  0.90654  1.0000
  C   C2622     1.0  0.32011  0.77857  0.90547  1.0000
  C   C2623     1.0  0.31839  0.79396  0.90665  1.0000
  C   C2624     1.0  0.33103  0.79875  0.90842  1.0000
  C   C2625     1.0  0.34541  0.78812  0.90901  1.0000
  C   C2626     1.0  0.34701  0.77263  0.90828  1.0000
  H   H4460     1.0  0.31028  0.77493  0.90417  1.0000
  H   H4461     1.0  0.30735  0.80222  0.90609  1.0000
  H   H4462     1.0  0.35516  0.79181  0.91043  1.0000
  H   H4463     1.0  0.35806  0.76440  0.90904  1.0000
  C   C2627     1.0  0.18917  0.85277  0.78376  1.0000
  S   S764      1.0  0.37833  0.93494  0.73647  1.0000
  C   C2628     1.0  0.20178  0.81522  0.79966  1.0000
  C   C2629     1.0  0.41480  0.76071  0.95231  1.0000
  C   C2630     1.0  0.23487  0.82833  0.75510  1.0000
  H   H4464     1.0  0.18140  0.82931  0.77958  1.0000
  H   H4465     1.0  0.39098  0.77336  0.95203  1.0000
  C   C2631     1.0  0.39552  0.75122  0.94572  1.0000
  C   C2632     1.0  0.39957  0.76276  0.95029  1.0000
  C   C2633     1.0  0.20476  0.84555  0.77371  1.0000
  H   H4466     1.0  0.21437  0.83799  0.74576  1.0000
  H   H4467     1.0  0.38381  0.75292  0.94399  1.0000
  N   N185      1.0  0.28620  0.76429  0.95793  1.0000
  H   H4468     1.0  0.46877  0.88633  0.74315  1.0000
  C   C2634     1.0  0.31638  0.76260  0.95136  1.0000
  C   C2635     1.0  0.27480  0.92165  0.74230  1.0000
  S   S765      1.0  0.27242  0.96224  0.83621  1.0000
  H   H4469     1.0  0.17843  0.75484  0.86240  1.0000
  H   H4470     1.0  0.45335  0.74301  0.92187  1.0000
  H   H4471     1.0  0.27201  0.74671  0.96644  1.0000
  H   H4472     1.0  0.29076  0.73760  0.87055  1.0000
  S   S766      1.0  0.28132  0.74132  0.81523  1.0000
  H   H4473     1.0  0.24752  0.90416  0.96933  1.0000
  C   C2636     1.0  0.21228  0.81680  0.78318  1.0000
  H   H4474     1.0  0.26563  0.95456  0.78071  1.0000
  H   H4475     1.0  0.26354  0.77124  0.93820  1.0000
  H   H4476     1.0  0.43631  0.78495  0.91603  1.0000
  H   H4477     1.0  0.42561  0.95255  0.76432  1.0000
  H   H4478     1.0  0.20690  0.80413  0.80705  1.0000
  H   H4479     1.0  0.26743  0.93457  0.79019  1.0000
  H   H4480     1.0  0.42410  0.97107  0.75168  1.0000
  H   H4481     1.0  0.41620  0.94091  0.74997  1.0000
  C   C2637     1.0  0.18436  0.83816  0.75495  1.0000
  H   H4482     1.0  0.29596  0.89519  0.79188  1.0000
  S   S767      1.0  0.28669  0.97114  0.79173  1.0000
  H   H4483     1.0  0.30963  0.96988  0.76320  1.0000
  H   H4484     1.0  0.21488  0.80534  0.77990  1.0000
  C   C2638     1.0  0.19082  0.82752  0.76914  1.0000
  C   C2639     1.0  0.47011  0.88197  0.95008  1.0000
  H   H4485     1.0  0.38390  0.75015  0.84360  1.0000
  H   H4486     1.0  0.19107  0.83440  0.74399  1.0000
  H   H4487     1.0  0.14224  0.74495  0.83566  1.0000
  H   H4488     1.0  0.28953  0.91514  0.79393  1.0000
  H   H4489     1.0  0.46546  0.84003  0.94460  1.0000
  C   C2640     1.0  0.41705  0.90352  0.73825  1.0000
  H   H4490     1.0  0.21791  0.74203  0.83231  1.0000
  C   C2641     1.0  0.48697  0.95725  0.80987  1.0000
  H   H4491     1.0  0.23689  0.96664  0.88982  1.0000
  H   H4492     1.0  0.48083  0.76892  0.90359  1.0000
  C   C2642     1.0  0.21782  0.82825  0.75544  1.0000
  C   C2643     1.0  0.23945  0.89449  0.95494  1.0000
  H   H4493     1.0  0.33480  0.95138  0.75696  1.0000
  C   C2644     1.0  0.24389  0.95516  0.88750  1.0000
  C   C2645     1.0  0.40626  0.90487  0.75231  1.0000
  H   H4494     1.0  0.47582  0.87857  0.76819  1.0000
  H   H4495     1.0  0.48823  0.79009  0.96583  1.0000
  S   S768      1.0  0.35607  0.74291  0.94128  1.0000
  C   C2646     1.0  0.30192  0.74111  0.89370  1.0000
  H   H4496     1.0  0.47356  0.86189  0.76337  1.0000
  H   H4497     1.0  0.24182  0.82906  0.74296  1.0000
  C   C2647     1.0  0.38024  0.94737  0.77118  1.0000
  C   C2648     1.0  0.48101  0.87054  0.76004  1.0000
  H   H4498     1.0  0.35331  0.96379  0.73991  1.0000
  C   C2649     1.0  0.43245  0.90480  0.73646  1.0000
  H   H4499     1.0  0.48109  0.88172  0.95328  1.0000
  H   H4500     1.0  0.35928  0.76477  0.84802  1.0000
  H   H4501     1.0  0.49316  0.88013  0.80015  1.0000
  H   H4502     1.0  0.27429  0.85769  0.96670  1.0000
  H   H4503     1.0  0.31903  0.83901  0.74996  1.0000
  H   H4504     1.0  0.40791  0.75908  0.88905  1.0000
  H   H4505     1.0  0.26130  0.96544  0.87042  1.0000
  H   H4506     1.0  0.25073  0.96108  0.91051  1.0000
  H   H4507     1.0  0.34103  0.76559  0.86178  1.0000
  H   H4508     1.0  0.17795  0.73683  0.87601  1.0000
  N   N186      1.0  0.48755  0.87091  0.73063  1.0000
  H   H4509     1.0  0.31906  0.75038  0.95023  1.0000
  C   C2650     1.0  0.45423  0.74736  0.89662  1.0000
  C   C2651     1.0  0.29900  0.73632  0.82148  1.0000
  N   N187      1.0  0.48031  0.85322  0.94784  1.0000
  C   C2652     1.0  0.28803  0.76697  0.94054  1.0000
  H   H4510     1.0  0.46264  0.75511  0.89311  1.0000
  H   H4511     1.0  0.43017  0.76001  0.91979  1.0000
  H   H4512     1.0  0.32194  0.91091  0.74797  1.0000
  C   C2653     1.0  0.30011  0.76737  0.96172  1.0000
  H   H4513     1.0  0.40353  0.74230  0.90357  1.0000
  H   H4514     1.0  0.48465  0.82918  0.94620  1.0000
  H   H4515     1.0  0.38507  0.97548  0.74546  1.0000
  C   C2654     1.0  0.29186  0.88128  0.95395  1.0000
  H   H4516     1.0  0.39820  0.94905  0.74392  1.0000
  H   H4517     1.0  0.42649  0.77600  0.88022  1.0000
  Fe  Fe383     1.0  0.46069  0.95768  0.75228  1.0000
  H   H4518     1.0  0.29476  0.86857  0.95468  1.0000
  C   C2655     1.0  0.49068  0.85111  0.97241  1.0000
  H   H4519     1.0  0.42739  0.73793  0.91283  1.0000
  N   N188      1.0  0.25304  0.82919  0.85675  1.0000
  C   C2656     1.0  0.25136  0.82856  0.87379  1.0000
  C   C2657     1.0  0.23834  0.82571  0.85516  1.0000
  C   C2658     1.0  0.25453  0.84548  0.84775  1.0000
  C   C2659     1.0  0.26757  0.81732  0.85176  1.0000
  C   C2660     1.0  0.26428  0.83361  0.87796  1.0000
  C   C2661     1.0  0.23509  0.80959  0.86414  1.0000
  C   C2662     1.0  0.24956  0.85116  0.83192  1.0000
  C   C2663     1.0  0.27095  0.81486  0.83507  1.0000
  H   H4520     1.0  0.23991  0.83595  0.87846  1.0000
  H   H4521     1.0  0.25128  0.81653  0.88083  1.0000
  H   H4522     1.0  0.23826  0.82653  0.84288  1.0000
  H   H4523     1.0  0.22788  0.83464  0.85911  1.0000
  H   H4524     1.0  0.24719  0.85428  0.85468  1.0000
  H   H4525     1.0  0.26681  0.84686  0.84558  1.0000
  H   H4526     1.0  0.27821  0.82059  0.85250  1.0000
  H   H4527     1.0  0.26789  0.80574  0.85994  1.0000
  H   H4528     1.0  0.26129  0.83300  0.89071  1.0000
  H   H4529     1.0  0.27590  0.82565  0.87548  1.0000
  H   H4530     1.0  0.26511  0.84581  0.87218  1.0000
  H   H4531     1.0  0.23216  0.80852  0.87692  1.0000
  H   H4532     1.0  0.22466  0.80807  0.86111  1.0000
  H   H4533     1.0  0.24498  0.79999  0.86088  1.0000
  H   H4534     1.0  0.25518  0.84303  0.82400  1.0000
  H   H4535     1.0  0.25296  0.86246  0.82592  1.0000
  H   H4536     1.0  0.23662  0.85339  0.83354  1.0000
  H   H4537     1.0  0.27713  0.82366  0.82657  1.0000
  H   H4538     1.0  0.26040  0.81476  0.83136  1.0000
  H   H4539     1.0  0.27858  0.80310  0.83456  1.0000
  H   H4540     1.0  0.45660  0.86681  0.94822  1.0000
  C   C2664     1.0  0.28382  0.74815  0.96630  1.0000
  C   C2665     1.0  0.41662  0.95968  0.72965  1.0000
  H   H4541     1.0  0.27362  0.73455  0.89582  1.0000
  C   C2666     1.0  0.31722  0.85177  0.74837  1.0000
  S   S769      1.0  0.26183  0.83651  0.94539  1.0000
  H   H4542     1.0  0.46035  0.88942  0.95690  1.0000
  S   S770      1.0  0.43078  0.91608  0.77656  1.0000
  H   H4543     1.0  0.42662  0.96425  0.72983  1.0000
  H   H4544     1.0  0.33500  0.84632  0.76196  1.0000
  S   S771      1.0  0.24688  0.96197  0.81632  1.0000
  C   C2667     1.0  0.31384  0.96051  0.77227  1.0000
  N   N189      1.0  0.26292  0.88156  0.96817  1.0000
  H   H4545     1.0  0.24184  0.94608  0.89817  1.0000
  C   C2668     1.0  0.42588  0.74703  0.95006  1.0000
  H   H4546     1.0  0.30725  0.85464  0.75819  1.0000
  H   H4547     1.0  0.46194  0.86241  0.96618  1.0000
  N   N190      1.0  0.28865  0.92390  0.76265  1.0000
  C   C2669     1.0  0.27431  0.88841  0.95422  1.0000
  C   C2670     1.0  0.30459  0.92509  0.76361  1.0000
  C   C2671     1.0  0.27699  0.93889  0.76492  1.0000
  C   C2672     1.0  0.28304  0.91005  0.77401  1.0000
  H   H4548     1.0  0.16311  0.73955  0.82746  1.0000
  C   C2673     1.0  0.15235  0.73509  0.83373  1.0000
  C   C2674     1.0  0.27359  0.94286  0.78094  1.0000
  C   C2675     1.0  0.28652  0.90588  0.79049  1.0000
  H   H4549     1.0  0.29567  0.88372  0.96338  1.0000
  H   H4550     1.0  0.33065  0.83149  0.72867  1.0000
  H   H4551     1.0  0.30465  0.92703  0.77499  1.0000
  H   H4552     1.0  0.30806  0.93559  0.75513  1.0000
  H   H4553     1.0  0.28087  0.94895  0.75601  1.0000
  H   H4554     1.0  0.26535  0.93878  0.76335  1.0000
  H   H4555     1.0  0.27013  0.91172  0.77552  1.0000
  H   H4556     1.0  0.28833  0.89937  0.76919  1.0000
  H   H4557     1.0  0.28517  0.93396  0.89065  1.0000
  C   C2676     1.0  0.42724  0.74494  0.90085  1.0000
  H   H4558     1.0  0.37288  0.94388  0.78292  1.0000
  Fe  Fe384     1.0  0.24665  0.96426  0.84023  1.0000
  H   H4559     1.0  0.29895  0.88656  0.94274  1.0000
  H   H4560     1.0  0.34809  0.97841  0.76052  1.0000
  H   H4561     1.0  0.40644  0.73335  0.86262  1.0000
  N   N191      1.0  0.40301  0.96183  0.75813  1.0000
  H   H4562     1.0  0.24071  0.81742  0.76212  1.0000
  C   C2677     1.0  0.43654  0.76572  0.87995  1.0000
  C   C2678     1.0  0.33089  0.97475  0.80266  1.0000
  H   H4563     1.0  0.27226  0.88709  0.94327  1.0000
  C   C2679     1.0  0.24696  0.89231  0.96880  1.0000
  C   C2680     1.0  0.44186  0.77838  0.90661  1.0000
  C   C2681     1.0  0.26264  0.86571  0.96647  1.0000
  C   C2682     1.0  0.26140  0.95555  0.88073  1.0000
  H   H4564     1.0  0.38319  0.98099  0.76302  1.0000
  C   C2683     1.0  0.26838  0.93158  0.91219  1.0000
  Fe  Fe385     1.0  0.45148  0.92697  0.76585  1.0000
  H   H4565     1.0  0.29992  0.88032  0.74339  1.0000
  S   S772      1.0  0.45455  0.78364  0.96824  1.0000
  Fe  Fe386     1.0  0.35743  0.92507  0.74968  1.0000
  H   H4566     1.0  0.47669  0.95026  0.79497  1.0000
  C   C2684     1.0  0.31809  0.91096  0.76056  1.0000
  S   S773      1.0  0.45589  0.94390  0.77686  1.0000
  C   C2685     1.0  0.47495  0.83825  0.95085  1.0000
  Fe  Fe387     1.0  0.28397  0.82717  0.95433  1.0000
  C   C2686     1.0  0.35661  0.74276  0.86529  1.0000
  C   C2687     1.0  0.42596  0.90992  0.76237  1.0000
  H   H4567     1.0  0.39436  0.90375  0.75384  1.0000
  H   H4568     1.0  0.17201  0.83749  0.75638  1.0000
  H   H4569     1.0  0.29857  0.91150  0.74384  1.0000
  C   C2688     1.0  0.43686  0.90822  0.74844  1.0000
  H   H4570     1.0  0.49006  0.86931  0.92745  1.0000
  H   H4571     1.0  0.30617  0.83982  0.96676  1.0000
  Fe  Fe388     1.0  0.34860  0.73330  0.92513  1.0000
  H   H4572     1.0  0.32968  0.86658  0.75371  1.0000
  N   N192      1.0  0.43765  0.75650  0.89628  1.0000
  H   H4573     1.0  0.28885  0.95587  0.86058  1.0000
  S   S774      1.0  0.24935  0.86051  0.72778  1.0000
  C   C2689     1.0  0.38122  0.73831  0.87365  1.0000
  H   H4574     1.0  0.41990  0.77437  0.90665  1.0000
  H   H4575     1.0  0.45371  0.77221  0.90851  1.0000
  Fe  Fe389     1.0  0.44524  0.76835  0.95930  1.0000
  H   H4576     1.0  0.43769  0.74544  0.95143  1.0000
  H   H4577     1.0  0.26242  0.93730  0.92212  1.0000
  Fe  Fe390     1.0  0.47621  0.74481  0.95526  1.0000
  H   H4578     1.0  0.47488  0.86214  0.92489  1.0000
  H   H4579     1.0  0.47887  0.82606  0.97423  1.0000
  H   H4580     1.0  0.38415  0.93689  0.76607  1.0000
  H   H4581     1.0  0.34868  0.75343  0.97009  1.0000
  H   H4582     1.0  0.38976  0.95936  0.78205  1.0000
  H   H4583     1.0  0.16365  0.75045  0.84716  1.0000
  H   H4584     1.0  0.48930  0.74900  0.90231  1.0000
  H   H4585     1.0  0.23725  0.88344  0.95410  1.0000
  Fe  Fe391     1.0  0.22543  0.87535  0.73463  1.0000
  H   H4586     1.0  0.37265  0.95672  0.76424  1.0000
  C   C2690     1.0  0.39442  0.95254  0.77276  1.0000
  C   C2691     1.0  0.41734  0.96401  0.76180  1.0000
  H   H4587     1.0  0.26053  0.86631  0.95491  1.0000
  H   H4588     1.0  0.45602  0.77797  0.87505  1.0000
  H   H4589     1.0  0.46062  0.76178  0.86576  1.0000
  C   C2692     1.0  0.46667  0.86559  0.95351  1.0000
  H   H4590     1.0  0.37435  0.73687  0.88588  1.0000
  H   H4591     1.0  0.29864  0.77999  0.96109  1.0000
  H   H4592     1.0  0.44808  0.77967  0.85871  1.0000
  H   H4593     1.0  0.38153  0.75088  0.86996  1.0000
  C   C2693     1.0  0.45703  0.73664  0.91233  1.0000
  C   C2694     1.0  0.37527  0.73563  0.83431  1.0000
  H   H4594     1.0  0.40257  0.94180  0.77757  1.0000
  H   H4595     1.0  0.25979  0.92859  0.90768  1.0000
  H   H4596     1.0  0.32106  0.97037  0.81142  1.0000
  C   C2695     1.0  0.46914  0.83050  0.96795  1.0000
  C   C2696     1.0  0.33189  0.85479  0.75138  1.0000
  H   H4597     1.0  0.28863  0.77932  0.93487  1.0000
  C   C2697     1.0  0.26030  0.96678  0.90284  1.0000
  H   H4598     1.0  0.29073  0.96715  0.88862  1.0000
  H   H4599     1.0  0.26091  0.77327  0.96243  1.0000
  C   C2698     1.0  0.40972  0.75197  0.90062  1.0000
  C   C2699     1.0  0.28328  0.96583  0.88147  1.0000
  C   C2700     1.0  0.26841  0.97057  0.91364  1.0000
  H   H4600     1.0  0.25927  0.97589  0.92272  1.0000
  C   C2701     1.0  0.35562  0.97530  0.73691  1.0000
  H   H4601     1.0  0.30263  0.83105  0.74196  1.0000
  C   C2702     1.0  0.27502  0.76320  0.93530  1.0000
  H   H4602     1.0  0.27553  0.97940  0.90723  1.0000
  H   H4603     1.0  0.29082  0.74996  0.89588  1.0000
  H   H4604     1.0  0.27783  0.97790  0.87602  1.0000
  H   H4605     1.0  0.46495  0.82009  0.96823  1.0000
  H   H4606     1.0  0.34174  0.96883  0.80709  1.0000
  H   H4607     1.0  0.13824  0.75268  0.85964  1.0000
  C   C2703     1.0  0.39205  0.97706  0.75293  1.0000
  H   H4608     1.0  0.11933  0.74211  0.85730  1.0000
  H   H4609     1.0  0.22788  0.90276  0.95656  1.0000
  H   H4610     1.0  0.40390  0.75889  0.90967  1.0000
  H   H4611     1.0  0.47717  0.85109  0.74311  1.0000
  S   S775      1.0  0.48807  0.75786  0.96423  1.0000
  H   H4612     1.0  0.29468  0.93212  0.73755  1.0000
  C   C2704     1.0  0.17093  0.74627  0.86850  1.0000
  H   H4613     1.0  0.36802  0.86201  0.73717  1.0000
  H   H4614     1.0  0.24668  0.89952  0.94373  1.0000
  H   H4615     1.0  0.27382  0.75099  0.94023  1.0000
  H   H4616     1.0  0.33250  0.97108  0.79164  1.0000
  H   H4617     1.0  0.30256  0.96627  0.86110  1.0000
  C   C2705     1.0  0.16706  0.74005  0.85628  1.0000
  H   H4618     1.0  0.45824  0.73993  0.88788  1.0000
  H   H4619     1.0  0.38293  0.73876  0.82268  1.0000
  C   C2706     1.0  0.27169  0.77586  0.96370  1.0000
  H   H4620     1.0  0.41268  0.96261  0.78691  1.0000
  H   H4621     1.0  0.30690  0.73888  0.90414  1.0000
  S   S776      1.0  0.34269  0.93792  0.73208  1.0000
  C   C2707     1.0  0.31550  0.74069  0.83595  1.0000
  H   H4622     1.0  0.32548  0.76379  0.95667  1.0000
  C   C2708     1.0  0.40674  0.73769  0.94313  1.0000
  H   H4623     1.0  0.49287  0.83757  0.92063  1.0000
  H   H4624     1.0  0.42456  0.97607  0.77519  1.0000
  H   H4625     1.0  0.40374  0.98122  0.77625  1.0000
  H   H4626     1.0  0.35017  0.73892  0.85884  1.0000
  H   H4627     1.0  0.31963  0.88131  0.73370  1.0000
  C   C2709     1.0  0.41421  0.97149  0.77586  1.0000
  H   H4628     1.0  0.11483  0.73891  0.87787  1.0000
  H   H4629     1.0  0.30087  0.73652  0.94797  1.0000
  H   H4630     1.0  0.28209  0.73508  0.92057  1.0000
  H   H4631     1.0  0.30103  0.76158  0.97397  1.0000
  C   C2710     1.0  0.29823  0.85652  0.73222  1.0000
  S   S777      1.0  0.45485  0.74602  0.97473  1.0000
  C   C2711     1.0  0.12413  0.73568  0.86778  1.0000
  C   C2712     1.0  0.49206  0.76046  0.90095  1.0000
  H   H4632     1.0  0.27770  0.91878  0.73066  1.0000
  N   N193      1.0  0.37346  0.73395  0.86337  1.0000
  C   C2713     1.0  0.29618  0.73434  0.96066  1.0000
  H   H4633     1.0  0.49295  0.86466  0.76196  1.0000
  H   H4634     1.0  0.25140  0.84600  0.97614  1.0000
  H   H4635     1.0  0.27326  0.90333  0.97592  1.0000
  H   H4636     1.0  0.17827  0.73335  0.85044  1.0000
  S   S778      1.0  0.21691  0.73357  0.86552  1.0000
  H   H4637     1.0  0.62299  0.03850  0.11463  1.0000
  H   H4638     1.0  0.50288  0.21980  0.08663  1.0000
  C   C2714     1.0  0.56572  0.00108  0.21752  1.0000
  H   H4639     1.0  0.60824  0.22472  0.10934  1.0000
  S   S779      1.0  0.62965  0.16034  0.21755  1.0000
  H   H4640     1.0  0.53404  0.22833  0.04899  1.0000
  H   H4641     1.0  0.60841  0.22472  0.08211  1.0000
  C   C2715     1.0  0.57645  0.04151  0.12090  1.0000
  C   C2716     1.0  0.61311  0.15198  0.18755  1.0000
  H   H4642     1.0  0.57509  0.13418  0.19817  1.0000
  H   H4643     1.0  0.61424  0.06469  0.22040  1.0000
  Fe  Fe392     1.0  0.56432  0.07754  0.17185  1.0000
  S   S780      1.0  0.58434  0.06355  0.18311  1.0000
  S   S781      1.0  0.54120  0.08771  0.18580  1.0000
  Fe  Fe393     1.0  0.58279  0.07428  0.13961  1.0000
  S   S782      1.0  0.60457  0.06023  0.14792  1.0000
  S   S783      1.0  0.57944  0.07986  0.11518  1.0000
  Fe  Fe394     1.0  0.58785  0.04755  0.16703  1.0000
  S   S784      1.0  0.59275  0.02121  0.17532  1.0000
  Fe  Fe395     1.0  0.59885  0.07752  0.16321  1.0000
  S   S785      1.0  0.61423  0.09172  0.16602  1.0000
  S   S786      1.0  0.56656  0.06054  0.15749  1.0000
  S   S787      1.0  0.57845  0.09261  0.15308  1.0000
  Fe  Fe396     1.0  0.59757  0.15127  0.06463  1.0000
  S   S788      1.0  0.60410  0.17188  0.04634  1.0000
  S   S789      1.0  0.61615  0.13053  0.07179  1.0000
  Fe  Fe397     1.0  0.56387  0.16806  0.07421  1.0000
  S   S790      1.0  0.56803  0.18988  0.05669  1.0000
  S   S791      1.0  0.53994  0.16932  0.09001  1.0000
  Fe  Fe398     1.0  0.58102  0.17404  0.04045  1.0000
  Fe  Fe399     1.0  0.59030  0.18549  0.06464  1.0000
  S   S792      1.0  0.59864  0.20467  0.06913  1.0000
  S   S793      1.0  0.57543  0.15230  0.05747  1.0000
  S   S794      1.0  0.58525  0.16468  0.08325  1.0000
  C   C2717     1.0  0.62358  0.02020  0.13513  1.0000
  C   C2718     1.0  0.58502  0.00980  0.16782  1.0000
  H   H4644     1.0  0.63141  0.15818  0.16674  1.0000
  C   C2719     1.0  0.55445  0.00172  0.20729  1.0000
  C   C2720     1.0  0.53399  0.18910  0.09060  1.0000
  C   C2721     1.0  0.54552  0.19735  0.08844  1.0000
  C   C2722     1.0  0.51032  0.20273  0.05374  1.0000
  H   H4645     1.0  0.59114  0.03269  0.13756  1.0000
  C   C2723     1.0  0.55234  0.22561  0.02858  1.0000
  C   C2724     1.0  0.51843  0.19716  0.09065  1.0000
  H   H4646     1.0  0.55744  0.19118  0.08896  1.0000
  C   C2725     1.0  0.56240  0.15989  0.99149  1.0000
  C   C2726     1.0  0.56196  0.17061  0.00007  1.0000
  H   H4647     1.0  0.50943  0.19081  0.09247  1.0000
  C   C2727     1.0  0.59066  0.09290  0.10268  1.0000
  C   C2728     1.0  0.58694  0.10083  0.08831  1.0000
  C   C2729     1.0  0.59486  0.11235  0.07874  1.0000
  C   C2730     1.0  0.60699  0.11544  0.08323  1.0000
  C   C2731     1.0  0.61124  0.10698  0.09727  1.0000
  C   C2732     1.0  0.60287  0.09589  0.10715  1.0000
  H   H4648     1.0  0.57759  0.09842  0.08477  1.0000
  H   H4649     1.0  0.59171  0.11872  0.06780  1.0000
  H   H4650     1.0  0.62071  0.10926  0.10069  1.0000
  H   H4651     1.0  0.60583  0.08970  0.11823  1.0000
  C   C2733     1.0  0.53625  0.07202  0.20067  1.0000
  C   C2734     1.0  0.54585  0.05718  0.20046  1.0000
  C   C2735     1.0  0.60050  0.16508  0.16471  1.0000
  C   C2736     1.0  0.50977  0.22006  0.04582  1.0000
  H   H4652     1.0  0.54678  0.22061  0.12845  1.0000
  C   C2737     1.0  0.52348  0.07425  0.21313  1.0000
  H   H4653     1.0  0.55545  0.05520  0.19076  1.0000
  H   H4654     1.0  0.56801  0.04862  0.12897  1.0000
  C   C2738     1.0  0.58447  0.15370  0.00973  1.0000
  H   H4655     1.0  0.51587  0.08567  0.21322  1.0000
  C   C2739     1.0  0.55418  0.22607  0.13220  1.0000
  C   C2740     1.0  0.59763  0.20486  0.11936  1.0000
  C   C2741     1.0  0.59151  0.19384  0.11629  1.0000
  C   C2742     1.0  0.59122  0.19410  0.10100  1.0000
  C   C2743     1.0  0.59756  0.20502  0.08857  1.0000
  C   C2744     1.0  0.60354  0.21618  0.09166  1.0000
  C   C2745     1.0  0.53728  0.22141  0.03989  1.0000
  H   H4656     1.0  0.58685  0.18514  0.12580  1.0000
  H   H4657     1.0  0.58616  0.18578  0.09887  1.0000
  C   C2746     1.0  0.62104  0.02639  0.11833  1.0000
  C   C2747     1.0  0.56789  0.00738  0.15280  1.0000
  C   C2748     1.0  0.59687  0.20793  0.20802  1.0000
  C   C2749     1.0  0.61232  0.20521  0.19948  1.0000
  C   C2750     1.0  0.62242  0.19066  0.20280  1.0000
  C   C2751     1.0  0.61711  0.17875  0.21470  1.0000
  H   H4658     1.0  0.61534  0.13986  0.18617  1.0000
  S   S795      1.0  0.59847  0.20358  0.13862  1.0000
  H   H4659     1.0  0.61658  0.21440  0.19041  1.0000
  H   H4660     1.0  0.63431  0.18858  0.19599  1.0000
  C   C2752     1.0  0.58506  0.14308  0.00092  1.0000
  C   C2753     1.0  0.60170  0.01018  0.12250  1.0000
  H   H4661     1.0  0.57654  0.04874  0.10897  1.0000
  C   C2754     1.0  0.61918  0.10173  0.20465  1.0000
  C   C2755     1.0  0.61828  0.10270  0.18931  1.0000
  C   C2756     1.0  0.61536  0.09019  0.18530  1.0000
  C   C2757     1.0  0.61366  0.07658  0.19663  1.0000
  H   H4662     1.0  0.55777  0.21754  0.02052  1.0000
  H   H4663     1.0  0.62148  0.11139  0.20766  1.0000
  H   H4664     1.0  0.61989  0.11311  0.18051  1.0000
  H   H4665     1.0  0.61181  0.06675  0.19356  1.0000
  H   H4666     1.0  0.55882  0.01275  0.14621  1.0000
  C   C2758     1.0  0.51478  0.21356  0.08714  1.0000
  C   C2759     1.0  0.60550  0.03075  0.09897  1.0000
  H   H4667     1.0  0.59584  0.17590  0.19879  1.0000
  H   H4668     1.0  0.52234  0.00382  0.18441  1.0000
  H   H4669     1.0  0.59993  0.17657  0.98466  1.0000
  H   H4670     1.0  0.57995  0.07162  0.21412  1.0000
  H   H4671     1.0  0.57185  0.03109  0.12232  1.0000
  C   C2760     1.0  0.52678  0.22171  0.08328  1.0000
  H   H4672     1.0  0.56702  0.02855  0.15933  1.0000
  C   C2761     1.0  0.62853  0.15748  0.17945  1.0000
  H   H4673     1.0  0.59393  0.13107  0.20209  1.0000
  H   H4674     1.0  0.55104  0.22408  0.14510  1.0000
  H   H4675     1.0  0.55306  0.18132  0.99960  1.0000
  N   N194      1.0  0.63525  0.15650  0.09373  1.0000
  C   C2762     1.0  0.62368  0.15389  0.10910  1.0000
  C   C2763     1.0  0.64552  0.16646  0.09474  1.0000
  C   C2764     1.0  0.64541  0.14132  0.09003  1.0000
  C   C2765     1.0  0.62622  0.16441  0.08110  1.0000
  C   C2766     1.0  0.61435  0.14128  0.11172  1.0000
  C   C2767     1.0  0.63746  0.18365  0.09497  1.0000
  C   C2768     1.0  0.65520  0.13133  0.10208  1.0000
  C   C2769     1.0  0.63607  0.16874  0.06446  1.0000
  H   H4676     1.0  0.62959  0.15074  0.11904  1.0000
  H   H4677     1.0  0.61483  0.16485  0.11061  1.0000
  H   H4678     1.0  0.65615  0.16626  0.08513  1.0000
  H   H4679     1.0  0.65027  0.16166  0.10550  1.0000
  H   H4680     1.0  0.63827  0.13403  0.08837  1.0000
  H   H4681     1.0  0.65388  0.14342  0.07868  1.0000
  H   H4682     1.0  0.61901  0.15681  0.08030  1.0000
  H   H4683     1.0  0.61735  0.17493  0.08391  1.0000
  H   H4684     1.0  0.60538  0.14147  0.12276  1.0000
  H   H4685     1.0  0.60807  0.14324  0.10235  1.0000
  H   H4686     1.0  0.62195  0.12941  0.11300  1.0000
  H   H4687     1.0  0.64579  0.18957  0.09670  1.0000
  H   H4688     1.0  0.63406  0.19009  0.08378  1.0000
  H   H4689     1.0  0.62704  0.18475  0.10467  1.0000
  H   H4690     1.0  0.64788  0.12849  0.11393  1.0000
  H   H4691     1.0  0.66434  0.13706  0.10243  1.0000
  H   H4692     1.0  0.66139  0.12009  0.09862  1.0000
  H   H4693     1.0  0.63801  0.15945  0.05803  1.0000
  H   H4694     1.0  0.64759  0.17082  0.06404  1.0000
  H   H4695     1.0  0.62967  0.17982  0.05811  1.0000
  N   N195      1.0  0.54481  0.12746  0.12162  1.0000
  C   C2770     1.0  0.55582  0.13678  0.12247  1.0000
  C   C2771     1.0  0.52830  0.13676  0.12585  1.0000
  C   C2772     1.0  0.54843  0.12533  0.10510  1.0000
  C   C2773     1.0  0.54775  0.11195  0.13281  1.0000
  C   C2774     1.0  0.57348  0.13063  0.11617  1.0000
  C   C2775     1.0  0.52306  0.13975  0.14249  1.0000
  C   C2776     1.0  0.53521  0.12249  0.09942  1.0000
  C   C2777     1.0  0.53693  0.10083  0.13503  1.0000
  H   H4696     1.0  0.55277  0.14905  0.11594  1.0000
  H   H4697     1.0  0.55471  0.13745  0.13468  1.0000
  H   H4698     1.0  0.51946  0.13121  0.12461  1.0000
  H   H4699     1.0  0.52675  0.14832  0.11760  1.0000
  H   H4700     1.0  0.55193  0.13581  0.09663  1.0000
  H   H4701     1.0  0.55867  0.11551  0.10324  1.0000
  H   H4702     1.0  0.55977  0.10523  0.12894  1.0000
  H   H4703     1.0  0.54783  0.11329  0.14451  1.0000
  H   H4704     1.0  0.57624  0.13062  0.10360  1.0000
  H   H4705     1.0  0.58014  0.13851  0.11746  1.0000
  H   H4706     1.0  0.57799  0.11886  0.12278  1.0000
  H   H4707     1.0  0.52975  0.14733  0.14427  1.0000
  H   H4708     1.0  0.51055  0.14602  0.14438  1.0000
  H   H4709     1.0  0.52382  0.12874  0.15148  1.0000
  H   H4710     1.0  0.54014  0.11948  0.08781  1.0000
  H   H4711     1.0  0.52589  0.13325  0.09780  1.0000
  H   H4712     1.0  0.53003  0.11275  0.10718  1.0000
  H   H4713     1.0  0.54144  0.09359  0.12612  1.0000
  H   H4714     1.0  0.52457  0.10677  0.13502  1.0000
  H   H4715     1.0  0.53661  0.09293  0.14673  1.0000
  H   H4716     1.0  0.53283  0.20013  0.02779  1.0000
  H   H4717     1.0  0.59038  0.00992  0.12022  1.0000
  H   H4718     1.0  0.60208  0.05197  0.08089  1.0000
  H   H4719     1.0  0.60383  0.05583  0.09806  1.0000
  H   H4720     1.0  0.59644  0.04843  0.12315  1.0000
  H   H4721     1.0  0.59186  0.13280  0.18257  1.0000
  H   H4722     1.0  0.58008  0.15770  0.20251  1.0000
  H   H4723     1.0  0.54069  0.20915  0.04615  1.0000
  C   C2778     1.0  0.53289  0.99218  0.20444  1.0000
  H   H4724     1.0  0.61335  0.14076  0.16306  1.0000
  H   H4725     1.0  0.56057  0.00489  0.19490  1.0000
  H   H4726     1.0  0.63074  0.01970  0.11067  1.0000
  H   H4727     1.0  0.62348  0.00764  0.13943  1.0000
  H   H4728     1.0  0.62110  0.04681  0.08583  1.0000
  N   N196      1.0  0.52358  0.22338  0.03275  1.0000
  C   C2779     1.0  0.54205  0.21359  0.08431  1.0000
  H   H4729     1.0  0.61479  0.02685  0.14336  1.0000
  H   H4730     1.0  0.57431  0.00836  0.21060  1.0000
  H   H4731     1.0  0.61149  0.15086  0.20030  1.0000
  H   H4732     1.0  0.61499  0.02260  0.09268  1.0000
  S   S796      1.0  0.58386  0.22571  0.20297  1.0000
  C   C2780     1.0  0.59279  0.03736  0.12482  1.0000
  C   C2781     1.0  0.58688  0.98474  0.16209  1.0000
  H   H4733     1.0  0.55139  0.21975  0.08137  1.0000
  H   H4734     1.0  0.50040  0.20192  0.06404  1.0000
  H   H4735     1.0  0.57978  0.20006  0.18751  1.0000
  C   C2782     1.0  0.57386  0.09652  0.20769  1.0000
  H   H4736     1.0  0.56659  0.21998  0.12897  1.0000
  C   C2783     1.0  0.57518  0.99161  0.15352  1.0000
  C   C2784     1.0  0.51511  0.21231  0.01400  1.0000
  C   C2785     1.0  0.59178  0.99383  0.16921  1.0000
  C   C2786     1.0  0.56944  0.08093  0.21702  1.0000
  C   C2787     1.0  0.53428  0.99868  0.18676  1.0000
  C   C2788     1.0  0.57263  0.01639  0.16011  1.0000
  H   H4737     1.0  0.60327  0.19848  0.99144  1.0000
  C   C2789     1.0  0.58033  0.18935  0.18370  1.0000
  H   H4738     1.0  0.50893  0.19614  0.04589  1.0000
  H   H4739     1.0  0.54103  0.00800  0.18220  1.0000
  C   C2790     1.0  0.58672  0.13731  0.19331  1.0000
  H   H4740     1.0  0.59315  0.15136  0.01661  1.0000
  S   S797      1.0  0.57408  0.18254  0.01723  1.0000
  C   C2791     1.0  0.58448  0.15514  0.19062  1.0000
  C   C2792     1.0  0.57322  0.16773  0.00890  1.0000
  C   C2793     1.0  0.57435  0.14641  0.99136  1.0000
  N   N197      1.0  0.59859  0.16213  0.18208  1.0000
  C   C2794     1.0  0.60525  0.15072  0.15738  1.0000
  H   H4741     1.0  0.57879  0.09575  0.19531  1.0000
  H   H4742     1.0  0.50309  0.21534  0.02099  1.0000
  H   H4743     1.0  0.55131  0.03359  0.21303  1.0000
  H   H4744     1.0  0.60534  0.18391  0.17965  1.0000
  C   C2795     1.0  0.54329  0.04476  0.21299  1.0000
  H   H4745     1.0  0.62841  0.16876  0.18182  1.0000
  H   H4746     1.0  0.52440  0.00141  0.21015  1.0000
  C   C2796     1.0  0.60838  0.04721  0.09059  1.0000
  Fe  Fe400     1.0  0.59558  0.22581  0.14637  1.0000
  H   H4747     1.0  0.54458  0.01186  0.20934  1.0000
  H   H4748     1.0  0.59472  0.14690  0.15721  1.0000
  H   H4749     1.0  0.59463  0.02943  0.09653  1.0000
  H   H4750     1.0  0.61182  0.15386  0.14521  1.0000
  H   H4751     1.0  0.56112  0.22431  0.03548  1.0000
  H   H4752     1.0  0.51586  0.22068  0.00254  1.0000
  H   H4753     1.0  0.59420  0.13256  0.00105  1.0000
  C   C2797     1.0  0.61504  0.07544  0.21183  1.0000
  N   N198      1.0  0.60528  0.02617  0.11612  1.0000
  C   C2798     1.0  0.59580  0.17767  0.18631  1.0000
  H   H4754     1.0  0.63828  0.14887  0.18426  1.0000
  H   H4755     1.0  0.56344  0.10632  0.20785  1.0000
  H   H4756     1.0  0.62570  0.99537  0.11833  1.0000
  H   H4757     1.0  0.58937  0.17198  0.16122  1.0000
  C   C2799     1.0  0.61764  0.08804  0.21593  1.0000
  C   C2800     1.0  0.60342  0.21622  0.10705  1.0000
  H   H4758     1.0  0.56982  0.18487  0.19076  1.0000
  H   H4759     1.0  0.57459  0.16056  0.18455  1.0000
  H   H4760     1.0  0.52127  0.19699  0.05800  1.0000
  C   C2801     1.0  0.61395  0.99667  0.11616  1.0000
  H   H4761     1.0  0.61477  0.99777  0.10362  1.0000
  H   H4762     1.0  0.60129  0.98861  0.17526  1.0000
  H   H4763     1.0  0.60004  0.00703  0.13536  1.0000
  H   H4764     1.0  0.57974  0.19302  0.17125  1.0000
  H   H4765     1.0  0.53806  0.21513  0.01227  1.0000
  H   H4766     1.0  0.50860  0.22611  0.05522  1.0000
  H   H4767     1.0  0.60892  0.17277  0.15842  1.0000
  H   H4768     1.0  0.63527  0.02154  0.13542  1.0000
  H   H4769     1.0  0.51651  0.20045  0.01218  1.0000
  C   C2802     1.0  0.52807  0.21230  0.02196  1.0000
  C   C2803     1.0  0.59172  0.19620  0.22038  1.0000
  H   H4770     1.0  0.56047  0.07905  0.21197  1.0000
  H   H4771     1.0  0.58295  0.09918  0.21187  1.0000
  H   H4772     1.0  0.49847  0.22491  0.04196  1.0000
  S   S798      1.0  0.57697  0.13442  0.97831  1.0000
  H   H4773     1.0  0.55370  0.16224  0.98472  1.0000
  S   S799      1.0  0.57322  0.23170  0.16370  1.0000
  H   H4774     1.0  0.53924  0.09538  0.22096  1.0000
  H   H4775     1.0  0.56534  0.22686  0.10262  1.0000
  N   N199      1.0  0.54804  0.98738  0.21009  1.0000
  H   H4776     1.0  0.61010  0.98561  0.12235  1.0000
  S   S800      1.0  0.61114  0.22796  0.16057  1.0000
  H   H4777     1.0  0.53956  0.98929  0.18013  1.0000
  H   H4778     1.0  0.57266  0.98942  0.22170  1.0000
  C   C2804     1.0  0.60183  0.18156  0.22371  1.0000
  H   H4779     1.0  0.57255  0.19601  0.97768  1.0000
  H   H4780     1.0  0.70081  0.23203  0.15785  1.0000
  C   C2805     1.0  0.60261  0.20024  0.97911  1.0000
  H   H4781     1.0  0.57085  0.04934  0.22642  1.0000
  C   C2806     1.0  0.52072  0.06165  0.22562  1.0000
  C   C2807     1.0  0.53090  0.04700  0.22567  1.0000
  H   H4782     1.0  0.59065  0.20693  0.97814  1.0000
  Fe  Fe401     1.0  0.62212  0.12227  0.26764  1.0000
  S   S801      1.0  0.60665  0.14539  0.25989  1.0000
  S   S802      1.0  0.63059  0.11809  0.28983  1.0000
  Fe  Fe402     1.0  0.59063  0.13166  0.25794  1.0000
  S   S803      1.0  0.56470  0.13445  0.26764  1.0000
  S   S804      1.0  0.60507  0.10877  0.26742  1.0000
  Fe  Fe403     1.0  0.73391  0.05885  0.44485  1.0000
  S   S805      1.0  0.72550  0.06170  0.42316  1.0000
  S   S806      1.0  0.75655  0.06214  0.44716  1.0000
  Fe  Fe404     1.0  0.70486  0.04969  0.46643  1.0000
  S   S807      1.0  0.69385  0.05120  0.44696  1.0000
  C   C2808     1.0  0.97400  0.19575  0.42865  1.0000
  Fe  Fe405     1.0  0.71751  0.03953  0.43548  1.0000
  S   S808      1.0  0.71946  0.02064  0.42335  1.0000
  Fe  Fe406     1.0  0.70251  0.07316  0.43632  1.0000
  S   S809      1.0  0.68607  0.09434  0.42657  1.0000
  S   S810      1.0  0.72786  0.03558  0.45618  1.0000
  S   S811      1.0  0.71163  0.07271  0.45663  1.0000
  H   H4783     1.0  0.53648  0.12386  0.32198  1.0000
  H   H4784     1.0  0.59881  0.14748  0.40765  1.0000
  H   H4785     1.0  0.60236  0.16758  0.36227  1.0000
  S   S812      1.0  0.65365  0.02579  0.40970  1.0000
  Fe  Fe407     1.0  0.60488  0.11818  0.46442  1.0000
  H   H4786     1.0  0.73513  0.98332  0.37191  1.0000
  H   H4787     1.0  0.99300  0.15927  0.41084  1.0000
  Fe  Fe408     1.0  0.57557  0.13954  0.45468  1.0000
  H   H4788     1.0  0.68428  0.10177  0.39508  1.0000
  Fe  Fe409     1.0  0.60585  0.15086  0.44575  1.0000
  H   H4789     1.0  0.62665  0.18564  0.28812  1.0000
  H   H4790     1.0  0.60121  0.18880  0.28089  1.0000
  S   S813      1.0  0.59945  0.13083  0.44115  1.0000
  H   H4791     1.0  0.75100  0.99817  0.42013  1.0000
  Fe  Fe410     1.0  0.67191  0.15090  0.34900  1.0000
  S   S814      1.0  0.65709  0.13663  0.36856  1.0000
  Fe  Fe411     1.0  0.70629  0.15032  0.33398  1.0000
  S   S815      1.0  0.70066  0.17020  0.31424  1.0000
  S   S816      1.0  0.73113  0.14076  0.33739  1.0000
  Fe  Fe412     1.0  0.68194  0.15859  0.31392  1.0000
  S   S817      1.0  0.67840  0.15677  0.29100  1.0000
  S   S818      1.0  0.68945  0.16189  0.35261  1.0000
  S   S819      1.0  0.68935  0.13759  0.33197  1.0000
  Fe  Fe413     1.0  0.80364  0.04946  0.36934  1.0000
  S   S820      1.0  0.78527  0.03742  0.36954  1.0000
  S   S821      1.0  0.81194  0.04900  0.39032  1.0000
  Fe  Fe414     1.0  0.81186  0.05900  0.33443  1.0000
  S   S822      1.0  0.79481  0.04698  0.33124  1.0000
  S   S823      1.0  0.82500  0.07552  0.31586  1.0000
  Fe  Fe415     1.0  0.77835  0.05769  0.35066  1.0000
  S   S824      1.0  0.75315  0.06756  0.34876  1.0000
  Fe  Fe416     1.0  0.80303  0.02749  0.35039  1.0000
  S   S825      1.0  0.80742  0.00130  0.35415  1.0000
  S   S826      1.0  0.79480  0.07096  0.35260  1.0000
  S   S827      1.0  0.82195  0.03839  0.35139  1.0000
  H   H4792     1.0  0.94153  0.12635  0.29384  1.0000
  H   H4793     1.0  0.56501  0.02695  0.43980  1.0000
  H   H4794     1.0  0.91686  0.10423  0.34916  1.0000
  H   H4795     1.0  0.58222  0.10675  0.29660  1.0000
  H   H4796     1.0  0.63196  0.20449  0.25175  1.0000
  H   H4797     1.0  0.61759  0.08605  0.32543  1.0000
  H   H4798     1.0  0.89295  0.12770  0.28809  1.0000
  Fe  Fe417     1.0  0.53772  0.12093  0.35553  1.0000
  S   S828      1.0  0.55464  0.09949  0.36436  1.0000
  S   S829      1.0  0.54888  0.13958  0.33800  1.0000
  C   C2809     1.0  0.81625  0.18889  0.33009  1.0000
  S   S830      1.0  0.55478  0.09448  0.40630  1.0000
  C   C2810     1.0  0.76674  0.11730  0.30349  1.0000
  H   H4799     1.0  0.67082  0.08272  0.38174  1.0000
  C   C2811     1.0  0.93069  0.14477  0.41406  1.0000
  C   C2812     1.0  0.91041  0.08364  0.31568  1.0000
  H   H4800     1.0  0.65442  0.18551  0.28233  1.0000
  H   H4801     1.0  0.90650  0.13329  0.30438  1.0000
  H   H4802     1.0  0.77690  0.12354  0.32624  1.0000
  Fe  Fe418     1.0  0.51898  0.04121  0.26327  1.0000
  S   S831      1.0  0.53151  0.03246  0.28298  1.0000
  Fe  Fe419     1.0  0.50747  0.03096  0.29773  1.0000
  Fe  Fe420     1.0  0.52457  0.05751  0.28492  1.0000
  S   S832      1.0  0.53902  0.07271  0.28696  1.0000
  S   S833      1.0  0.97618  0.13208  0.39003  1.0000
  S   S834      1.0  0.51407  0.06645  0.26391  1.0000
  C   C2813     1.0  0.60801  0.08226  0.43783  1.0000
  C   C2814     1.0  0.50553  0.10907  0.27876  1.0000
  C   C2815     1.0  0.61891  0.07925  0.31667  1.0000
  C   C2816     1.0  0.55620  0.06577  0.24117  1.0000
  S   S835      1.0  0.97455  0.16457  0.36292  1.0000
  S   S836      1.0  0.96176  0.17142  0.40485  1.0000
  Fe  Fe421     1.0  0.97543  0.13938  0.36465  1.0000
  S   S837      1.0  0.95855  0.12795  0.35999  1.0000
  H   H4803     1.0  0.69588  0.21210  0.38790  1.0000
  Fe  Fe422     1.0  0.86060  0.12490  0.34591  1.0000
  S   S838      1.0  0.86647  0.14140  0.32303  1.0000
  S   S839      1.0  0.86433  0.09907  0.34842  1.0000
  Fe  Fe423     1.0  0.85327  0.14982  0.36446  1.0000
  S   S840      1.0  0.85843  0.16813  0.34302  1.0000
  S   S841      1.0  0.84733  0.15732  0.38708  1.0000
  Fe  Fe424     1.0  0.84490  0.15774  0.33313  1.0000
  H   H4804     1.0  0.58142  0.18310  0.41356  1.0000
  Fe  Fe425     1.0  0.87937  0.15003  0.33555  1.0000
  S   S842      1.0  0.90246  0.15751  0.32507  1.0000
  S   S843      1.0  0.83808  0.14060  0.35520  1.0000
  S   S844      1.0  0.87504  0.13226  0.35773  1.0000
  C   C2817     1.0  0.94244  0.13768  0.35127  1.0000
  C   C2818     1.0  0.92942  0.13085  0.35554  1.0000
  C   C2819     1.0  0.91667  0.13753  0.34829  1.0000
  C   C2820     1.0  0.91712  0.15069  0.33613  1.0000
  C   C2821     1.0  0.93013  0.15760  0.33185  1.0000
  C   C2822     1.0  0.94269  0.15123  0.33955  1.0000
  H   H4805     1.0  0.92922  0.12028  0.36449  1.0000
  H   H4806     1.0  0.90681  0.13210  0.35174  1.0000
  H   H4807     1.0  0.93063  0.16773  0.32239  1.0000
  H   H4808     1.0  0.95280  0.15645  0.33602  1.0000
  H   H4809     1.0  0.61884  0.06690  0.32239  1.0000
  H   H4810     1.0  0.65701  0.18512  0.26257  1.0000
  C   C2823     1.0  0.56981  0.16920  0.40578  1.0000
  H   H4811     1.0  0.95339  0.19623  0.42102  1.0000
  C   C2824     1.0  0.62427  0.09764  0.40653  1.0000
  H   H4812     1.0  0.58868  0.08276  0.45801  1.0000
  H   H4813     1.0  0.67337  0.21008  0.41173  1.0000
  C   C2825     1.0  0.87457  0.16736  0.37357  1.0000
  C   C2826     1.0  0.86088  0.16852  0.38522  1.0000
  C   C2827     1.0  0.85782  0.17915  0.39473  1.0000
  H   H4814     1.0  0.92935  0.20048  0.43895  1.0000
  H   H4815     1.0  0.58716  0.18452  0.38183  1.0000
  H   H4816     1.0  0.87729  0.15902  0.36638  1.0000
  H   H4817     1.0  0.84728  0.18003  0.40382  1.0000
  C   C2828     1.0  0.81011  0.20049  0.35249  1.0000
  C   C2829     1.0  0.97228  0.17729  0.41482  1.0000
  C   C2830     1.0  0.96530  0.19019  0.42167  1.0000
  C   C2831     1.0  0.49919  0.09555  0.31323  1.0000
  H   H4818     1.0  0.51955  0.98943  0.23607  1.0000
  H   H4819     1.0  0.64834  0.18768  0.23969  1.0000
  H   H4820     1.0  0.54551  0.05886  0.40652  1.0000
  H   H4821     1.0  0.51647  0.10239  0.28265  1.0000
  H   H4822     1.0  0.55130  0.15569  0.39555  1.0000
  N   N200      1.0  0.62436  0.18336  0.26598  1.0000
  H   H4823     1.0  0.94379  0.12642  0.40073  1.0000
  H   H4824     1.0  0.51074  0.06328  0.23515  1.0000
  C   C2832     1.0  0.53950  0.05588  0.31669  1.0000
  C   C2833     1.0  0.53983  0.07030  0.30634  1.0000
  C   C2834     1.0  0.54114  0.08288  0.31141  1.0000
  C   C2835     1.0  0.54226  0.08102  0.32678  1.0000
  H   H4825     1.0  0.94893  0.10538  0.29911  1.0000
  C   C2836     1.0  0.54617  0.04900  0.40126  1.0000
  H   H4826     1.0  0.54137  0.09404  0.30340  1.0000
  H   H4827     1.0  0.54363  0.09069  0.33050  1.0000
  C   C2837     1.0  0.83652  0.08218  0.32416  1.0000
  C   C2838     1.0  0.83685  0.09805  0.32060  1.0000
  C   C2839     1.0  0.84543  0.10342  0.32792  1.0000
  C   C2840     1.0  0.85405  0.09283  0.33844  1.0000
  C   C2841     1.0  0.85413  0.07695  0.34153  1.0000
  C   C2842     1.0  0.84515  0.07168  0.33466  1.0000
  H   H4828     1.0  0.83028  0.10622  0.31241  1.0000
  H   H4829     1.0  0.84537  0.11570  0.32542  1.0000
  H   H4830     1.0  0.86087  0.06869  0.34956  1.0000
  H   H4831     1.0  0.84510  0.05942  0.33734  1.0000
  H   H4832     1.0  0.55476  0.01595  0.40809  1.0000
  H   H4833     1.0  0.90503  0.22810  0.45086  1.0000
  H   H4834     1.0  0.80271  0.00763  0.38570  1.0000
  C   C2843     1.0  0.79233  0.99413  0.35190  1.0000
  C   C2844     1.0  0.78154  0.00353  0.34300  1.0000
  C   C2845     1.0  0.77033  0.99718  0.34039  1.0000
  H   H4835     1.0  0.92910  0.09420  0.29995  1.0000
  H   H4836     1.0  0.89802  0.08998  0.31713  1.0000
  H   H4837     1.0  0.78214  0.01554  0.33771  1.0000
  H   H4838     1.0  0.76232  0.00435  0.33307  1.0000
  C   C2846     1.0  0.73702  0.12043  0.34069  1.0000
  C   C2847     1.0  0.73040  0.11187  0.33472  1.0000
  C   C2848     1.0  0.73564  0.09563  0.33700  1.0000
  C   C2849     1.0  0.74753  0.08793  0.34520  1.0000
  C   C2850     1.0  0.75422  0.09651  0.35108  1.0000
  C   C2851     1.0  0.74901  0.11275  0.34877  1.0000
  H   H4839     1.0  0.72146  0.11779  0.32810  1.0000
  H   H4840     1.0  0.73049  0.08904  0.33237  1.0000
  H   H4841     1.0  0.76314  0.09060  0.35772  1.0000
  H   H4842     1.0  0.75417  0.11935  0.35336  1.0000
  S   S845      1.0  0.50187  0.05516  0.30184  1.0000
  C   C2852     1.0  0.63264  0.14248  0.41133  1.0000
  C   C2853     1.0  0.64108  0.13589  0.39852  1.0000
  C   C2854     1.0  0.64649  0.14537  0.38425  1.0000
  H   H4843     1.0  0.62910  0.13510  0.42244  1.0000
  H   H4844     1.0  0.64372  0.12340  0.39975  1.0000
  C   C2855     1.0  0.93539  0.15789  0.38646  1.0000
  H   H4845     1.0  0.75340  0.14109  0.29819  1.0000
  C   C2856     1.0  0.69975  0.08356  0.36396  1.0000
  C   C2857     1.0  0.55470  0.10821  0.41658  1.0000
  C   C2858     1.0  0.56604  0.10486  0.42548  1.0000
  C   C2859     1.0  0.56627  0.11550  0.43389  1.0000
  H   H4846     1.0  0.54251  0.12235  0.29422  1.0000
  H   H4847     1.0  0.57451  0.09391  0.42601  1.0000
  H   H4848     1.0  0.57494  0.11278  0.44085  1.0000
  H   H4849     1.0  0.63965  0.07443  0.40813  1.0000
  H   H4850     1.0  0.86845  0.21828  0.36232  1.0000
  H   H4851     1.0  0.63261  0.10016  0.39522  1.0000
  H   H4852     1.0  0.49355  0.01516  0.23123  1.0000
  H   H4853     1.0  0.63776  0.08368  0.42307  1.0000
  C   C2860     1.0  0.77180  0.05833  0.43129  1.0000
  C   C2861     1.0  0.78731  0.05425  0.43306  1.0000
  C   C2862     1.0  0.79963  0.05106  0.42047  1.0000
  C   C2863     1.0  0.79644  0.05225  0.40606  1.0000
  C   C2864     1.0  0.78096  0.05642  0.40423  1.0000
  C   C2865     1.0  0.76863  0.05938  0.41689  1.0000
  H   H4854     1.0  0.78978  0.05342  0.44419  1.0000
  H   H4855     1.0  0.81163  0.04772  0.42189  1.0000
  H   H4856     1.0  0.77848  0.05758  0.39302  1.0000
  H   H4857     1.0  0.75674  0.06292  0.41534  1.0000
  C   C2866     1.0  0.66735  0.09371  0.43829  1.0000
  C   C2867     1.0  0.66550  0.08339  0.45283  1.0000
  C   C2868     1.0  0.65051  0.08271  0.46207  1.0000
  C   C2869     1.0  0.63740  0.09302  0.45718  1.0000
  C   C2870     1.0  0.63924  0.10343  0.44276  1.0000
  C   C2871     1.0  0.65420  0.10371  0.43324  1.0000
  H   H4858     1.0  0.67558  0.07646  0.45738  1.0000
  H   H4859     1.0  0.72349  0.98986  0.45612  1.0000
  H   H4860     1.0  0.62911  0.11122  0.43894  1.0000
  H   H4861     1.0  0.65564  0.11182  0.42212  1.0000
  C   C2872     1.0  0.70189  0.02262  0.41777  1.0000
  C   C2873     1.0  0.69865  0.00977  0.41483  1.0000
  C   C2874     1.0  0.68401  0.01083  0.41188  1.0000
  C   C2875     1.0  0.67258  0.02469  0.41182  1.0000
  C   C2876     1.0  0.67615  0.03780  0.41393  1.0000
  C   C2877     1.0  0.69079  0.03675  0.41688  1.0000
  H   H4862     1.0  0.97819  0.19831  0.38526  1.0000
  H   H4863     1.0  0.76044  0.99593  0.37837  1.0000
  H   H4864     1.0  0.66748  0.04865  0.41364  1.0000
  H   H4865     1.0  0.69345  0.04690  0.41848  1.0000
  H   H4866     1.0  0.96826  0.20264  0.36131  1.0000
  C   C2878     1.0  0.76014  0.00438  0.43610  1.0000
  C   C2879     1.0  0.65179  0.19343  0.42185  1.0000
  H   H4867     1.0  0.54601  0.06758  0.23587  1.0000
  S   S846      1.0  0.86377  0.22827  0.40201  1.0000
  H   H4868     1.0  0.91394  0.16744  0.43175  1.0000
  H   H4869     1.0  0.74294  0.15062  0.35881  1.0000
  C   C2880     1.0  0.69744  0.00308  0.36991  1.0000
  H   H4870     1.0  0.79566  0.15160  0.33655  1.0000
  C   C2881     1.0  0.64418  0.12855  0.29006  1.0000
  C   C2882     1.0  0.64544  0.13049  0.30432  1.0000
  C   C2883     1.0  0.65601  0.13897  0.30481  1.0000
  C   C2884     1.0  0.66550  0.14544  0.29102  1.0000
  C   C2885     1.0  0.66439  0.14330  0.27679  1.0000
  C   C2886     1.0  0.65373  0.13495  0.27629  1.0000
  H   H4871     1.0  0.63813  0.12551  0.31503  1.0000
  H   H4872     1.0  0.65678  0.14055  0.31583  1.0000
  H   H4873     1.0  0.67187  0.14808  0.26612  1.0000
  H   H4874     1.0  0.65303  0.13330  0.26527  1.0000
  C   C2887     1.0  0.55976  0.13644  0.28703  1.0000
  C   C2888     1.0  0.56730  0.14515  0.29179  1.0000
  C   C2889     1.0  0.56348  0.14646  0.30737  1.0000
  C   C2890     1.0  0.55258  0.13855  0.31838  1.0000
  C   C2891     1.0  0.54505  0.12981  0.31362  1.0000
  C   C2892     1.0  0.54843  0.12900  0.29791  1.0000
  H   H4875     1.0  0.57592  0.15105  0.28341  1.0000
  H   H4876     1.0  0.56926  0.15328  0.31099  1.0000
  H   H4877     1.0  0.56841  0.04766  0.41667  1.0000
  N   N201      1.0  0.76314  0.18107  0.34497  1.0000
  C   C2893     1.0  0.75723  0.18863  0.35882  1.0000
  C   C2894     1.0  0.75186  0.17131  0.34581  1.0000
  C   C2895     1.0  0.76393  0.19309  0.32988  1.0000
  C   C2896     1.0  0.77944  0.17135  0.34543  1.0000
  C   C2897     1.0  0.76687  0.19962  0.35988  1.0000
  C   C2898     1.0  0.75284  0.15585  0.35812  1.0000
  C   C2899     1.0  0.74851  0.20509  0.32793  1.0000
  C   C2900     1.0  0.78720  0.16228  0.33229  1.0000
  H   H4878     1.0  0.74491  0.19530  0.35938  1.0000
  H   H4879     1.0  0.75683  0.17969  0.36987  1.0000
  H   H4880     1.0  0.75321  0.16846  0.33439  1.0000
  H   H4881     1.0  0.73950  0.17798  0.34838  1.0000
  H   H4882     1.0  0.77321  0.19959  0.32806  1.0000
  H   H4883     1.0  0.76753  0.18734  0.31981  1.0000
  H   H4884     1.0  0.78758  0.17885  0.34444  1.0000
  H   H4885     1.0  0.78000  0.16317  0.35690  1.0000
  H   H4886     1.0  0.76033  0.20580  0.36942  1.0000
  H   H4887     1.0  0.77833  0.19310  0.36276  1.0000
  H   H4888     1.0  0.76874  0.20870  0.34918  1.0000
  C   C2901     1.0  0.80246  0.00678  0.39804  1.0000
  H   H4889     1.0  0.76380  0.14725  0.35485  1.0000
  H   H4890     1.0  0.78213  0.00136  0.38332  1.0000
  H   H4891     1.0  0.74470  0.21248  0.33660  1.0000
  H   H4892     1.0  0.73891  0.19951  0.32852  1.0000
  H   H4893     1.0  0.75044  0.21305  0.31629  1.0000
  C   C2902     1.0  0.91962  0.21089  0.43802  1.0000
  H   H4894     1.0  0.77877  0.15827  0.32846  1.0000
  H   H4895     1.0  0.60147  0.06402  0.45846  1.0000
  H   H4896     1.0  0.50683  0.00477  0.28656  1.0000
  S   S847      1.0  0.55484  0.14307  0.44408  1.0000
  H   H4897     1.0  0.53473  0.14352  0.42469  1.0000
  H   H4898     1.0  0.60959  0.21679  0.23976  1.0000
  H   H4899     1.0  0.90820  0.14847  0.37832  1.0000
  Fe  Fe426     1.0  0.53760  0.08663  0.36319  1.0000
  H   H4900     1.0  0.90062  0.16414  0.39579  1.0000
  H   H4901     1.0  0.77682  0.08055  0.29416  1.0000
  H   H4902     1.0  0.60195  0.17852  0.26677  1.0000
  C   C2903     1.0  0.80702  0.20225  0.32250  1.0000
  C   C2904     1.0  0.57913  0.09576  0.30413  1.0000
  H   H4903     1.0  0.89797  0.09975  0.35461  1.0000
  H   H4904     1.0  0.52592  0.04015  0.40156  1.0000
  C   C2905     1.0  0.89707  0.11778  0.29729  1.0000
  H   H4905     1.0  0.92530  0.12293  0.41360  1.0000
  H   H4906     1.0  0.69941  0.01015  0.35778  1.0000
  H   H4907     1.0  0.90079  0.13525  0.39494  1.0000
  S   S848      1.0  0.60150  0.13066  0.23298  1.0000
  H   H4908     1.0  0.78753  0.10393  0.33289  1.0000
  H   H4909     1.0  0.93155  0.08680  0.31939  1.0000
  H   H4910     1.0  0.72386  0.08994  0.36982  1.0000
  H   H4911     1.0  0.72282  0.99588  0.38436  1.0000
  H   H4912     1.0  0.89531  0.17619  0.36177  1.0000
  H   H4913     1.0  0.78045  0.02280  0.40411  1.0000
  C   C2906     1.0  0.60940  0.16404  0.28740  1.0000
  C   C2907     1.0  0.61776  0.06345  0.40244  1.0000
  N   N202      1.0  0.91676  0.10989  0.31542  1.0000
  H   H4914     1.0  0.69333  0.07410  0.36649  1.0000
  C   C2908     1.0  0.66951  0.09181  0.38810  1.0000
  N   N203      1.0  0.69962  0.08813  0.37864  1.0000
  H   H4915     1.0  0.54853  0.09204  0.25151  1.0000
  H   H4916     1.0  0.55563  0.01070  0.38421  1.0000
  H   H4917     1.0  0.71675  0.19665  0.36593  1.0000
  C   C2909     1.0  0.71114  0.20510  0.35714  1.0000
  H   H4918     1.0  0.82421  0.17749  0.35136  1.0000
  N   N204      1.0  0.66621  0.20391  0.39386  1.0000
  H   H4919     1.0  0.55922  0.00654  0.22758  1.0000
  H   H4920     1.0  0.65563  0.14653  0.44506  1.0000
  H   H4921     1.0  0.95302  0.20686  0.38909  1.0000
  H   H4922     1.0  0.75181  0.15751  0.36991  1.0000
  Fe  Fe427     1.0  0.88773  0.22000  0.38817  1.0000
  C   C2910     1.0  0.56246  0.02231  0.39830  1.0000
  C   C2911     1.0  0.60681  0.16790  0.37224  1.0000
  H   H4923     1.0  0.55104  0.06492  0.25383  1.0000
  H   H4924     1.0  0.55745  0.01685  0.43062  1.0000
  C   C2912     1.0  0.91633  0.21943  0.45131  1.0000
  H   H4925     1.0  0.63868  0.16845  0.28212  1.0000
  H   H4926     1.0  0.58341  0.06580  0.37576  1.0000
  H   H4927     1.0  0.94385  0.22400  0.39698  1.0000
  C   C2913     1.0  0.88097  0.20153  0.33465  1.0000
  C   C2914     1.0  0.57909  0.08577  0.29300  1.0000
  C   C2915     1.0  0.79958  0.21485  0.32980  1.0000
  H   H4928     1.0  0.67388  0.16680  0.40540  1.0000
  H   H4929     1.0  0.56972  0.04711  0.37576  1.0000
  C   C2916     1.0  0.85463  0.23257  0.34460  1.0000
  C   C2917     1.0  0.72464  0.99312  0.37278  1.0000
  C   C2918     1.0  0.66823  0.99875  0.45060  1.0000
  H   H4930     1.0  0.65830  0.99906  0.47455  1.0000
  H   H4931     1.0  0.91276  0.07774  0.30591  1.0000
  N   N205      1.0  0.56417  0.07931  0.23442  1.0000
  Fe  Fe428     1.0  0.97705  0.15678  0.38778  1.0000
  H   H4932     1.0  0.92552  0.22634  0.44815  1.0000
  H   H4933     1.0  0.56461  0.06997  0.38824  1.0000
  C   C2919     1.0  0.71283  0.22058  0.35337  1.0000
  H   H4934     1.0  0.63471  0.16029  0.26142  1.0000
  H   H4935     1.0  0.58741  0.07143  0.26182  1.0000
  C   C2920     1.0  0.49702  0.99981  0.29377  1.0000
  H   H4936     1.0  0.67842  0.99238  0.44320  1.0000
  C   C2921     1.0  0.55268  0.09371  0.23865  1.0000
  H   H4937     1.0  0.80870  0.01562  0.39811  1.0000
  C   C2922     1.0  0.67946  0.18966  0.39323  1.0000
  H   H4938     1.0  0.62323  0.07241  0.39339  1.0000
  C   C2923     1.0  0.62685  0.05710  0.43468  1.0000
  H   H4939     1.0  0.65073  0.14037  0.47307  1.0000
  H   H4940     1.0  0.61846  0.04945  0.44115  1.0000
  H   H4941     1.0  0.63538  0.05060  0.42611  1.0000
  N   N206      1.0  0.68275  0.00050  0.47050  1.0000
  S   S849      1.0  0.49556  0.03786  0.27771  1.0000
  H   H4942     1.0  0.50959  0.10089  0.30808  1.0000
  C   C2924     1.0  0.66508  0.02780  0.47326  1.0000
  N   N207      1.0  0.82436  0.09142  0.38921  1.0000
  C   C2925     1.0  0.81087  0.09267  0.38195  1.0000
  C   C2926     1.0  0.81875  0.08683  0.40660  1.0000
  C   C2927     1.0  0.83755  0.07856  0.38383  1.0000
  C   C2928     1.0  0.82930  0.10686  0.38394  1.0000
  H   H4943     1.0  0.59984  0.20121  0.24952  1.0000
  C   C2929     1.0  0.80408  0.09798  0.41378  1.0000
  C   C2930     1.0  0.85267  0.07514  0.38978  1.0000
  C   C2931     1.0  0.83797  0.11067  0.39433  1.0000
  H   H4944     1.0  0.80590  0.08204  0.38671  1.0000
  H   H4945     1.0  0.80103  0.10252  0.38492  1.0000
  H   H4946     1.0  0.82795  0.08545  0.41294  1.0000
  H   H4947     1.0  0.81595  0.07509  0.40984  1.0000
  H   H4948     1.0  0.83350  0.06745  0.38694  1.0000
  H   H4949     1.0  0.84139  0.08120  0.37100  1.0000
  H   H4950     1.0  0.83689  0.10781  0.37203  1.0000
  H   H4951     1.0  0.81884  0.11663  0.38294  1.0000
  H   H4952     1.0  0.57441  0.01465  0.39825  1.0000
  S   S850      1.0  0.52415  0.08705  0.38752  1.0000
  C   C2932     1.0  0.53758  0.09858  0.23219  1.0000
  H   H4953     1.0  0.79329  0.09652  0.41140  1.0000
  H   H4954     1.0  0.80262  0.09503  0.42664  1.0000
  H   H4955     1.0  0.80500  0.11034  0.40961  1.0000
  H   H4956     1.0  0.85068  0.07197  0.40263  1.0000
  H   H4957     1.0  0.85876  0.08497  0.38489  1.0000
  H   H4958     1.0  0.86090  0.06496  0.38546  1.0000
  H   H4959     1.0  0.60167  0.06083  0.42459  1.0000
  H   H4960     1.0  0.84417  0.10054  0.40180  1.0000
  C   C2933     1.0  0.67001  0.99474  0.46759  1.0000
  Fe  Fe429     1.0  0.68275  0.18109  0.33271  1.0000
  N   N208      1.0  0.77485  0.00025  0.40835  1.0000
  H   H4961     1.0  0.94208  0.12055  0.42119  1.0000
  H   H4962     1.0  0.92146  0.13321  0.38872  1.0000
  H   H4963     1.0  0.64696  0.16892  0.37156  1.0000
  C   C2934     1.0  0.93567  0.12781  0.41200  1.0000
  H   H4964     1.0  0.56699  0.13856  0.39384  1.0000
  H   H4965     1.0  0.55812  0.14915  0.37778  1.0000
  H   H4966     1.0  0.84524  0.19670  0.35172  1.0000
  C   C2935     1.0  0.91925  0.17239  0.40607  1.0000
  H   H4967     1.0  0.53355  0.11146  0.22996  1.0000
  H   H4968     1.0  0.93000  0.17600  0.40596  1.0000
  H   H4969     1.0  0.91352  0.18169  0.39743  1.0000
  H   H4970     1.0  0.94630  0.15985  0.38812  1.0000
  H   H4971     1.0  0.69903  0.10658  0.34819  1.0000
  H   H4972     1.0  0.59970  0.08012  0.41377  1.0000
  H   H4973     1.0  0.90419  0.18608  0.42275  1.0000
  H   H4974     1.0  0.93916  0.16908  0.36188  1.0000
  C   C2936     1.0  0.70216  0.07355  0.39109  1.0000
  C   C2937     1.0  0.71810  0.06203  0.38766  1.0000
  H   H4975     1.0  0.70077  0.07638  0.40250  1.0000
  H   H4976     1.0  0.56545  0.17631  0.42765  1.0000
  H   H4977     1.0  0.71840  0.05147  0.39724  1.0000
  H   H4978     1.0  0.72811  0.06702  0.38709  1.0000
  H   H4979     1.0  0.71992  0.05801  0.37680  1.0000
  C   C2938     1.0  0.55864  0.02858  0.43052  1.0000
  C   C2939     1.0  0.63198  0.17253  0.25490  1.0000
  S   S851      1.0  0.89499  0.19993  0.37634  1.0000
  S   S852      1.0  0.54545  0.06377  0.35577  1.0000
  H   H4980     1.0  0.58369  0.08730  0.23653  1.0000
  H   H4981     1.0  0.65153  0.20258  0.42779  1.0000
  H   H4982     1.0  0.64455  0.20183  0.27028  1.0000
  H   H4983     1.0  0.64793  0.17206  0.23230  1.0000
  H   H4984     1.0  0.70723  0.99884  0.41540  1.0000
  H   H4985     1.0  0.57461  0.07510  0.29920  1.0000
  C   C2940     1.0  0.62107  0.20022  0.25757  1.0000
  C   C2941     1.0  0.72966  0.00724  0.36040  1.0000
  H   H4986     1.0  0.65459  0.21074  0.35854  1.0000
  S   S853      1.0  0.52182  0.10783  0.35208  1.0000
  H   H4987     1.0  0.56752  0.02419  0.37295  1.0000
  C   C2942     1.0  0.80134  0.21406  0.34472  1.0000
  H   H4988     1.0  0.59076  0.08253  0.28545  1.0000
  H   H4989     1.0  0.68152  0.00083  0.40991  1.0000
  C   C2943     1.0  0.69587  0.11453  0.46111  1.0000
  H   H4990     1.0  0.80340  0.09877  0.35997  1.0000
  C   C2944     1.0  0.81456  0.09528  0.36404  1.0000
  C   C2945     1.0  0.69398  0.21155  0.33908  1.0000
  H   H4991     1.0  0.59766  0.17238  0.23293  1.0000
  H   H4992     1.0  0.67797  0.99440  0.36709  1.0000
  H   H4993     1.0  0.63090  0.18064  0.39405  1.0000
  N   N209      1.0  0.58957  0.08826  0.31570  1.0000
  H   H4994     1.0  0.91989  0.12212  0.29118  1.0000
  C   C2946     1.0  0.58603  0.09907  0.32667  1.0000
  C   C2947     1.0  0.58562  0.07264  0.32428  1.0000
  C   C2948     1.0  0.60639  0.08619  0.30681  1.0000
  H   H4995     1.0  0.74055  0.00896  0.36234  1.0000
  C   C2949     1.0  0.59137  0.11465  0.31969  1.0000
  C   C2950     1.0  0.58749  0.06656  0.34129  1.0000
  C   C2951     1.0  0.57595  0.07316  0.25875  1.0000
  H   H4996     1.0  0.92608  0.12706  0.32022  1.0000
  H   H4997     1.0  0.59166  0.09364  0.33675  1.0000
  H   H4998     1.0  0.57317  0.10184  0.33173  1.0000
  H   H4999     1.0  0.57314  0.07292  0.32507  1.0000
  H   H5000     1.0  0.59245  0.06341  0.31773  1.0000
  H   H5001     1.0  0.60885  0.07849  0.29855  1.0000
  H   H5002     1.0  0.60878  0.09755  0.29951  1.0000
  H   H5003     1.0  0.91166  0.07412  0.32615  1.0000
  N   N210      1.0  0.56216  0.03815  0.40055  1.0000
  H   H5004     1.0  0.60426  0.11291  0.31794  1.0000
  H   H5005     1.0  0.58798  0.12083  0.30853  1.0000
  H   H5006     1.0  0.58587  0.12253  0.32796  1.0000
  H   H5007     1.0  0.57164  0.06230  0.26435  1.0000
  H   H5008     1.0  0.59907  0.06664  0.34289  1.0000
  H   H5009     1.0  0.58591  0.05435  0.34529  1.0000
  H   H5010     1.0  0.57810  0.07344  0.34898  1.0000
  H   H5011     1.0  0.67413  0.21492  0.36970  1.0000
  C   C2952     1.0  0.61157  0.20407  0.24488  1.0000
  H   H5012     1.0  0.52286  0.05033  0.41634  1.0000
  N   N211      1.0  0.85250  0.21849  0.34058  1.0000
  H   H5013     1.0  0.61469  0.20779  0.26605  1.0000
  H   H5014     1.0  0.49429  0.08961  0.28837  1.0000
  H   H5015     1.0  0.90113  0.10731  0.29217  1.0000
  H   H5016     1.0  0.64686  0.19200  0.40093  1.0000
  C   C2953     1.0  0.83835  0.22345  0.33330  1.0000
  C   C2954     1.0  0.68077  0.10812  0.46799  1.0000
  Fe  Fe430     1.0  0.61922  0.14191  0.23593  1.0000
  H   H5017     1.0  0.80932  0.99529  0.40299  1.0000
  H   H5018     1.0  0.74761  0.99966  0.39623  1.0000
  H   H5019     1.0  0.53153  0.98348  0.25004  1.0000
  C   C2955     1.0  0.84919  0.20573  0.35475  1.0000
  H   H5020     1.0  0.70189  0.11083  0.44995  1.0000
  Fe  Fe431     1.0  0.64699  0.00262  0.41458  1.0000
  C   C2956     1.0  0.86649  0.21236  0.32871  1.0000
  H   H5021     1.0  0.58197  0.06061  0.39618  1.0000
  H   H5022     1.0  0.68888  0.19195  0.38271  1.0000
  H   H5023     1.0  0.89092  0.19985  0.32455  1.0000
  C   C2957     1.0  0.57848  0.07682  0.24088  1.0000
  H   H5024     1.0  0.82576  0.21823  0.36579  1.0000
  C   C2958     1.0  0.59977  0.13420  0.39118  1.0000
  C   C2959     1.0  0.56200  0.15044  0.38777  1.0000
  Fe  Fe432     1.0  0.61702  0.10843  0.24261  1.0000
  H   H5025     1.0  0.88672  0.11656  0.30695  1.0000
  H   H5026     1.0  0.80863  0.09574  0.26820  1.0000
  H   H5027     1.0  0.63067  0.07955  0.30886  1.0000
  H   H5028     1.0  0.59981  0.17323  0.39461  1.0000
  H   H5029     1.0  0.56778  0.17279  0.37661  1.0000
  H   H5030     1.0  0.68244  0.11012  0.37599  1.0000
  H   H5031     1.0  0.56199  0.98907  0.43787  1.0000
  H   H5032     1.0  0.69294  0.06692  0.39310  1.0000
  H   H5033     1.0  0.79639  0.12380  0.29970  1.0000
  H   H5034     1.0  0.79710  0.11979  0.32687  1.0000
  H   H5035     1.0  0.71195  0.07848  0.35830  1.0000
  C   C2960     1.0  0.66325  0.21196  0.37784  1.0000
  C   C2961     1.0  0.94434  0.11631  0.30344  1.0000
  C   C2962     1.0  0.62914  0.15860  0.40983  1.0000
  H   H5036     1.0  0.61398  0.17690  0.36785  1.0000
  C   C2963     1.0  0.92271  0.09367  0.31230  1.0000
  H   H5037     1.0  0.58228  0.15685  0.37150  1.0000
  H   H5038     1.0  0.82984  0.11884  0.40153  1.0000
  C   C2964     1.0  0.57568  0.17302  0.41829  1.0000
  N   N212      1.0  0.61855  0.07261  0.42646  1.0000
  C   C2965     1.0  0.60868  0.06955  0.41727  1.0000
  C   C2966     1.0  0.71316  0.99574  0.46386  1.0000
  C   C2967     1.0  0.57358  0.04525  0.38678  1.0000
  S   S854      1.0  0.63585  0.11952  0.24368  1.0000
  H   H5039     1.0  0.77106  0.13723  0.28387  1.0000
  H   H5040     1.0  0.68442  0.09652  0.47550  1.0000
  C   C2968     1.0  0.59363  0.17244  0.38602  1.0000
  H   H5041     1.0  0.56254  0.18027  0.40030  1.0000
  H   H5042     1.0  0.58372  0.16288  0.42388  1.0000
  C   C2969     1.0  0.63071  0.08144  0.41607  1.0000
  H   H5043     1.0  0.61500  0.08621  0.44357  1.0000
  H   H5044     1.0  0.60126  0.09325  0.43168  1.0000
  C   C2970     1.0  0.69306  0.09680  0.35139  1.0000
  H   H5045     1.0  0.61754  0.15396  0.28299  1.0000
  H   H5046     1.0  0.55931  0.04079  0.24425  1.0000
  H   H5047     1.0  0.89723  0.16944  0.42348  1.0000
  C   C2971     1.0  0.80504  0.09473  0.28100  1.0000
  H   H5048     1.0  0.80536  0.10442  0.30698  1.0000
  H   H5049     1.0  0.81474  0.09701  0.28460  1.0000
  H   H5050     1.0  0.80396  0.08251  0.28625  1.0000
  H   H5051     1.0  0.94125  0.14799  0.41520  1.0000
  H   H5052     1.0  0.60944  0.06050  0.39740  1.0000
  S   S855      1.0  0.52892  0.03160  0.24181  1.0000
  C   C2972     1.0  0.79379  0.11267  0.30747  1.0000
  C   C2973     1.0  0.78827  0.11508  0.32433  1.0000
  C   C2974     1.0  0.76594  0.13484  0.29653  1.0000
  H   H5053     1.0  0.66634  0.08683  0.40079  1.0000
  N   N213      1.0  0.58229  0.16180  0.39355  1.0000
  H   H5054     1.0  0.56147  0.16151  0.41226  1.0000
  C   C2975     1.0  0.90800  0.17363  0.42199  1.0000
  H   H5055     1.0  0.61497  0.15679  0.37588  1.0000
  H   H5056     1.0  0.93518  0.10748  0.32741  1.0000
  H   H5057     1.0  0.90053  0.12283  0.33195  1.0000
  C   C2976     1.0  0.68054  0.01795  0.46565  1.0000
  N   N214      1.0  0.78290  0.10683  0.30176  1.0000
  H   H5058     1.0  0.93922  0.14688  0.38234  1.0000
  H   H5059     1.0  0.57653  0.04624  0.24477  1.0000
  H   H5060     1.0  0.77164  0.13999  0.30252  1.0000
  C   C2977     1.0  0.71250  0.09682  0.37512  1.0000
  C   C2978     1.0  0.68425  0.09861  0.38425  1.0000
  H   H5061     1.0  0.72551  0.10697  0.38484  1.0000
  H   H5062     1.0  0.69505  0.09240  0.34069  1.0000
  H   H5063     1.0  0.68022  0.10114  0.35508  1.0000
  H   H5064     1.0  0.65962  0.10130  0.38466  1.0000
  C   C2979     1.0  0.75945  0.00533  0.41920  1.0000
  H   H5065     1.0  0.71816  0.09114  0.39837  1.0000
  C   C2980     1.0  0.57405  0.16092  0.38169  1.0000
  C   C2981     1.0  0.59585  0.07436  0.45063  1.0000
  H   H5066     1.0  0.83569  0.21318  0.33106  1.0000
  H   H5067     1.0  0.62256  0.10684  0.41299  1.0000
  H   H5068     1.0  0.61302  0.09849  0.40358  1.0000
  S   S856      1.0  0.61868  0.16692  0.42589  1.0000
  H   H5069     1.0  0.65156  0.12755  0.45144  1.0000
  H   H5070     1.0  0.71875  0.99003  0.34669  1.0000
  S   S857      1.0  0.66332  0.17125  0.33080  1.0000
  H   H5071     1.0  0.82114  0.10462  0.35817  1.0000
  H   H5072     1.0  0.68231  0.02207  0.45279  1.0000
  H   H5073     1.0  0.56671  0.09921  0.31030  1.0000
  C   C2982     1.0  0.57588  0.06128  0.38700  1.0000
  C   C2983     1.0  0.91024  0.14188  0.38999  1.0000
  H   H5074     1.0  0.54701  0.03624  0.43384  1.0000
  C   C2984     1.0  0.59048  0.14606  0.40148  1.0000
  C   C2985     1.0  0.90421  0.11070  0.33010  1.0000
  H   H5075     1.0  0.59755  0.16131  0.29146  1.0000
  H   H5076     1.0  0.90891  0.20746  0.43775  1.0000
  C   C2986     1.0  0.69813  0.99350  0.46078  1.0000
  C   C2987     1.0  0.63413  0.16815  0.39540  1.0000
  N   N215      1.0  0.97693  0.22318  0.37603  1.0000
  C   C2988     1.0  0.56653  0.04972  0.23892  1.0000
  H   H5077     1.0  0.54707  0.03115  0.38125  1.0000
  S   S858      1.0  0.52401  0.12430  0.37939  1.0000
  H   H5078     1.0  0.89328  0.10821  0.32931  1.0000
  C   C2989     1.0  0.49590  0.09469  0.33090  1.0000
  C   C2990     1.0  0.64304  0.16154  0.38267  1.0000
  H   H5079     1.0  0.87879  0.18975  0.34051  1.0000
  C   C2991     1.0  0.78945  0.10661  0.28477  1.0000
  H   H5080     1.0  0.78079  0.10441  0.27954  1.0000
  H   H5081     1.0  0.49836  0.03855  0.23391  1.0000
  C   C2992     1.0  0.71528  0.10136  0.38899  1.0000
  H   H5082     1.0  0.71024  0.10785  0.36632  1.0000
  H   H5083     1.0  0.80597  0.20302  0.31081  1.0000
  C   C2993     1.0  0.90873  0.09990  0.34518  1.0000
  H   H5084     1.0  0.75917  0.11383  0.29793  1.0000
  H   H5085     1.0  0.58186  0.14021  0.41085  1.0000
  H   H5086     1.0  0.77190  0.07070  0.31395  1.0000
  H   H5087     1.0  0.64915  0.07481  0.47336  1.0000
  H   H5088     1.0  0.58793  0.06724  0.23671  1.0000
  C   C2994     1.0  0.66019  0.13432  0.45082  1.0000
  H   H5089     1.0  0.67150  0.13001  0.44318  1.0000
  H   H5090     1.0  0.58765  0.07112  0.44572  1.0000
  C   C2995     1.0  0.66220  0.13406  0.46711  1.0000
  H   H5091     1.0  0.73251  0.00535  0.34841  1.0000
  C   C2996     1.0  0.98076  0.20242  0.36036  1.0000
  S   S859      1.0  0.59282  0.99362  0.42253  1.0000
  H   H5092     1.0  0.86309  0.20552  0.32228  1.0000
  H   H5093     1.0  0.91890  0.17071  0.37111  1.0000
  C   C2997     1.0  0.68033  0.00108  0.37422  1.0000
  N   N216      1.0  0.92334  0.15679  0.40161  1.0000
  C   C2998     1.0  0.93044  0.17085  0.37278  1.0000
  H   H5094     1.0  0.61277  0.16507  0.29777  1.0000
  S   S860      1.0  0.61891  0.09371  0.46957  1.0000
  H   H5095     1.0  0.79170  0.11821  0.27805  1.0000
  H   H5096     1.0  0.76073  0.11606  0.31592  1.0000
  H   H5097     1.0  0.79337  0.08295  0.31163  1.0000
  H   H5098     1.0  0.60064  0.13853  0.37855  1.0000
  C   C2999     1.0  0.98969  0.18835  0.42872  1.0000
  H   H5099     1.0  0.71369  0.00817  0.46101  1.0000
  H   H5100     1.0  0.93416  0.18850  0.46400  1.0000
  H   H5101     1.0  0.53464  0.12488  0.40949  1.0000
  H   H5102     1.0  0.74799  0.00593  0.44328  1.0000
  H   H5103     1.0  0.76498  0.01397  0.43687  1.0000
  Fe  Fe433     1.0  0.54003  0.10173  0.38805  1.0000
  C   C3000     1.0  0.53131  0.98911  0.23765  1.0000
  H   H5104     1.0  0.70397  0.10994  0.46927  1.0000
  H   H5105     1.0  0.59454  0.12377  0.39486  1.0000
  H   H5106     1.0  0.55833  0.10385  0.23543  1.0000
  C   C3001     1.0  0.78159  0.09073  0.31129  1.0000
  H   H5107     1.0  0.77606  0.09108  0.32363  1.0000
  H   H5108     1.0  0.70518  0.11003  0.39380  1.0000
  H   H5109     1.0  0.93029  0.18253  0.37424  1.0000
  H   H5110     1.0  0.82111  0.08432  0.36018  1.0000
  H   H5111     1.0  0.95404  0.11843  0.30724  1.0000
  H   H5112     1.0  0.72078  0.01824  0.36129  1.0000
  H   H5113     1.0  0.95904  0.22939  0.36230  1.0000
  C   C3002     1.0  0.60872  0.17939  0.27483  1.0000
  H   H5114     1.0  0.67741  0.10526  0.45851  1.0000
  S   S861      1.0  0.63535  0.99757  0.39845  1.0000
  H   H5115     1.0  0.90184  0.14853  0.41227  1.0000
  H   H5116     1.0  0.83401  0.20038  0.37753  1.0000
  C   C3003     1.0  0.93023  0.11530  0.31743  1.0000
  H   H5117     1.0  0.50387  0.12152  0.27880  1.0000
  H   H5118     1.0  0.70071  0.18861  0.35288  1.0000
  H   H5119     1.0  0.54131  0.04262  0.33985  1.0000
  H   H5120     1.0  0.61202  0.13016  0.39286  1.0000
  C   C3004     1.0  0.86824  0.18891  0.39219  1.0000
  H   H5121     1.0  0.56795  0.08296  0.26380  1.0000
  H   H5122     1.0  0.92250  0.14431  0.42561  1.0000
  Fe  Fe434     1.0  0.98006  0.22986  0.47435  1.0000
  H   H5123     1.0  0.84704  0.11712  0.38673  1.0000
  H   H5124     1.0  0.91391  0.08771  0.34400  1.0000
  C   C3005     1.0  0.65737  0.20290  0.36954  1.0000
  H   H5125     1.0  0.53401  0.03085  0.41866  1.0000
  H   H5126     1.0  0.86586  0.19707  0.39953  1.0000
  H   H5127     1.0  0.94143  0.20548  0.45990  1.0000
  C   C3006     1.0  0.77138  0.00358  0.39241  1.0000
  H   H5128     1.0  0.96873  0.20597  0.43355  1.0000
  C   C3007     1.0  0.77186  0.08240  0.30616  1.0000
  H   H5129     1.0  0.75939  0.08863  0.30736  1.0000
  C   C3008     1.0  0.88490  0.17706  0.37103  1.0000
  C   C3009     1.0  0.88169  0.18797  0.38018  1.0000
  H   H5130     1.0  0.79364  0.16956  0.32201  1.0000
  H   H5131     1.0  0.69859  0.99837  0.44816  1.0000
  C   C3010     1.0  0.55785  0.02230  0.38329  1.0000
  C   C3011     1.0  0.78572  0.01022  0.40804  1.0000
  H   H5132     1.0  0.75377  0.01761  0.41452  1.0000
  S   S862      1.0  0.82627  0.17349  0.32066  1.0000
  H   H5133     1.0  0.53287  0.00114  0.23562  1.0000
  H   H5134     1.0  0.66489  0.17566  0.38884  1.0000
  H   H5135     1.0  0.64632  0.06322  0.44027  1.0000
  H   H5136     1.0  0.54429  0.05445  0.38926  1.0000
  H   H5137     1.0  0.93819  0.22085  0.38085  1.0000
  S   S863      1.0  0.62897  0.99551  0.43586  1.0000
  C   C3012     1.0  0.53174  0.04182  0.40999  1.0000
  C   C3013     1.0  0.90849  0.15319  0.40049  1.0000
  S   S864      1.0  0.72318  0.22610  0.36391  1.0000
  C   C3014     1.0  0.70201  0.20053  0.34981  1.0000
  C   C3015     1.0  0.54113  0.05389  0.33196  1.0000
  H   H5138     1.0  0.81119  0.19966  0.36417  1.0000
  S   S865      1.0  0.58146  0.16050  0.45806  1.0000
  C   C3016     1.0  0.81751  0.18792  0.34522  1.0000
  H   H5139     1.0  0.76681  0.99295  0.44142  1.0000
  H   H5140     1.0  0.58044  0.02919  0.41369  1.0000
  H   H5141     1.0  0.58538  0.03720  0.38545  1.0000
  C   C3017     1.0  0.94828  0.21955  0.38608  1.0000
  C   C3018     1.0  0.55496  0.12946  0.43366  1.0000
  C   C3019     1.0  0.91054  0.12132  0.30196  1.0000
  C   C3020     1.0  0.63410  0.18109  0.27773  1.0000
  C   C3021     1.0  0.54351  0.12225  0.41621  1.0000
  H   H5142     1.0  0.69371  0.12739  0.45826  1.0000
  C   C3022     1.0  0.64824  0.18894  0.27258  1.0000
  H   H5143     1.0  0.76621  0.01621  0.38870  1.0000
  H   H5144     1.0  0.67045  0.14163  0.46554  1.0000
  Fe  Fe435     1.0  0.98918  0.21738  0.44506  1.0000
  H   H5145     1.0  0.62681  0.05269  0.40491  1.0000
  H   H5146     1.0  0.62371  0.17223  0.24805  1.0000
  C   C3023     1.0  0.54357  0.13278  0.42483  1.0000
  H   H5147     1.0  0.88499  0.20615  0.34244  1.0000
  Fe  Fe436     1.0  0.50935  0.10931  0.37657  1.0000
  C   C3024     1.0  0.56813  0.03619  0.41494  1.0000
  H   H5148     1.0  0.68527  0.16747  0.38625  1.0000
  H   H5149     1.0  0.57105  0.09281  0.28517  1.0000
  C   C3025     1.0  0.54254  0.06646  0.33700  1.0000
  H   H5150     1.0  0.53848  0.04613  0.31280  1.0000
  S   S866      1.0  0.68067  0.20662  0.33139  1.0000
  S   S867      1.0  0.86999  0.22421  0.44375  1.0000
  H   H5151     1.0  0.66219  0.18384  0.42335  1.0000
  H   H5152     1.0  0.52811  0.09323  0.24064  1.0000
  H   H5153     1.0  0.69762  0.01063  0.37754  1.0000
  C   C3026     1.0  0.98310  0.20643  0.37471  1.0000
  H   H5154     1.0  0.68501  0.18707  0.40336  1.0000
  H   H5155     1.0  0.66667  0.19293  0.36607  1.0000
  H   H5156     1.0  0.64119  0.18857  0.42793  1.0000
  H   H5157     1.0  0.65782  0.99486  0.45023  1.0000
  H   H5158     1.0  0.85981  0.19937  0.35930  1.0000
  C   C3027     1.0  0.97765  0.22450  0.39183  1.0000
  Fe  Fe437     1.0  0.61896  0.98807  0.42002  1.0000
  H   H5159     1.0  0.65067  0.10804  0.47211  1.0000
  C   C3028     1.0  0.64735  0.17539  0.24326  1.0000
  H   H5160     1.0  0.65770  0.16811  0.24796  1.0000
  H   H5161     1.0  0.87075  0.22217  0.31974  1.0000
  H   H5162     1.0  0.67670  0.99584  0.38670  1.0000
  S   S868      1.0  0.61896  0.08628  0.23520  1.0000
  S   S869      1.0  0.96659  0.22131  0.46264  1.0000
  C   C3029     1.0  0.69575  0.22702  0.33522  1.0000
  C   C3030     1.0  0.75991  0.99466  0.39091  1.0000
  H   H5163     1.0  0.98755  0.19043  0.35970  1.0000
  C   C3031     1.0  0.98776  0.16962  0.41545  1.0000
  H   H5164     1.0  0.50710  0.08969  0.33491  1.0000
  S   S870      1.0  0.61358  0.13736  0.46796  1.0000
  C   C3032     1.0  0.67527  0.17429  0.39349  1.0000
  H   H5165     1.0  0.50737  0.10820  0.26649  1.0000
  H   H5166     1.0  0.92294  0.21892  0.42669  1.0000
  C   C3033     1.0  0.63620  0.05766  0.44618  1.0000
  C   C3034     1.0  0.93229  0.19939  0.46809  1.0000
  H   H5167     1.0  0.66629  0.01146  0.44564  1.0000
  C   C3035     1.0  0.65113  0.20030  0.40458  1.0000
  C   C3036     1.0  0.96015  0.22874  0.37428  1.0000
  H   H5168     1.0  0.98533  0.21007  0.34930  1.0000
  H   H5169     1.0  0.62876  0.06348  0.45568  1.0000
  H   H5170     1.0  0.64643  0.19914  0.37628  1.0000
  H   H5171     1.0  0.64114  0.04552  0.45175  1.0000
  N   N217      1.0  0.91595  0.20921  0.46742  1.0000
  H   H5172     1.0  0.64153  0.21100  0.40412  1.0000
  H   H5173     1.0  0.89293  0.20653  0.46773  1.0000
  H   H5174     1.0  0.61813  0.19813  0.23521  1.0000
  H   H5175     1.0  0.57977  0.19830  0.22708  1.0000
  N   N218      1.0  0.71034  0.98853  0.37151  1.0000
  S   S871      1.0  0.90057  0.22180  0.40501  1.0000
  H   H5176     1.0  0.67242  0.01280  0.37223  1.0000
  H   H5177     1.0  0.97025  0.21730  0.40110  1.0000
  H   H5178     1.0  0.78750  0.00897  0.41988  1.0000
  C   C3037     1.0  0.67081  0.21539  0.39996  1.0000
  H   H5179     1.0  0.77291  0.02774  0.47312  1.0000
  C   C3038     1.0  0.83689  0.21091  0.36879  1.0000
  C   C3039     1.0  0.68546  0.22162  0.39010  1.0000
  C   C3040     1.0  0.86693  0.22981  0.35433  1.0000
  H   H5180     1.0  0.69556  0.98488  0.34588  1.0000
  H   H5181     1.0  0.79292  0.22535  0.32368  1.0000
  H   H5182     1.0  0.82767  0.22853  0.34125  1.0000
  H   H5183     1.0  0.66093  0.22570  0.40138  1.0000
  H   H5184     1.0  0.90845  0.19105  0.46209  1.0000
  S   S872      1.0  0.50041  0.01125  0.31702  1.0000
  C   C3041     1.0  0.90438  0.19914  0.47021  1.0000
  H   H5185     1.0  0.66294  0.03958  0.46558  1.0000
  H   H5186     1.0  0.50325  0.08334  0.31155  1.0000
  H   H5187     1.0  0.75324  0.02715  0.47403  1.0000
  H   H5188     1.0  0.65458  0.22326  0.37825  1.0000
  H   H5189     1.0  0.68986  0.02166  0.46854  1.0000
  H   H5190     1.0  0.84175  0.21710  0.37451  1.0000
  S   S873      1.0  0.79353  0.23015  0.35354  1.0000
  H   H5191     1.0  0.68337  0.22955  0.37892  1.0000
  C   C3042     1.0  0.70536  0.23148  0.34216  1.0000
  H   H5192     1.0  0.65464  0.02323  0.47454  1.0000
  H   H5193     1.0  0.83159  0.23198  0.39454  1.0000
  H   H5194     1.0  0.93114  0.22958  0.47191  1.0000
  H   H5195     1.0  0.68850  0.22865  0.39653  1.0000
  H   H5196     1.0  0.81317  0.23246  0.39109  1.0000
  H   H5197     1.0  0.87850  0.23136  0.34673  1.0000
  H   H5198     1.0  0.71455  0.99034  0.47596  1.0000
  C   C3043     1.0  0.86634  0.23298  0.47099  1.0000
  H   H5199     1.0  0.49358  0.99174  0.27532  1.0000
  Fe  Fe438     1.0  0.87675  0.23227  0.41771  1.0000
  H   H5200     1.0  0.84917  0.23131  0.30846  1.0000
  C   C3044     1.0  0.98689  0.23299  0.36323  1.0000
  C   C3045     1.0  0.78145  0.98321  0.41434  1.0000
  H   H5201     1.0  0.86138  0.22282  0.47662  1.0000
  H   H5202     1.0  0.59907  0.13160  0.54514  1.0000
  Fe  Fe439     1.0  0.80663  0.05783  0.62317  1.0000
  S   S874      1.0  0.81406  0.07246  0.59952  1.0000
  S   S875      1.0  0.81737  0.03202  0.62603  1.0000
  Fe  Fe440     1.0  0.78515  0.08590  0.63511  1.0000
  S   S876      1.0  0.79048  0.10270  0.61226  1.0000
  S   S877      1.0  0.76933  0.09488  0.65587  1.0000
  Fe  Fe441     1.0  0.78856  0.08386  0.60198  1.0000
  S   S878      1.0  0.77824  0.08721  0.58128  1.0000
  Fe  Fe442     1.0  0.81536  0.08980  0.61202  1.0000
  S   S879      1.0  0.83514  0.10261  0.60372  1.0000
  S   S880      1.0  0.78094  0.06812  0.62489  1.0000
  S   S881      1.0  0.81033  0.07416  0.63560  1.0000
  H   H5203     1.0  0.93102  0.20219  0.53102  1.0000
  H   H5204     1.0  0.64455  0.09008  0.49667  1.0000
  Fe  Fe443     1.0  0.70601  0.16949  0.64688  1.0000
  S   S882      1.0  0.71465  0.14966  0.63444  1.0000
  C   C3046     1.0  0.68900  0.14548  0.58384  1.0000
  S   S883      1.0  0.68036  0.17675  0.65654  1.0000
  S   S884      1.0  0.71306  0.17388  0.66663  1.0000
  H   H5205     1.0  0.64547  0.08877  0.54898  1.0000
  C   C3047     1.0  0.58523  0.15979  0.52802  1.0000
  H   H5206     1.0  0.66516  0.08564  0.48964  1.0000
  Fe  Fe444     1.0  0.86165  0.15106  0.64107  1.0000
  S   S885      1.0  0.84162  0.13870  0.65060  1.0000
  Fe  Fe445     1.0  0.88608  0.15866  0.61209  1.0000
  S   S886      1.0  0.89679  0.15279  0.58871  1.0000
  S   S887      1.0  0.88643  0.13882  0.63288  1.0000
  S   S888      1.0  0.86078  0.16994  0.61952  1.0000
  Fe  Fe446     1.0  0.69753  0.07492  0.58429  1.0000
  S   S889      1.0  0.68846  0.05308  0.59493  1.0000
  S   S890      1.0  0.70709  0.08256  0.60046  1.0000
  Fe  Fe447     1.0  0.68804  0.07927  0.55402  1.0000
  S   S891      1.0  0.67828  0.05787  0.56225  1.0000
  Fe  Fe448     1.0  0.66783  0.06589  0.58445  1.0000
  S   S892      1.0  0.64406  0.06078  0.59586  1.0000
  Fe  Fe449     1.0  0.69980  0.04683  0.57187  1.0000
  S   S893      1.0  0.71345  0.02230  0.57143  1.0000
  S   S894      1.0  0.67579  0.08854  0.57552  1.0000
  S   S895      1.0  0.71068  0.06761  0.56187  1.0000
  H   H5207     1.0  0.61771  0.17343  0.68376  1.0000
  S   S896      1.0  0.69529  0.99620  0.52362  1.0000
  S   S897      1.0  0.68701  0.09264  0.52962  1.0000
  Fe  Fe450     1.0  0.60392  0.14345  0.59710  1.0000
  S   S898      1.0  0.59398  0.12203  0.60688  1.0000
  H   H5208     1.0  0.58898  0.16608  0.54756  1.0000
  C   C3048     1.0  0.91783  0.17569  0.64962  1.0000
  C   C3049     1.0  0.62531  0.14990  0.69515  1.0000
  S   S899      1.0  0.86850  0.16480  0.65404  1.0000
  H   H5209     1.0  0.61332  0.15244  0.49600  1.0000
  C   C3050     1.0  0.63030  0.07749  0.60021  1.0000
  C   C3051     1.0  0.61430  0.07747  0.60412  1.0000
  C   C3052     1.0  0.60316  0.09112  0.60659  1.0000
  C   C3053     1.0  0.60802  0.10480  0.60507  1.0000
  C   C3054     1.0  0.62401  0.10470  0.60159  1.0000
  C   C3055     1.0  0.63514  0.09103  0.59921  1.0000
  H   H5210     1.0  0.61051  0.06697  0.60504  1.0000
  H   H5211     1.0  0.59077  0.09117  0.60944  1.0000
  H   H5212     1.0  0.62782  0.11509  0.60090  1.0000
  H   H5213     1.0  0.64744  0.09095  0.59685  1.0000
  C   C3056     1.0  0.70164  0.00311  0.53624  1.0000
  C   C3057     1.0  0.69701  0.01899  0.53614  1.0000
  C   C3058     1.0  0.70097  0.02489  0.54671  1.0000
  C   C3059     1.0  0.70937  0.01493  0.55763  1.0000
  C   C3060     1.0  0.71446  0.99903  0.55749  1.0000
  C   C3061     1.0  0.71070  0.99312  0.54668  1.0000
  H   H5214     1.0  0.69035  0.02676  0.52781  1.0000
  H   H5215     1.0  0.69783  0.03723  0.54606  1.0000
  H   H5216     1.0  0.68215  0.12588  0.48666  1.0000
  H   H5217     1.0  0.72583  0.05958  0.52240  1.0000
  H   H5218     1.0  0.66761  0.07107  0.53341  1.0000
  H   H5219     1.0  0.79066  0.12223  0.66163  1.0000
  H   H5220     1.0  0.57815  0.21003  0.66460  1.0000
  C   C3062     1.0  0.88844  0.16600  0.57382  1.0000
  C   C3063     1.0  0.87835  0.18017  0.57630  1.0000
  C   C3064     1.0  0.87197  0.19070  0.56409  1.0000
  C   C3065     1.0  0.87554  0.18695  0.54951  1.0000
  C   C3066     1.0  0.88548  0.17273  0.54711  1.0000
  C   C3067     1.0  0.89211  0.16236  0.55920  1.0000
  H   H5221     1.0  0.87565  0.18314  0.58752  1.0000
  H   H5222     1.0  0.86417  0.20166  0.56599  1.0000
  H   H5223     1.0  0.88829  0.16987  0.53581  1.0000
  H   H5224     1.0  0.89999  0.15145  0.55725  1.0000
  H   H5225     1.0  0.78682  0.01564  0.58391  1.0000
  H   H5226     1.0  0.96662  0.18581  0.60862  1.0000
  H   H5227     1.0  0.61548  0.09615  0.52972  1.0000
  H   H5228     1.0  0.62945  0.15842  0.51070  1.0000
  H   H5229     1.0  0.49933  0.18059  0.60915  1.0000
  H   H5230     1.0  0.80320  0.23132  0.62630  1.0000
  C   C3068     1.0  0.60067  0.11963  0.55250  1.0000
  C   C3069     1.0  0.95152  0.21655  0.59448  1.0000
  H   H5231     1.0  0.67459  0.98851  0.58392  1.0000
  H   H5232     1.0  0.64686  0.17963  0.65853  1.0000
  C   C3070     1.0  0.53036  0.21983  0.64781  1.0000
  H   H5233     1.0  0.84907  0.02813  0.56871  1.0000
  C   C3071     1.0  0.83107  0.20680  0.67239  1.0000
  C   C3072     1.0  0.84139  0.20260  0.65893  1.0000
  H   H5234     1.0  0.82565  0.19817  0.68133  1.0000
  H   H5235     1.0  0.84363  0.19084  0.65743  1.0000
  C   C3073     1.0  0.67982  0.13696  0.57825  1.0000
  C   C3074     1.0  0.65531  0.09466  0.49417  1.0000
  C   C3075     1.0  0.50307  0.21376  0.69405  1.0000
  H   H5236     1.0  0.93420  0.16338  0.59018  1.0000
  H   H5237     1.0  0.65486  0.98606  0.60265  1.0000
  C   C3076     1.0  0.97425  0.20763  0.60635  1.0000
  C   C3077     1.0  0.83647  0.11293  0.61672  1.0000
  C   C3078     1.0  0.84933  0.11984  0.61336  1.0000
  C   C3079     1.0  0.85060  0.12833  0.62340  1.0000
  C   C3080     1.0  0.83928  0.12951  0.63715  1.0000
  C   C3081     1.0  0.82646  0.12251  0.64061  1.0000
  C   C3082     1.0  0.82496  0.11434  0.63035  1.0000
  H   H5238     1.0  0.85854  0.11837  0.60314  1.0000
  H   H5239     1.0  0.86062  0.13356  0.62070  1.0000
  H   H5240     1.0  0.81783  0.12324  0.65135  1.0000
  H   H5241     1.0  0.81504  0.10896  0.63308  1.0000
  C   C3083     1.0  0.75340  0.10946  0.65048  1.0000
  C   C3084     1.0  0.74395  0.11898  0.66072  1.0000
  C   C3085     1.0  0.73192  0.13139  0.65595  1.0000
  C   C3086     1.0  0.72920  0.13406  0.64104  1.0000
  C   C3087     1.0  0.73835  0.12424  0.63102  1.0000
  C   C3088     1.0  0.75046  0.11202  0.63570  1.0000
  H   H5242     1.0  0.74605  0.11685  0.67227  1.0000
  H   H5243     1.0  0.72468  0.13877  0.66383  1.0000
  H   H5244     1.0  0.73625  0.12616  0.61952  1.0000
  H   H5245     1.0  0.75747  0.10451  0.62787  1.0000
  C   C3089     1.0  0.75844  0.08607  0.58657  1.0000
  C   C3090     1.0  0.74995  0.08610  0.60183  1.0000
  C   C3091     1.0  0.73423  0.08484  0.60601  1.0000
  C   C3092     1.0  0.72690  0.08366  0.59493  1.0000
  C   C3093     1.0  0.73531  0.08383  0.57961  1.0000
  C   C3094     1.0  0.75109  0.08499  0.57544  1.0000
  H   H5246     1.0  0.75542  0.08725  0.61040  1.0000
  H   H5247     1.0  0.72779  0.08476  0.61788  1.0000
  H   H5248     1.0  0.72962  0.08332  0.57092  1.0000
  H   H5249     1.0  0.75758  0.08514  0.56358  1.0000
  H   H5250     1.0  0.64582  0.10363  0.56452  1.0000
  C   C3095     1.0  0.78546  0.99975  0.62919  1.0000
  H   H5251     1.0  0.89645  0.19551  0.49593  1.0000
  C   C3096     1.0  0.81116  0.00610  0.62150  1.0000
  C   C3097     1.0  0.80494  0.01969  0.62741  1.0000
  C   C3098     1.0  0.78896  0.02323  0.63429  1.0000
  C   C3099     1.0  0.77933  0.01312  0.63545  1.0000
  H   H5252     1.0  0.96546  0.19039  0.62703  1.0000
  H   H5253     1.0  0.71581  0.04598  0.52108  1.0000
  H   H5254     1.0  0.78412  0.03350  0.63916  1.0000
  H   H5255     1.0  0.76712  0.01568  0.64130  1.0000
  Fe  Fe451     1.0  0.86973  0.18278  0.63168  1.0000
  N   N219      1.0  0.81408  0.03515  0.57313  1.0000
  H   H5256     1.0  0.89635  0.20620  0.59514  1.0000
  C   C3100     1.0  0.79954  0.04738  0.57731  1.0000
  C   C3101     1.0  0.82193  0.04019  0.55632  1.0000
  C   C3102     1.0  0.81091  0.01907  0.57636  1.0000
  H   H5257     1.0  0.94381  0.20992  0.62520  1.0000
  H   H5258     1.0  0.76250  0.21591  0.65060  1.0000
  C   C3103     1.0  0.81249  0.04205  0.54407  1.0000
  C   C3104     1.0  0.66809  0.99453  0.49958  1.0000
  H   H5259     1.0  0.84075  0.01158  0.58058  1.0000
  C   C3105     1.0  0.79557  0.01796  0.57288  1.0000
  H   H5260     1.0  0.79086  0.04921  0.57023  1.0000
  C   C3106     1.0  0.73178  0.00873  0.49750  1.0000
  H   H5261     1.0  0.82531  0.05152  0.55444  1.0000
  H   H5262     1.0  0.83300  0.03166  0.55307  1.0000
  H   H5263     1.0  0.76053  0.01233  0.58118  1.0000
  C   C3107     1.0  0.73065  0.02461  0.50105  1.0000
  C   C3108     1.0  0.67217  0.11989  0.49067  1.0000
  H   H5264     1.0  0.88277  0.20490  0.65362  1.0000
  H   H5265     1.0  0.54630  0.18162  0.55949  1.0000
  H   H5266     1.0  0.63556  0.13992  0.69514  1.0000
  C   C3109     1.0  0.50903  0.10695  0.71758  1.0000
  H   H5267     1.0  0.50783  0.16043  0.61446  1.0000
  H   H5268     1.0  0.81062  0.03068  0.54375  1.0000
  H   H5269     1.0  0.81945  0.04642  0.53238  1.0000
  H   H5270     1.0  0.53765  0.22107  0.63581  1.0000
  H   H5271     1.0  0.79795  0.00765  0.56771  1.0000
  H   H5272     1.0  0.79021  0.02807  0.56476  1.0000
  C   C3110     1.0  0.69024  0.05727  0.50160  1.0000
  N   N220      1.0  0.86592  0.08837  0.65926  1.0000
  C   C3111     1.0  0.85899  0.08548  0.64736  1.0000
  C   C3112     1.0  0.87661  0.09947  0.65066  1.0000
  C   C3113     1.0  0.85260  0.09580  0.67086  1.0000
  C   C3114     1.0  0.87454  0.07283  0.66706  1.0000
  C   C3115     1.0  0.84533  0.07690  0.65378  1.0000
  C   C3116     1.0  0.89045  0.09368  0.63794  1.0000
  C   C3117     1.0  0.85662  0.10514  0.68037  1.0000
  C   C3118     1.0  0.88427  0.07285  0.67843  1.0000
  H   H5273     1.0  0.85454  0.09666  0.63972  1.0000
  H   H5274     1.0  0.86806  0.07857  0.63944  1.0000
  H   H5275     1.0  0.88177  0.10282  0.65855  1.0000
  H   H5276     1.0  0.86974  0.11071  0.64504  1.0000
  H   H5277     1.0  0.84353  0.10423  0.66482  1.0000
  H   H5278     1.0  0.84648  0.08689  0.67935  1.0000
  H   H5279     1.0  0.86612  0.06534  0.67393  1.0000
  H   H5280     1.0  0.88232  0.06597  0.65839  1.0000
  H   H5281     1.0  0.83476  0.08384  0.66025  1.0000
  H   H5282     1.0  0.84179  0.07516  0.64380  1.0000
  H   H5283     1.0  0.84872  0.06519  0.66113  1.0000
  H   H5284     1.0  0.88640  0.09273  0.62794  1.0000
  H   H5285     1.0  0.89799  0.10236  0.63327  1.0000
  H   H5286     1.0  0.76337  0.00919  0.49708  1.0000
  H   H5287     1.0  0.84592  0.10887  0.68908  1.0000
  H   H5288     1.0  0.86006  0.11601  0.67290  1.0000
  H   H5289     1.0  0.86581  0.09834  0.68683  1.0000
  H   H5290     1.0  0.87703  0.07211  0.69046  1.0000
  H   H5291     1.0  0.88985  0.08292  0.67515  1.0000
  H   H5292     1.0  0.89423  0.06253  0.67846  1.0000
  H   H5293     1.0  0.91342  0.19861  0.52948  1.0000
  H   H5294     1.0  0.62418  0.16712  0.63659  1.0000
  H   H5295     1.0  0.62861  0.20136  0.64679  1.0000
  S   S900      1.0  0.86788  0.20000  0.53411  1.0000
  S   S901      1.0  0.62230  0.16597  0.54061  1.0000
  H   H5296     1.0  0.64982  0.11569  0.54491  1.0000
  H   H5297     1.0  0.93193  0.22471  0.58285  1.0000
  C   C3119     1.0  0.64758  0.14835  0.66482  1.0000
  C   C3120     1.0  0.62153  0.15658  0.64537  1.0000
  H   H5298     1.0  0.52031  0.18497  0.58631  1.0000
  H   H5299     1.0  0.55787  0.13198  0.58954  1.0000
  H   H5300     1.0  0.61809  0.19423  0.66567  1.0000
  H   H5301     1.0  0.61722  0.14677  0.66971  1.0000
  H   H5302     1.0  0.63104  0.19376  0.60565  1.0000
  C   C3121     1.0  0.59203  0.15587  0.51346  1.0000
  H   H5303     1.0  0.95101  0.17090  0.57750  1.0000
  H   H5304     1.0  0.55981  0.15795  0.57730  1.0000
  H   H5305     1.0  0.96153  0.19630  0.55314  1.0000
  C   C3122     1.0  0.63809  0.21743  0.71832  1.0000
  H   H5306     1.0  0.66791  0.13680  0.64971  1.0000
  H   H5307     1.0  0.92868  0.18880  0.49346  1.0000
  H   H5308     1.0  0.65664  0.09595  0.50539  1.0000
  H   H5309     1.0  0.61488  0.18993  0.64877  1.0000
  H   H5310     1.0  0.53385  0.14995  0.61291  1.0000
  H   H5311     1.0  0.92296  0.16622  0.56755  1.0000
  H   H5312     1.0  0.64888  0.12418  0.50650  1.0000
  H   H5313     1.0  0.72692  0.02018  0.63075  1.0000
  H   H5314     1.0  0.67684  0.10832  0.49769  1.0000
  C   C3123     1.0  0.63741  0.17664  0.65508  1.0000
  H   H5315     1.0  0.71920  0.02693  0.50935  1.0000
  C   C3124     1.0  0.80140  0.99630  0.62212  1.0000
  S   S902      1.0  0.56303  0.18560  0.72215  1.0000
  H   H5316     1.0  0.80257  0.05899  0.57465  1.0000
  H   H5317     1.0  0.70847  0.08507  0.50187  1.0000
  H   H5318     1.0  0.90790  0.20347  0.68262  1.0000
  Fe  Fe452     1.0  0.68735  0.18371  0.67472  1.0000
  C   C3125     1.0  0.75222  0.22209  0.65748  1.0000
  H   H5319     1.0  0.71223  0.00741  0.62215  1.0000
  H   H5320     1.0  0.51838  0.15417  0.58064  1.0000
  H   H5321     1.0  0.66417  0.12891  0.51180  1.0000
  H   H5322     1.0  0.64224  0.17532  0.64291  1.0000
  S   S903      1.0  0.60110  0.19942  0.70161  1.0000
  H   H5323     1.0  0.62887  0.21581  0.71361  1.0000
  H   H5324     1.0  0.60886  0.16699  0.66488  1.0000
  H   H5325     1.0  0.76876  0.02460  0.50085  1.0000
  Fe  Fe453     1.0  0.58851  0.14512  0.47998  1.0000
  H   H5326     1.0  0.82718  0.04652  0.58154  1.0000
  H   H5327     1.0  0.69582  0.15190  0.57322  1.0000
  N   N221      1.0  0.65950  0.01143  0.57766  1.0000
  C   C3126     1.0  0.65616  0.02223  0.56259  1.0000
  C   C3127     1.0  0.67721  0.00929  0.59662  1.0000
  C   C3128     1.0  0.66692  0.01958  0.58510  1.0000
  C   C3129     1.0  0.64413  0.00820  0.58793  1.0000
  C   C3130     1.0  0.64561  0.03848  0.56387  1.0000
  H   H5328     1.0  0.50061  0.16822  0.59663  1.0000
  H   H5329     1.0  0.89243  0.20853  0.57656  1.0000
  H   H5330     1.0  0.84906  0.22131  0.69842  1.0000
  H   H5331     1.0  0.66730  0.02414  0.55422  1.0000
  H   H5332     1.0  0.65026  0.01704  0.55676  1.0000
  H   H5333     1.0  0.90784  0.21653  0.57838  1.0000
  C   C3131     1.0  0.88489  0.21206  0.66053  1.0000
  H   H5334     1.0  0.67482  0.02650  0.57602  1.0000
  H   H5335     1.0  0.65783  0.02810  0.59133  1.0000
  H   H5336     1.0  0.63645  0.01907  0.59135  1.0000
  H   H5337     1.0  0.63718  0.00493  0.58152  1.0000
  H   H5338     1.0  0.63337  0.03780  0.57001  1.0000
  H   H5339     1.0  0.65021  0.04488  0.56962  1.0000
  H   H5340     1.0  0.64516  0.04562  0.55196  1.0000
  H   H5341     1.0  0.54284  0.19244  0.57455  1.0000
  C   C3132     1.0  0.55847  0.19803  0.67563  1.0000
  H   H5342     1.0  0.75508  0.02600  0.53356  1.0000
  H   H5343     1.0  0.68836  0.00273  0.59049  1.0000
  H   H5344     1.0  0.52240  0.99434  0.72621  1.0000
  H   H5345     1.0  0.67115  0.00115  0.60609  1.0000
  Fe  Fe454     1.0  0.87122  0.22388  0.53228  1.0000
  H   H5346     1.0  0.89015  0.16416  0.69746  1.0000
  H   H5347     1.0  0.88474  0.20564  0.70173  1.0000
  C   C3133     1.0  0.93621  0.19974  0.56286  1.0000
  H   H5348     1.0  0.62478  0.10799  0.51243  1.0000
  H   H5349     1.0  0.66967  0.05156  0.51837  1.0000
  C   C3134     1.0  0.67816  0.05884  0.51478  1.0000
  H   H5350     1.0  0.57426  0.17695  0.64247  1.0000
  H   H5351     1.0  0.51800  0.18589  0.63649  1.0000
  H   H5352     1.0  0.92039  0.18796  0.59040  1.0000
  Fe  Fe455     1.0  0.89334  0.15464  0.64346  1.0000
  H   H5353     1.0  0.94986  0.20948  0.54016  1.0000
  S   S904      1.0  0.58030  0.12493  0.47772  1.0000
  H   H5354     1.0  0.86955  0.16434  0.69976  1.0000
  H   H5355     1.0  0.63767  0.07437  0.56411  1.0000
  H   H5356     1.0  0.66581  0.02917  0.48471  1.0000
  Fe  Fe456     1.0  0.58376  0.19324  0.72395  1.0000
  H   H5357     1.0  0.57284  0.16034  0.53281  1.0000
  C   C3135     1.0  0.62509  0.11412  0.53369  1.0000
  S   S905      1.0  0.89229  0.23092  0.51530  1.0000
  H   H5358     1.0  0.58185  0.18112  0.65688  1.0000
  Fe  Fe457     1.0  0.97292  0.19043  0.65953  1.0000
  C   C3136     1.0  0.84854  0.21366  0.64742  1.0000
  C   C3137     1.0  0.56807  0.20988  0.67473  1.0000
  H   H5359     1.0  0.88598  0.18560  0.70814  1.0000
  C   C3138     1.0  0.67703  0.06984  0.52332  1.0000
  H   H5360     1.0  0.65401  0.98456  0.57157  1.0000
  C   C3139     1.0  0.64296  0.17778  0.71338  1.0000
  H   H5361     1.0  0.63052  0.14617  0.64261  1.0000
  H   H5362     1.0  0.80630  0.98590  0.61746  1.0000
  H   H5363     1.0  0.54128  0.18689  0.65281  1.0000
  H   H5364     1.0  0.52201  0.23122  0.64849  1.0000
  H   H5365     1.0  0.89729  0.22500  0.47949  1.0000
  H   H5366     1.0  0.93029  0.21225  0.56128  1.0000
  H   H5367     1.0  0.98193  0.20690  0.59462  1.0000
  H   H5368     1.0  0.95206  0.18898  0.54302  1.0000
  C   C3140     1.0  0.61972  0.15800  0.66215  1.0000
  H   H5369     1.0  0.61486  0.14620  0.69467  1.0000
  H   H5370     1.0  0.82906  0.16811  0.59718  1.0000
  H   H5371     1.0  0.62467  0.12671  0.52836  1.0000
  S   S906      1.0  0.97761  0.22300  0.50017  1.0000
  C   C3141     1.0  0.65361  0.18375  0.70026  1.0000
  S   S907      1.0  0.87521  0.23162  0.55176  1.0000
  H   H5372     1.0  0.75362  0.00666  0.54357  1.0000
  H   H5373     1.0  0.78117  0.12453  0.64629  1.0000
  C   C3142     1.0  0.79069  0.04436  0.59447  1.0000
  C   C3143     1.0  0.62859  0.16423  0.68211  1.0000
  H   H5374     1.0  0.63787  0.16830  0.68472  1.0000
  H   H5375     1.0  0.60586  0.11609  0.52246  1.0000
  N   N222      1.0  0.73741  0.02599  0.60599  1.0000
  C   C3144     1.0  0.72341  0.02676  0.61958  1.0000
  C   C3145     1.0  0.75101  0.02782  0.61121  1.0000
  C   C3146     1.0  0.74095  0.01019  0.60206  1.0000
  C   C3147     1.0  0.73306  0.03899  0.59262  1.0000
  C   C3148     1.0  0.70967  0.02034  0.61876  1.0000
  C   C3149     1.0  0.74911  0.04363  0.61522  1.0000
  H   H5376     1.0  0.90906  0.20855  0.55271  1.0000
  C   C3150     1.0  0.74590  0.04140  0.57767  1.0000
  C   C3151     1.0  0.97207  0.19097  0.61481  1.0000
  H   H5377     1.0  0.71836  0.03899  0.62104  1.0000
  H   H5378     1.0  0.76213  0.02616  0.60242  1.0000
  H   H5379     1.0  0.75326  0.01850  0.62160  1.0000
  H   H5380     1.0  0.73973  0.00097  0.61295  1.0000
  H   H5381     1.0  0.73234  0.00974  0.59567  1.0000
  H   H5382     1.0  0.72312  0.03725  0.58901  1.0000
  H   H5383     1.0  0.72821  0.05038  0.59620  1.0000
  C   C3152     1.0  0.68371  0.99490  0.48742  1.0000
  H   H5384     1.0  0.64452  0.22547  0.70890  1.0000
  C   C3153     1.0  0.52294  0.17431  0.59545  1.0000
  H   H5385     1.0  0.74888  0.05318  0.60470  1.0000
  H   H5386     1.0  0.73854  0.04637  0.62439  1.0000
  C   C3154     1.0  0.82523  0.03466  0.58289  1.0000
  S   S908      1.0  0.69152  0.04353  0.49094  1.0000
  H   H5387     1.0  0.70697  0.02391  0.60706  1.0000
  H   H5388     1.0  0.76655  0.00164  0.59924  1.0000
  H   H5389     1.0  0.74554  0.03453  0.56954  1.0000
  H   H5390     1.0  0.75784  0.03874  0.57980  1.0000
  H   H5391     1.0  0.74377  0.05390  0.57174  1.0000
  N   N223      1.0  0.61791  0.11201  0.55088  1.0000
  H   H5392     1.0  0.70689  0.11498  0.58510  1.0000
  C   C3155     1.0  0.62507  0.12061  0.55801  1.0000
  C   C3156     1.0  0.61950  0.09511  0.55925  1.0000
  C   C3157     1.0  0.59125  0.12090  0.56907  1.0000
  N   N224      1.0  0.63335  0.16176  0.66566  1.0000
  S   S909      1.0  0.94737  0.19656  0.65820  1.0000
  H   H5393     1.0  0.61977  0.11957  0.57064  1.0000
  H   H5394     1.0  0.61787  0.09403  0.57198  1.0000
  H   H5395     1.0  0.60999  0.09039  0.55795  1.0000
  H   H5396     1.0  0.59405  0.13005  0.57300  1.0000
  H   H5397     1.0  0.57858  0.12451  0.56894  1.0000
  C   C3158     1.0  0.65340  0.11034  0.48223  1.0000
  S   S910      1.0  0.73576  0.20676  0.64791  1.0000
  C   C3159     1.0  0.72416  0.22759  0.66750  1.0000
  H   H5398     1.0  0.64668  0.12339  0.56157  1.0000
  N   N225      1.0  0.69928  0.13550  0.59495  1.0000
  C   C3160     1.0  0.68903  0.12701  0.60881  1.0000
  C   C3161     1.0  0.70631  0.14554  0.60065  1.0000
  C   C3162     1.0  0.69688  0.11755  0.62256  1.0000
  C   C3163     1.0  0.70910  0.16120  0.58975  1.0000
  H   H5399     1.0  0.67839  0.13535  0.61350  1.0000
  H   H5400     1.0  0.68466  0.11847  0.60542  1.0000
  H   H5401     1.0  0.68018  0.15468  0.58930  1.0000
  H   H5402     1.0  0.69870  0.14885  0.61155  1.0000
  H   H5403     1.0  0.71763  0.13892  0.60392  1.0000
  H   H5404     1.0  0.68791  0.11264  0.63222  1.0000
  H   H5405     1.0  0.70618  0.10751  0.61937  1.0000
  H   H5406     1.0  0.70172  0.12469  0.62728  1.0000
  H   H5407     1.0  0.71581  0.16628  0.59483  1.0000
  H   H5408     1.0  0.71588  0.16004  0.57793  1.0000
  H   H5409     1.0  0.83405  0.18056  0.57804  1.0000
  C   C3164     1.0  0.56407  0.20055  0.64674  1.0000
  H   H5410     1.0  0.82411  0.12791  0.57261  1.0000
  C   C3165     1.0  0.91456  0.19600  0.55336  1.0000
  H   H5411     1.0  0.93991  0.17102  0.55453  1.0000
  C   C3166     1.0  0.54261  0.18795  0.66411  1.0000
  H   H5412     1.0  0.73869  0.05069  0.49860  1.0000
  C   C3167     1.0  0.92258  0.19450  0.53650  1.0000
  H   H5413     1.0  0.75937  0.04331  0.61974  1.0000
  C   C3168     1.0  0.65941  0.12921  0.50174  1.0000
  C   C3169     1.0  0.91362  0.19076  0.58118  1.0000
  C   C3170     1.0  0.75737  0.00441  0.59246  1.0000
  H   H5414     1.0  0.75158  0.04443  0.51152  1.0000
  H   H5415     1.0  0.90468  0.18999  0.55680  1.0000
  C   C3171     1.0  0.90436  0.19225  0.68864  1.0000
  H   H5416     1.0  0.86009  0.18576  0.70953  1.0000
  H   H5417     1.0  0.64248  0.11818  0.48715  1.0000
  S   S911      1.0  0.59056  0.16165  0.58080  1.0000
  C   C3172     1.0  0.73737  0.21945  0.65863  1.0000
  H   H5418     1.0  0.68057  0.01696  0.60209  1.0000
  C   C3173     1.0  0.62674  0.18259  0.71400  1.0000
  H   H5419     1.0  0.58794  0.18948  0.63710  1.0000
  H   H5420     1.0  0.92808  0.18233  0.53541  1.0000
  H   H5421     1.0  0.79692  0.04685  0.60202  1.0000
  H   H5422     1.0  0.86300  0.23163  0.59150  1.0000
  H   H5423     1.0  0.93858  0.20476  0.48737  1.0000
  H   H5424     1.0  0.75746  0.99334  0.58969  1.0000
  H   H5425     1.0  0.94088  0.19743  0.57350  1.0000
  H   H5426     1.0  0.56223  0.18417  0.56563  1.0000
  N   N226      1.0  0.76902  0.15868  0.64609  1.0000
  C   C3174     1.0  0.76413  0.15404  0.63382  1.0000
  C   C3175     1.0  0.78327  0.14653  0.65005  1.0000
  C   C3176     1.0  0.77353  0.17421  0.63893  1.0000
  C   C3177     1.0  0.75535  0.15991  0.65987  1.0000
  C   C3178     1.0  0.75025  0.16543  0.62721  1.0000
  C   C3179     1.0  0.78092  0.12966  0.65604  1.0000
  C   C3180     1.0  0.77928  0.18116  0.64928  1.0000
  C   C3181     1.0  0.75914  0.15789  0.67587  1.0000
  H   H5427     1.0  0.77419  0.15221  0.62379  1.0000
  H   H5428     1.0  0.76048  0.14269  0.63847  1.0000
  H   H5429     1.0  0.78786  0.14905  0.65888  1.0000
  H   H5430     1.0  0.79320  0.14653  0.63966  1.0000
  H   H5431     1.0  0.78282  0.17347  0.62811  1.0000
  H   H5432     1.0  0.76338  0.18329  0.63540  1.0000
  H   H5433     1.0  0.74699  0.17134  0.65760  1.0000
  H   H5434     1.0  0.74861  0.15089  0.66151  1.0000
  H   H5435     1.0  0.75351  0.17630  0.61960  1.0000
  H   H5436     1.0  0.74662  0.15983  0.61984  1.0000
  H   H5437     1.0  0.73983  0.16827  0.63650  1.0000
  H   H5438     1.0  0.67050  0.13254  0.58782  1.0000
  H   H5439     1.0  0.68080  0.18181  0.62351  1.0000
  H   H5440     1.0  0.76986  0.12882  0.66483  1.0000
  H   H5441     1.0  0.78960  0.17340  0.65367  1.0000
  H   H5442     1.0  0.76961  0.18464  0.65899  1.0000
  H   H5443     1.0  0.78301  0.19205  0.64222  1.0000
  H   H5444     1.0  0.74961  0.16566  0.68258  1.0000
  H   H5445     1.0  0.77021  0.16089  0.67551  1.0000
  H   H5446     1.0  0.75889  0.14589  0.68288  1.0000
  N   N227      1.0  0.84144  0.15049  0.57165  1.0000
  C   C3182     1.0  0.84880  0.15662  0.58098  1.0000
  C   C3183     1.0  0.85212  0.13534  0.56831  1.0000
  C   C3184     1.0  0.82596  0.14729  0.58176  1.0000
  C   C3185     1.0  0.83912  0.16275  0.55702  1.0000
  C   C3186     1.0  0.83874  0.17113  0.58724  1.0000
  C   C3187     1.0  0.86947  0.13594  0.56101  1.0000
  C   C3188     1.0  0.81704  0.13913  0.57551  1.0000
  C   C3189     1.0  0.83932  0.15704  0.54259  1.0000
  H   H5447     1.0  0.85214  0.14745  0.59110  1.0000
  H   H5448     1.0  0.85989  0.15995  0.57387  1.0000
  H   H5449     1.0  0.84801  0.13069  0.56054  1.0000
  H   H5450     1.0  0.85191  0.12609  0.57917  1.0000
  H   H5451     1.0  0.82768  0.13994  0.59336  1.0000
  H   H5452     1.0  0.81760  0.15827  0.58410  1.0000
  H   H5453     1.0  0.82786  0.17140  0.55934  1.0000
  H   H5454     1.0  0.84833  0.16977  0.55308  1.0000
  C   C3190     1.0  0.75951  0.02190  0.49683  1.0000
  H   H5455     1.0  0.55872  0.20182  0.63679  1.0000
  H   H5456     1.0  0.69002  0.00199  0.49067  1.0000
  N   N228      1.0  0.74374  0.02569  0.50757  1.0000
  H   H5457     1.0  0.87072  0.14634  0.55146  1.0000
  H   H5458     1.0  0.87564  0.13584  0.56997  1.0000
  H   H5459     1.0  0.56628  0.18638  0.67815  1.0000
  H   H5460     1.0  0.54652  0.22565  0.65718  1.0000
  H   H5461     1.0  0.80681  0.13620  0.58482  1.0000
  H   H5462     1.0  0.85128  0.15100  0.53754  1.0000
  H   H5463     1.0  0.83581  0.16733  0.53343  1.0000
  S   S912      1.0  0.68797  0.20826  0.66137  1.0000
  C   C3191     1.0  0.62119  0.19357  0.70161  1.0000
  S   S913      1.0  0.67386  0.17751  0.69935  1.0000
  H   H5464     1.0  0.69780  0.16975  0.58894  1.0000
  H   H5465     1.0  0.82013  0.03083  0.59540  1.0000
  C   C3192     1.0  0.63499  0.08369  0.55389  1.0000
  H   H5466     1.0  0.71962  0.11646  0.59591  1.0000
  S   S914      1.0  0.98271  0.18879  0.68010  1.0000
  H   H5467     1.0  0.67367  0.14544  0.56939  1.0000
  C   C3193     1.0  0.57763  0.18607  0.64596  1.0000
  S   S915      1.0  0.89511  0.17347  0.62184  1.0000
  H   H5468     1.0  0.89130  0.18307  0.48727  1.0000
  H   H5469     1.0  0.87552  0.12540  0.55619  1.0000
  C   C3194     1.0  0.93207  0.17295  0.56574  1.0000
  C   C3195     1.0  0.84152  0.02363  0.57993  1.0000
  H   H5470     1.0  0.92166  0.19891  0.64494  1.0000
  H   H5471     1.0  0.77903  0.05253  0.59562  1.0000
  H   H5472     1.0  0.95426  0.16272  0.66824  1.0000
  C   C3196     1.0  0.63184  0.19968  0.68863  1.0000
  C   C3197     1.0  0.64802  0.19470  0.68789  1.0000
  H   H5473     1.0  0.65615  0.19943  0.67777  1.0000
  C   C3198     1.0  0.68792  0.07935  0.51864  1.0000
  C   C3199     1.0  0.71201  0.12346  0.58766  1.0000
  Fe  Fe458     1.0  0.71342  0.19807  0.65195  1.0000
  H   H5474     1.0  0.64394  0.13697  0.66874  1.0000
  H   H5475     1.0  0.90754  0.17944  0.64471  1.0000
  H   H5476     1.0  0.52569  0.17011  0.56762  1.0000
  C   C3200     1.0  0.74095  0.04218  0.50951  1.0000
  C   C3201     1.0  0.61035  0.16243  0.53024  1.0000
  H   H5477     1.0  0.51640  0.10103  0.70851  1.0000
  S   S916      1.0  0.58010  0.15147  0.50368  1.0000
  S   S917      1.0  0.91232  0.14609  0.65716  1.0000
  C   C3202     1.0  0.92284  0.15996  0.65631  1.0000
  C   C3203     1.0  0.92580  0.18673  0.64983  1.0000
  H   H5478     1.0  0.63356  0.07763  0.54557  1.0000
  H   H5479     1.0  0.94007  0.14315  0.66802  1.0000
  C   C3204     1.0  0.93887  0.18212  0.65664  1.0000
  C   C3205     1.0  0.93613  0.15530  0.66283  1.0000
  S   S918      1.0  0.86188  0.20856  0.63068  1.0000
  C   C3206     1.0  0.94422  0.16635  0.66290  1.0000
  S   S919      1.0  0.60394  0.15932  0.61178  1.0000
  H   H5480     1.0  0.55214  0.12521  0.61007  1.0000
  H   H5481     1.0  0.73192  0.11951  0.56861  1.0000
  H   H5482     1.0  0.85966  0.21198  0.71393  1.0000
  C   C3207     1.0  0.55607  0.18221  0.61642  1.0000
  C   C3208     1.0  0.54060  0.18939  0.62239  1.0000
  H   H5483     1.0  0.80123  0.05072  0.54558  1.0000
  H   H5484     1.0  0.72883  0.03397  0.49054  1.0000
  Fe  Fe459     1.0  0.59193  0.17786  0.59450  1.0000
  S   S920      1.0  0.56932  0.19347  0.60393  1.0000
  C   C3209     1.0  0.52997  0.18031  0.63216  1.0000
  C   C3210     1.0  0.56081  0.16598  0.62030  1.0000
  C   C3211     1.0  0.55026  0.15696  0.63005  1.0000
  H   H5485     1.0  0.57252  0.16023  0.61552  1.0000
  H   H5486     1.0  0.55404  0.14438  0.63281  1.0000
  S   S921      1.0  0.50468  0.16833  0.68421  1.0000
  C   C3212     1.0  0.50688  0.17040  0.60435  1.0000
  C   C3213     1.0  0.61712  0.15872  0.51558  1.0000
  H   H5487     1.0  0.67388  0.16219  0.61443  1.0000
  H   H5488     1.0  0.62762  0.20829  0.67906  1.0000
  H   H5489     1.0  0.53680  0.20193  0.61930  1.0000
  S   S922      1.0  0.62736  0.14606  0.58181  1.0000
  C   C3214     1.0  0.53479  0.16405  0.63593  1.0000
  C   C3215     1.0  0.87832  0.18272  0.68056  1.0000
  H   H5490     1.0  0.86873  0.18397  0.67462  1.0000
  H   H5491     1.0  0.56154  0.16674  0.66762  1.0000
  H   H5492     1.0  0.82355  0.00320  0.61633  1.0000
  H   H5493     1.0  0.75741  0.04345  0.47855  1.0000
  H   H5494     1.0  0.59308  0.10966  0.57759  1.0000
  C   C3216     1.0  0.55303  0.13581  0.60064  1.0000
  S   S923      1.0  0.66380  0.21222  0.62862  1.0000
  C   C3217     1.0  0.61725  0.10813  0.52422  1.0000
  H   H5495     1.0  0.59450  0.11323  0.54824  1.0000
  C   C3218     1.0  0.52920  0.15888  0.57577  1.0000
  H   H5496     1.0  0.95913  0.21724  0.58254  1.0000
  H   H5497     1.0  0.84760  0.02294  0.58918  1.0000
  H   H5498     1.0  0.56914  0.21108  0.64336  1.0000
  C   C3219     1.0  0.72322  0.12961  0.57264  1.0000
  C   C3220     1.0  0.54031  0.21597  0.66017  1.0000
  Fe  Fe460     1.0  0.50086  0.16369  0.66288  1.0000
  H   H5499     1.0  0.53044  0.19271  0.71538  1.0000
  H   H5500     1.0  0.71705  0.13596  0.56309  1.0000
  H   H5501     1.0  0.62255  0.13331  0.55269  1.0000
  C   C3221     1.0  0.70119  0.06670  0.49704  1.0000
  C   C3222     1.0  0.66612  0.17345  0.61429  1.0000
  Fe  Fe461     1.0  0.68274  0.20045  0.64234  1.0000
  H   H5502     1.0  0.81037  0.01338  0.58889  1.0000
  H   H5503     1.0  0.68758  0.12739  0.57269  1.0000
  S   S924      1.0  0.52155  0.15220  0.64682  1.0000
  H   H5504     1.0  0.56068  0.22179  0.67466  1.0000
  C   C3223     1.0  0.82749  0.22219  0.67417  1.0000
  C   C3224     1.0  0.64570  0.20241  0.61494  1.0000
  N   N229      1.0  0.87487  0.19622  0.68831  1.0000
  H   H5505     1.0  0.52808  0.13994  0.60231  1.0000
  H   H5506     1.0  0.54227  0.16334  0.67196  1.0000
  C   C3225     1.0  0.59435  0.16303  0.53641  1.0000
  H   H5507     1.0  0.73000  0.13691  0.57471  1.0000
  C   C3226     1.0  0.75590  0.01430  0.53179  1.0000
  Fe  Fe462     1.0  0.62617  0.16392  0.59501  1.0000
  C   C3227     1.0  0.66992  0.18453  0.61969  1.0000
  C   C3228     1.0  0.87320  0.21144  0.67640  1.0000
  H   H5508     1.0  0.85030  0.19510  0.69400  1.0000
  C   C3229     1.0  0.85924  0.19610  0.69970  1.0000
  H   H5509     1.0  0.91188  0.18596  0.69715  1.0000
  H   H5510     1.0  0.51679  0.19024  0.69636  1.0000
  Fe  Fe463     1.0  0.61393  0.16570  0.56646  1.0000
  H   H5511     1.0  0.62267  0.15318  0.70657  1.0000
  H   H5512     1.0  0.57301  0.20645  0.68532  1.0000
  C   C3230     1.0  0.65211  0.17658  0.60933  1.0000
  H   H5513     1.0  0.61027  0.15501  0.64413  1.0000
  H   H5514     1.0  0.72121  0.99129  0.56577  1.0000
  H   H5515     1.0  0.54769  0.17084  0.68530  1.0000
  C   C3231     1.0  0.51401  0.20101  0.70021  1.0000
  H   H5516     1.0  0.73207  0.01579  0.53069  1.0000
  S   S925      1.0  0.70815  0.19285  0.63151  1.0000
  C   C3232     1.0  0.88699  0.19488  0.69731  1.0000
  H   H5517     1.0  0.68196  0.99997  0.56607  1.0000
  C   C3233     1.0  0.65932  0.14817  0.64901  1.0000
  S   S926      1.0  0.64784  0.16143  0.60383  1.0000
  S   S927      1.0  0.61430  0.18398  0.57860  1.0000
  C   C3234     1.0  0.65963  0.19897  0.62031  1.0000
  C   C3235     1.0  0.50674  0.22886  0.71031  1.0000
  H   H5518     1.0  0.91056  0.21308  0.49093  1.0000
  C   C3236     1.0  0.64189  0.19118  0.60951  1.0000
  H   H5519     1.0  0.65378  0.14975  0.63921  1.0000
  H   H5520     1.0  0.56155  0.14121  0.60280  1.0000
  H   H5521     1.0  0.65489  0.14807  0.67294  1.0000
  H   H5522     1.0  0.66619  0.15725  0.64626  1.0000
  C   C3237     1.0  0.67091  0.99690  0.57360  1.0000
  C   C3238     1.0  0.53670  0.14694  0.60134  1.0000
  H   H5523     1.0  0.72887  0.04048  0.53436  1.0000
  H   H5524     1.0  0.76805  0.00952  0.52592  1.0000
  C   C3239     1.0  0.64288  0.11532  0.55698  1.0000
  H   H5525     1.0  0.55426  0.16866  0.59206  1.0000
  C   C3240     1.0  0.55027  0.16691  0.58236  1.0000
  H   H5526     1.0  0.50171  0.12842  0.70157  1.0000
  C   C3241     1.0  0.62380  0.19118  0.65424  1.0000
  C   C3242     1.0  0.74383  0.01413  0.52287  1.0000
  C   C3243     1.0  0.60803  0.15533  0.50725  1.0000
  H   H5527     1.0  0.63772  0.21361  0.61530  1.0000
  H   H5528     1.0  0.63771  0.10850  0.53132  1.0000
  N   N230      1.0  0.55170  0.20032  0.66165  1.0000
  C   C3244     1.0  0.69987  0.07792  0.50537  1.0000
  H   H5529     1.0  0.89795  0.08246  0.64258  1.0000
  N   N231      1.0  0.92448  0.18992  0.56542  1.0000
  H   H5530     1.0  0.64461  0.00165  0.61278  1.0000
  H   H5531     1.0  0.83875  0.22699  0.61007  1.0000
  H   H5532     1.0  0.83112  0.14934  0.54493  1.0000
  C   C3245     1.0  0.95055  0.19835  0.54906  1.0000
  H   H5533     1.0  0.55163  0.15169  0.55961  1.0000
  C   C3246     1.0  0.54914  0.17134  0.67273  1.0000
  H   H5534     1.0  0.53506  0.14693  0.55682  1.0000
  C   C3247     1.0  0.51789  0.21633  0.71629  1.0000
  C   C3248     1.0  0.55009  0.18216  0.56979  1.0000
  H   H5535     1.0  0.90638  0.18183  0.58473  1.0000
  C   C3249     1.0  0.49964  0.22769  0.69904  1.0000
  H   H5536     1.0  0.53040  0.19131  0.67079  1.0000
  C   C3250     1.0  0.52170  0.20241  0.71105  1.0000
  H   H5537     1.0  0.94776  0.15282  0.57657  1.0000
  H   H5538     1.0  0.84619  0.17587  0.59174  1.0000
  H   H5539     1.0  0.86141  0.21472  0.67358  1.0000
  C   C3251     1.0  0.72706  0.04709  0.52263  1.0000
  H   H5540     1.0  0.90735  0.18461  0.68033  1.0000
  H   H5541     1.0  0.74624  0.00200  0.52122  1.0000
  H   H5542     1.0  0.81216  0.14697  0.56557  1.0000
  H   H5543     1.0  0.54890  0.19840  0.68627  1.0000
  C   C3252     1.0  0.54069  0.14761  0.56588  1.0000
  N   N232      1.0  0.53500  0.16153  0.58853  1.0000
  C   C3253     1.0  0.88055  0.16637  0.69131  1.0000
  H   H5544     1.0  0.54341  0.13565  0.57294  1.0000
  H   H5545     1.0  0.82082  0.01140  0.56985  1.0000
  H   H5546     1.0  0.52757  0.17791  0.60364  1.0000
  C   C3254     1.0  0.85203  0.21044  0.70716  1.0000
  H   H5547     1.0  0.72767  0.00037  0.50824  1.0000
  H   H5548     1.0  0.78880  0.03234  0.59892  1.0000
  N   N233      1.0  0.95950  0.22021  0.60504  1.0000
  C   C3255     1.0  0.75382  0.23295  0.66494  1.0000
  H   H5549     1.0  0.88901  0.18255  0.67113  1.0000
  C   C3256     1.0  0.90203  0.20651  0.58267  1.0000
  H   H5550     1.0  0.64684  0.20625  0.72021  1.0000
  C   C3257     1.0  0.94178  0.16477  0.57829  1.0000
  H   H5551     1.0  0.50766  0.17394  0.72160  1.0000
  H   H5552     1.0  0.69892  0.02470  0.62709  1.0000
  H   H5553     1.0  0.87388  0.22113  0.68117  1.0000
  C   C3258     1.0  0.66537  0.98767  0.56514  1.0000
  H   H5554     1.0  0.66293  0.98495  0.49931  1.0000
  H   H5555     1.0  0.72434  0.01048  0.48910  1.0000
  S   S928      1.0  0.77296  0.98757  0.63035  1.0000
  H   H5556     1.0  0.91111  0.17930  0.48888  1.0000
  H   H5557     1.0  0.71267  0.22566  0.66849  1.0000
  C   C3259     1.0  0.90084  0.18880  0.48661  1.0000
  H   H5558     1.0  0.65597  0.14164  0.49597  1.0000
  H   H5559     1.0  0.94968  0.20447  0.59850  1.0000
  H   H5560     1.0  0.61860  0.17767  0.72395  1.0000
  H   H5561     1.0  0.89722  0.20849  0.66165  1.0000
  N   N234      1.0  0.66716  0.11812  0.47700  1.0000
  S   S929      1.0  0.81510  0.22718  0.69132  1.0000
  H   H5562     1.0  0.82185  0.22280  0.63206  1.0000
  H   H5563     1.0  0.74374  0.00341  0.49183  1.0000
  C   C3260     1.0  0.94924  0.22026  0.62109  1.0000
  S   S930      1.0  0.98515  0.20934  0.64444  1.0000
  H   H5564     1.0  0.98144  0.21042  0.61279  1.0000
  H   H5565     1.0  0.71107  0.06494  0.48751  1.0000
  H   H5566     1.0  0.84076  0.20876  0.71538  1.0000
  C   C3261     1.0  0.50065  0.12238  0.71366  1.0000
  H   H5567     1.0  0.65938  0.00567  0.49822  1.0000
  H   H5568     1.0  0.52309  0.21123  0.64985  1.0000
  H   H5569     1.0  0.95652  0.21878  0.62960  1.0000
  H   H5570     1.0  0.88399  0.15750  0.68408  1.0000
  H   H5571     1.0  0.66476  0.99398  0.55301  1.0000
  H   H5572     1.0  0.53191  0.21699  0.67150  1.0000
  H   H5573     1.0  0.92607  0.22342  0.60330  1.0000
  C   C3262     1.0  0.76061  0.03065  0.47971  1.0000
  C   C3263     1.0  0.93706  0.19462  0.48398  1.0000
  C   C3264     1.0  0.93516  0.22672  0.59286  1.0000
  H   H5574     1.0  0.98383  0.18325  0.61540  1.0000
  H   H5575     1.0  0.88306  0.22424  0.65363  1.0000
  H   H5576     1.0  0.94864  0.18629  0.48299  1.0000
  C   C3265     1.0  0.64476  0.99608  0.60338  1.0000
  H   H5577     1.0  0.67040  0.99208  0.51140  1.0000
  S   S931      1.0  0.99165  0.17087  0.65094  1.0000
  H   H5578     1.0  0.53200  0.15644  0.71509  1.0000
  H   H5579     1.0  0.64728  0.16926  0.72293  1.0000
  C   C3266     1.0  0.84502  0.22905  0.64926  1.0000
  H   H5580     1.0  0.97559  0.22956  0.52969  1.0000
  H   H5581     1.0  0.63431  0.99084  0.60682  1.0000
  H   H5582     1.0  0.80582  0.23249  0.64448  1.0000
  H   H5583     1.0  0.92416  0.23150  0.62598  1.0000
  H   H5584     1.0  0.59965  0.22520  0.71890  1.0000
  C   C3267     1.0  0.90996  0.21969  0.47891  1.0000
  S   S932      1.0  0.49448  0.21342  0.67909  1.0000
  H   H5585     1.0  0.50431  0.15482  0.72644  1.0000
  C   C3268     1.0  0.81171  0.23287  0.63207  1.0000
  H   H5586     1.0  0.59075  0.01004  0.86116  1.0000
  Fe  Fe464     1.0  0.52793  0.10382  0.82893  1.0000
  S   S933      1.0  0.54591  0.08266  0.82350  1.0000
  S   S934      1.0  0.51137  0.11595  0.81293  1.0000
  Fe  Fe465     1.0  0.54118  0.10490  0.85575  1.0000
  S   S935      1.0  0.56067  0.08384  0.85245  1.0000
  S   S936      1.0  0.53506  0.12112  0.87225  1.0000
  Fe  Fe466     1.0  0.56281  0.09456  0.82682  1.0000
  S   S937      1.0  0.58390  0.09921  0.80807  1.0000
  Fe  Fe467     1.0  0.54199  0.07373  0.84928  1.0000
  S   S938      1.0  0.53769  0.04947  0.86012  1.0000
  S   S939      1.0  0.54505  0.11630  0.83053  1.0000
  S   S940      1.0  0.52229  0.09405  0.85459  1.0000
  Fe  Fe468     1.0  0.54152  0.15908  0.93999  1.0000
  S   S941      1.0  0.55121  0.16930  0.95388  1.0000
  C   C3269     1.0  0.56791  0.00302  0.86733  1.0000
  Fe  Fe469     1.0  0.57305  0.14597  0.92161  1.0000
  S   S942      1.0  0.58615  0.15438  0.93411  1.0000
  S   S943      1.0  0.58447  0.13270  0.90241  1.0000
  H   H5587     1.0  0.51550  0.08672  0.94706  1.0000
  S   S944      1.0  0.58752  0.17539  0.74583  1.0000
  Fe  Fe470     1.0  0.56772  0.17644  0.93137  1.0000
  S   S945      1.0  0.57416  0.19966  0.92575  1.0000
  C   C3270     1.0  0.62383  0.19239  0.75147  1.0000
  S   S946      1.0  0.55601  0.16885  0.91704  1.0000
  C   C3271     1.0  0.54137  0.09788  0.93722  1.0000
  S   S947      1.0  0.60835  0.21562  0.85565  1.0000
  Fe  Fe471     1.0  0.56522  0.16969  0.74527  1.0000
  C   C3272     1.0  0.50536  0.15030  0.75819  1.0000
  S   S948      1.0  0.55828  0.14669  0.75123  1.0000
  H   H5588     1.0  0.54447  0.14832  0.83104  1.0000
  C   C3273     1.0  0.53071  0.15645  0.80671  1.0000
  H   H5589     1.0  0.59890  0.98608  0.88029  1.0000
  H   H5590     1.0  0.55594  0.08501  0.74973  1.0000
  H   H5591     1.0  0.57768  0.14915  0.79563  1.0000
  N   N235      1.0  0.53878  0.16638  0.81120  1.0000
  H   H5592     1.0  0.51550  0.07719  0.78845  1.0000
  C   C3274     1.0  0.53867  0.16085  0.82833  1.0000
  C   C3275     1.0  0.55561  0.16511  0.80235  1.0000
  H   H5593     1.0  0.57387  0.02488  0.86540  1.0000
  H   H5594     1.0  0.56694  0.14193  0.81456  1.0000
  H   H5595     1.0  0.57464  0.20626  0.95727  1.0000
  H   H5596     1.0  0.52876  0.20678  0.80907  1.0000
  H   H5597     1.0  0.53169  0.18751  0.79460  1.0000
  H   H5598     1.0  0.62353  0.21255  0.93524  1.0000
  H   H5599     1.0  0.54567  0.16698  0.83184  1.0000
  H   H5600     1.0  0.62927  0.19785  0.95151  1.0000
  H   H5601     1.0  0.52414  0.17114  0.78508  1.0000
  N   N236      1.0  0.61619  0.22236  0.74291  1.0000
  C   C3276     1.0  0.57200  0.22709  0.77478  1.0000
  H   H5602     1.0  0.53266  0.19266  0.82617  1.0000
  H   H5603     1.0  0.50625  0.99740  0.85961  1.0000
  H   H5604     1.0  0.51597  0.22958  0.90213  1.0000
  H   H5605     1.0  0.51730  0.18433  0.81198  1.0000
  H   H5606     1.0  0.62766  0.17032  0.95284  1.0000
  H   H5607     1.0  0.53162  0.08198  0.90517  1.0000
  H   H5608     1.0  0.51505  0.05405  0.80882  1.0000
  H   H5609     1.0  0.53581  0.04868  0.80630  1.0000
  H   H5610     1.0  0.52648  0.04829  0.79130  1.0000
  C   C3277     1.0  0.52706  0.15576  0.72774  1.0000
  H   H5611     1.0  0.50670  0.08716  0.83432  1.0000
  H   H5612     1.0  0.58545  0.17114  0.97044  1.0000
  H   H5613     1.0  0.61446  0.16984  0.94187  1.0000
  H   H5614     1.0  0.58019  0.06390  0.78411  1.0000
  H   H5615     1.0  0.52399  0.15853  0.85165  1.0000
  H   H5616     1.0  0.54042  0.21900  0.89797  1.0000
  C   C3278     1.0  0.53106  0.15941  0.78927  1.0000
  H   H5617     1.0  0.49825  0.01759  0.85457  1.0000
  H   H5618     1.0  0.52563  0.15076  0.78744  1.0000
  H   H5619     1.0  0.52519  0.07752  0.80273  1.0000
  H   H5620     1.0  0.56188  0.17116  0.80688  1.0000
  H   H5621     1.0  0.55631  0.17114  0.78992  1.0000
  H   H5622     1.0  0.51565  0.15444  0.83823  1.0000
  C   C3279     1.0  0.50619  0.17875  0.93788  1.0000
  H   H5623     1.0  0.51482  0.10456  0.91411  1.0000
  C   C3280     1.0  0.49684  0.20485  0.94283  1.0000
  C   C3281     1.0  0.54042  0.06983  0.76640  1.0000
  C   C3282     1.0  0.60665  0.18414  0.97491  1.0000
  H   H5624     1.0  0.51817  0.14725  0.75760  1.0000
  C   C3283     1.0  0.52836  0.22119  0.92803  1.0000
  H   H5625     1.0  0.51809  0.15813  0.81266  1.0000
  H   H5626     1.0  0.52659  0.18362  0.74181  1.0000
  H   H5627     1.0  0.64132  0.21817  0.74031  1.0000
  C   C3284     1.0  0.58624  0.20313  0.90718  1.0000
  C   C3285     1.0  0.58974  0.21785  0.90075  1.0000
  C   C3286     1.0  0.59667  0.22182  0.88489  1.0000
  C   C3287     1.0  0.60103  0.21070  0.87576  1.0000
  C   C3288     1.0  0.59907  0.19550  0.88267  1.0000
  C   C3289     1.0  0.59123  0.19180  0.89825  1.0000
  H   H5628     1.0  0.58660  0.22633  0.90788  1.0000
  H   H5629     1.0  0.52566  0.07627  0.92585  1.0000
  H   H5630     1.0  0.60321  0.18674  0.87582  1.0000
  H   H5631     1.0  0.58888  0.18029  0.90325  1.0000
  H   H5632     1.0  0.52834  0.10110  0.75662  1.0000
  H   H5633     1.0  0.53389  0.10772  0.90660  1.0000
  H   H5634     1.0  0.52440  0.12635  0.93945  1.0000
  N   N237      1.0  0.54070  0.07534  0.78035  1.0000
  C   C3290     1.0  0.50694  0.09887  0.73315  1.0000
  C   C3291     1.0  0.52672  0.10109  0.91677  1.0000
  H   H5635     1.0  0.60305  0.15042  0.96273  1.0000
  C   C3292     1.0  0.57032  0.07259  0.77958  1.0000
  H   H5636     1.0  0.52963  0.14322  0.73348  1.0000
  S   S949      1.0  0.54965  0.18701  0.75913  1.0000
  C   C3293     1.0  0.57730  0.11188  0.79173  1.0000
  C   C3294     1.0  0.58704  0.12088  0.78039  1.0000
  C   C3295     1.0  0.58127  0.13179  0.76794  1.0000
  C   C3296     1.0  0.56592  0.13328  0.76657  1.0000
  C   C3297     1.0  0.55634  0.12404  0.77769  1.0000
  C   C3298     1.0  0.56192  0.11358  0.79035  1.0000
  H   H5637     1.0  0.59891  0.11970  0.78143  1.0000
  H   H5638     1.0  0.58874  0.13888  0.75933  1.0000
  H   H5639     1.0  0.54440  0.12534  0.77682  1.0000
  H   H5640     1.0  0.55423  0.10693  0.79908  1.0000
  C   C3299     1.0  0.54944  0.12458  0.87955  1.0000
  C   C3300     1.0  0.54482  0.13566  0.88879  1.0000
  C   C3301     1.0  0.55551  0.13805  0.89589  1.0000
  C   C3302     1.0  0.57103  0.12959  0.89358  1.0000
  C   C3303     1.0  0.57583  0.11879  0.88396  1.0000
  C   C3304     1.0  0.56502  0.11621  0.87700  1.0000
  H   H5641     1.0  0.53279  0.14219  0.89075  1.0000
  H   H5642     1.0  0.55166  0.14639  0.90325  1.0000
  H   H5643     1.0  0.58785  0.11223  0.88209  1.0000
  H   H5644     1.0  0.56867  0.10762  0.86989  1.0000
  C   C3305     1.0  0.52620  0.05470  0.80004  1.0000
  H   H5645     1.0  0.54949  0.22851  0.92534  1.0000
  H   H5646     1.0  0.50748  0.99664  0.75375  1.0000
  C   C3306     1.0  0.50889  0.10515  0.95941  1.0000
  H   H5647     1.0  0.49837  0.16104  0.77866  1.0000
  C   C3307     1.0  0.58306  0.22650  0.80073  1.0000
  H   H5648     1.0  0.49695  0.00007  0.81379  1.0000
  C   C3308     1.0  0.50500  0.18938  0.94681  1.0000
  C   C3309     1.0  0.61533  0.16982  0.95381  1.0000
  C   C3310     1.0  0.55183  0.01300  0.83038  1.0000
  C   C3311     1.0  0.53958  0.01216  0.84358  1.0000
  C   C3312     1.0  0.53483  0.02382  0.85224  1.0000
  C   C3313     1.0  0.54216  0.03647  0.84768  1.0000
  C   C3314     1.0  0.55384  0.03776  0.83402  1.0000
  C   C3315     1.0  0.55866  0.02604  0.82541  1.0000
  H   H5649     1.0  0.53412  0.00230  0.84743  1.0000
  H   H5650     1.0  0.52572  0.02284  0.86274  1.0000
  H   H5651     1.0  0.55966  0.04740  0.83049  1.0000
  H   H5652     1.0  0.56811  0.02680  0.81519  1.0000
  C   C3316     1.0  0.50273  0.17942  0.74942  1.0000
  H   H5653     1.0  0.52066  0.00427  0.82529  1.0000
  H   H5654     1.0  0.50439  0.11794  0.95783  1.0000
  C   C3317     1.0  0.52237  0.16231  0.83946  1.0000
  H   H5655     1.0  0.52869  0.07413  0.76336  1.0000
  N   N238      1.0  0.52630  0.10535  0.93169  1.0000
  H   H5656     1.0  0.53341  0.16214  0.73162  1.0000
  H   H5657     1.0  0.55658  0.00692  0.87518  1.0000
  H   H5658     1.0  0.51730  0.01191  0.80571  1.0000
  S   S950      1.0  0.51414  0.07871  0.73797  1.0000
  Fe  Fe472     1.0  0.57162  0.19411  0.75814  1.0000
  H   H5659     1.0  0.61114  0.20744  0.97194  1.0000
  S   S951      1.0  0.55959  0.99758  0.82046  1.0000
  H   H5660     1.0  0.56286  0.19222  0.96525  1.0000
  H   H5661     1.0  0.60273  0.19789  0.93642  1.0000
  C   C3318     1.0  0.55297  0.07363  0.75151  1.0000
  C   C3319     1.0  0.53018  0.18315  0.80742  1.0000
  H   H5662     1.0  0.53397  0.12676  0.92003  1.0000
  C   C3320     1.0  0.61341  0.15366  0.96410  1.0000
  H   H5663     1.0  0.57356  0.07454  0.76676  1.0000
  C   C3321     1.0  0.53535  0.19482  0.81329  1.0000
  H   H5664     1.0  0.53567  0.14388  0.81060  1.0000
  H   H5665     1.0  0.52447  0.00018  0.75702  1.0000
  C   C3322     1.0  0.57901  0.01222  0.86893  1.0000
  H   H5666     1.0  0.62167  0.19121  0.76423  1.0000
  H   H5667     1.0  0.55048  0.09608  0.76937  1.0000
  C   C3323     1.0  0.53956  0.09271  0.77685  1.0000
  C   C3324     1.0  0.56568  0.14847  0.80269  1.0000
  C   C3325     1.0  0.52403  0.12276  0.92892  1.0000
  H   H5668     1.0  0.50880  0.13073  0.91189  1.0000
  C   C3326     1.0  0.52619  0.99963  0.73367  1.0000
  C   C3327     1.0  0.50077  0.02468  0.82309  1.0000
  C   C3328     1.0  0.58766  0.18155  0.96128  1.0000
  H   H5669     1.0  0.54827  0.07460  0.74121  1.0000
  H   H5670     1.0  0.52597  0.02200  0.81394  1.0000
  H   H5671     1.0  0.55820  0.98323  0.85675  1.0000
  H   H5672     1.0  0.56660  0.09149  0.92785  1.0000
  Fe  Fe473     1.0  0.54896  0.20333  0.73598  1.0000
  H   H5673     1.0  0.62378  0.14465  0.96030  1.0000
  C   C3329     1.0  0.55658  0.10137  0.92556  1.0000
  C   C3330     1.0  0.49562  0.00602  0.85673  1.0000
  H   H5674     1.0  0.53796  0.09664  0.78779  1.0000
  H   H5675     1.0  0.58645  0.17916  0.95046  1.0000
  C   C3331     1.0  0.51699  0.01498  0.81671  1.0000
  H   H5676     1.0  0.57993  0.01018  0.88117  1.0000
  C   C3332     1.0  0.52051  0.99327  0.75118  1.0000
  H   H5677     1.0  0.49764  0.03460  0.81340  1.0000
  C   C3333     1.0  0.60647  0.19805  0.94699  1.0000
  H   H5678     1.0  0.54280  0.08502  0.94135  1.0000
  C   C3334     1.0  0.55513  0.06644  0.78674  1.0000
  H   H5679     1.0  0.54117  0.10187  0.94772  1.0000
  H   H5680     1.0  0.49662  0.10066  0.75690  1.0000
  H   H5681     1.0  0.50198  0.10318  0.93949  1.0000
  C   C3335     1.0  0.50925  0.16269  0.73020  1.0000
  C   C3336     1.0  0.50041  0.08922  0.82526  1.0000
  H   H5682     1.0  0.60053  0.20636  0.75102  1.0000
  H   H5683     1.0  0.58543  0.20160  0.80553  1.0000
  H   H5684     1.0  0.50257  0.03028  0.83151  1.0000
  H   H5685     1.0  0.53369  0.21061  0.92317  1.0000
  H   H5686     1.0  0.58749  0.22621  0.81064  1.0000
  H   H5687     1.0  0.49820  0.12994  0.93199  1.0000
  H   H5688     1.0  0.59902  0.20883  0.95065  1.0000
  H   H5689     1.0  0.55915  0.11215  0.92663  1.0000
  S   S952      1.0  0.57642  0.19503  0.78086  1.0000
  C   C3337     1.0  0.51861  0.17901  0.75260  1.0000
  C   C3338     1.0  0.57651  0.21284  0.78475  1.0000
  C   C3339     1.0  0.52646  0.07204  0.79287  1.0000
  H   H5690     1.0  0.50099  0.18940  0.73938  1.0000
  Fe  Fe474     1.0  0.56888  0.14662  0.95591  1.0000
  C   C3340     1.0  0.55380  0.23170  0.87794  1.0000
  H   H5691     1.0  0.51535  0.17444  0.83803  1.0000
  C   C3341     1.0  0.57390  0.19498  0.96560  1.0000
  C   C3342     1.0  0.61266  0.20685  0.74407  1.0000
  H   H5692     1.0  0.61914  0.17912  0.97568  1.0000
  H   H5693     1.0  0.56381  0.06429  0.75141  1.0000
  C   C3343     1.0  0.49941  0.18359  0.92490  1.0000
  H   H5694     1.0  0.51026  0.18560  0.95687  1.0000
  C   C3344     1.0  0.58186  0.21260  0.79782  1.0000
  S   S953      1.0  0.55780  0.13570  0.94375  1.0000
  H   H5695     1.0  0.63060  0.19274  0.93340  1.0000
  H   H5696     1.0  0.54313  0.15784  0.78207  1.0000
  H   H5697     1.0  0.55632  0.10260  0.91328  1.0000
  S   S954      1.0  0.52612  0.21861  0.73068  1.0000
  H   H5698     1.0  0.53805  0.99525  0.87741  1.0000
  H   H5699     1.0  0.54528  0.07954  0.91680  1.0000
  C   C3345     1.0  0.53269  0.08366  0.91638  1.0000
  S   S955      1.0  0.51621  0.15944  0.94274  1.0000
  H   H5700     1.0  0.62150  0.18176  0.74973  1.0000
  H   H5701     1.0  0.54798  0.19487  0.80868  1.0000
  C   C3346     1.0  0.54837  0.22695  0.89577  1.0000
  N   N239      1.0  0.58339  0.16512  0.85534  1.0000
  C   C3347     1.0  0.57206  0.15687  0.85330  1.0000
  C   C3348     1.0  0.57558  0.17220  0.86939  1.0000
  C   C3349     1.0  0.59807  0.15304  0.85827  1.0000
  C   C3350     1.0  0.58689  0.17715  0.84054  1.0000
  C   C3351     1.0  0.57849  0.14652  0.84118  1.0000
  C   C3352     1.0  0.56035  0.18474  0.86812  1.0000
  C   C3353     1.0  0.60886  0.15710  0.86621  1.0000
  C   C3354     1.0  0.59625  0.18884  0.84059  1.0000
  H   H5702     1.0  0.56761  0.14927  0.86448  1.0000
  H   H5703     1.0  0.56151  0.16533  0.84991  1.0000
  H   H5704     1.0  0.58342  0.17765  0.87242  1.0000
  H   H5705     1.0  0.57285  0.16293  0.87990  1.0000
  H   H5706     1.0  0.59496  0.14202  0.86593  1.0000
  H   H5707     1.0  0.60550  0.14990  0.84720  1.0000
  H   H5708     1.0  0.59372  0.17136  0.83077  1.0000
  H   H5709     1.0  0.57598  0.18401  0.83652  1.0000
  H   H5710     1.0  0.58839  0.13680  0.84415  1.0000
  H   H5711     1.0  0.56909  0.14093  0.84118  1.0000
  H   H5712     1.0  0.58199  0.15335  0.82923  1.0000
  H   H5713     1.0  0.56219  0.19452  0.85797  1.0000
  H   H5714     1.0  0.55067  0.17976  0.86778  1.0000
  H   H5715     1.0  0.55645  0.18973  0.87869  1.0000
  H   H5716     1.0  0.61269  0.16804  0.85997  1.0000
  H   H5717     1.0  0.61964  0.14767  0.86642  1.0000
  H   H5718     1.0  0.60328  0.15751  0.87857  1.0000
  H   H5719     1.0  0.60907  0.18441  0.83677  1.0000
  H   H5720     1.0  0.59384  0.19213  0.85186  1.0000
  H   H5721     1.0  0.59275  0.20001  0.83242  1.0000
  S   S956      1.0  0.49877  0.05023  0.77659  1.0000
  H   H5722     1.0  0.50858  0.14499  0.92180  1.0000
  H   H5723     1.0  0.54193  0.05696  0.76911  1.0000
  H   H5724     1.0  0.63634  0.19249  0.74610  1.0000
  H   H5725     1.0  0.52477  0.16748  0.75808  1.0000
  H   H5726     1.0  0.56598  0.00743  0.85529  1.0000
  H   H5727     1.0  0.56945  0.08346  0.78323  1.0000
  H   H5728     1.0  0.51734  0.99401  0.78232  1.0000
  H   H5729     1.0  0.49936  0.09969  0.96759  1.0000
  N   N240      1.0  0.60397  0.18369  0.95946  1.0000
  H   H5730     1.0  0.56100  0.14175  0.79742  1.0000
  H   H5731     1.0  0.51460  0.10109  0.77512  1.0000
  H   H5732     1.0  0.55801  0.05401  0.78584  1.0000
  H   H5733     1.0  0.52769  0.21726  0.94077  1.0000
  C   C3355     1.0  0.61537  0.22350  0.75930  1.0000
  C   C3356     1.0  0.62351  0.20031  0.94162  1.0000
  C   C3357     1.0  0.51295  0.09969  0.94396  1.0000
  C   C3358     1.0  0.50033  0.10278  0.81354  1.0000
  S   S957      1.0  0.56948  0.21245  0.73623  1.0000
  H   H5734     1.0  0.52616  0.11541  0.76739  1.0000
  C   C3359     1.0  0.49729  0.15070  0.77530  1.0000
  H   H5735     1.0  0.55290  0.06605  0.79941  1.0000
  C   C3360     1.0  0.52634  0.10296  0.76855  1.0000
  H   H5736     1.0  0.55868  0.21940  0.90034  1.0000
  H   H5737     1.0  0.61259  0.20508  0.73264  1.0000
  N   N241      1.0  0.50055  0.16486  0.74636  1.0000
  H   H5738     1.0  0.50040  0.17539  0.91795  1.0000
  H   H5739     1.0  0.58440  0.98520  0.84652  1.0000
  H   H5740     1.0  0.56610  0.98526  0.89523  1.0000
  C   C3361     1.0  0.50896  0.13243  0.92337  1.0000
  H   H5741     1.0  0.55565  0.22154  0.87274  1.0000
  H   H5742     1.0  0.56769  0.22741  0.76479  1.0000
  H   H5743     1.0  0.51658  0.18666  0.76082  1.0000
  H   H5744     1.0  0.51616  0.22601  0.92657  1.0000
  H   H5745     1.0  0.49574  0.21302  0.94984  1.0000
  H   H5746     1.0  0.59693  0.98645  0.85738  1.0000
  H   H5747     1.0  0.50041  0.99288  0.83903  1.0000
  H   H5748     1.0  0.51895  0.10153  0.96518  1.0000
  C   C3362     1.0  0.63228  0.22409  0.73323  1.0000
  H   H5749     1.0  0.50304  0.14004  0.75557  1.0000
  H   H5750     1.0  0.60443  0.22052  0.76725  1.0000
  Fe  Fe475     1.0  0.49465  0.06857  0.75530  1.0000
  H   H5751     1.0  0.62509  0.21484  0.76415  1.0000
  H   H5752     1.0  0.50306  0.14023  0.78295  1.0000
  H   H5753     1.0  0.58919  0.98470  0.90017  1.0000
  C   C3363     1.0  0.49757  0.10659  0.74484  1.0000
  H   H5754     1.0  0.53906  0.99861  0.73046  1.0000
  N   N242      1.0  0.57305  0.98549  0.87063  1.0000
  H   H5755     1.0  0.52084  0.01231  0.73096  1.0000
  H   H5756     1.0  0.61251  0.15301  0.97657  1.0000
  Fe  Fe476     1.0  0.57280  0.25649  0.15126  1.0000
  S   S958      1.0  0.59390  0.25038  0.13262  1.0000
  S   S959      1.0  0.55241  0.27267  0.14186  1.0000
  Fe  Fe477     1.0  0.60727  0.25328  0.14853  1.0000
  S   S960      1.0  0.62512  0.26827  0.13802  1.0000
  C   C3364     1.0  0.65433  0.42668  0.19476  1.0000
  S   S961      1.0  0.58596  0.26106  0.16627  1.0000
  S   S962      1.0  0.64523  0.33834  0.18022  1.0000
  H   H5757     1.0  0.81859  0.34917  0.20291  1.0000
  Fe  Fe478     1.0  0.69076  0.44861  0.03045  1.0000
  S   S963      1.0  0.69200  0.46663  0.04211  1.0000
  S   S964      1.0  0.70473  0.44629  0.00660  1.0000
  Fe  Fe479     1.0  0.66569  0.43651  0.05634  1.0000
  S   S965      1.0  0.66466  0.45295  0.07085  1.0000
  S   S966      1.0  0.64907  0.42052  0.06546  1.0000
  H   H5758     1.0  0.52873  0.38335  0.09405  1.0000
  H   H5759     1.0  0.53872  0.23371  0.10381  1.0000
  Fe  Fe480     1.0  0.69079  0.44748  0.06353  1.0000
  S   S967      1.0  0.70619  0.44371  0.08007  1.0000
  S   S968      1.0  0.66456  0.45481  0.03446  1.0000
  S   S969      1.0  0.69185  0.42891  0.05137  1.0000
  Fe  Fe481     1.0  0.58525  0.45700  0.12268  1.0000
  S   S970      1.0  0.59731  0.46580  0.13573  1.0000
  S   S971      1.0  0.58952  0.46471  0.09682  1.0000
  Fe  Fe482     1.0  0.56584  0.44032  0.15179  1.0000
  S   S972      1.0  0.57588  0.44805  0.16748  1.0000
  S   S973      1.0  0.54905  0.42413  0.16277  1.0000
  C   C3365     1.0  0.50911  0.31526  0.09082  1.0000
  H   H5760     1.0  0.55530  0.31622  0.15507  1.0000
  Fe  Fe483     1.0  0.59894  0.44186  0.15112  1.0000
  H   H5761     1.0  0.54549  0.27874  0.17308  1.0000
  H   H5762     1.0  0.78101  0.36186  0.14997  1.0000
  S   S974      1.0  0.58908  0.43246  0.13661  1.0000
  Fe  Fe484     1.0  0.68803  0.32450  0.15900  1.0000
  S   S975      1.0  0.67877  0.31406  0.18394  1.0000
  S   S976      1.0  0.71295  0.31566  0.14738  1.0000
  Fe  Fe485     1.0  0.65709  0.34664  0.15550  1.0000
  S   S977      1.0  0.64411  0.36462  0.13859  1.0000
  Fe  Fe486     1.0  0.65742  0.31453  0.17586  1.0000
  S   S978      1.0  0.64499  0.29455  0.18509  1.0000
  S   S979      1.0  0.67844  0.34931  0.16141  1.0000
  S   S980      1.0  0.66774  0.32284  0.15065  1.0000
  H   H5763     1.0  0.55241  0.33647  0.15365  1.0000
  H   H5764     1.0  0.89969  0.39828  0.16559  1.0000
  C   C3366     1.0  0.85912  0.48012  0.15248  1.0000
  H   H5765     1.0  0.68836  0.40153  0.21680  1.0000
  N   N243      1.0  0.53407  0.38985  0.06896  1.0000
  Fe  Fe487     1.0  0.75628  0.36487  0.07502  1.0000
  S   S981      1.0  0.76827  0.37963  0.08164  1.0000
  S   S982      1.0  0.73085  0.36496  0.08598  1.0000
  Fe  Fe488     1.0  0.78336  0.35699  0.04820  1.0000
  S   S983      1.0  0.79806  0.37067  0.05291  1.0000
  S   S984      1.0  0.79209  0.34669  0.02670  1.0000
  Fe  Fe489     1.0  0.78969  0.36043  0.07829  1.0000
  S   S985      1.0  0.80495  0.35138  0.09629  1.0000
  Fe  Fe490     1.0  0.77566  0.38861  0.05601  1.0000
  S   S986      1.0  0.77295  0.41392  0.04475  1.0000
  S   S987      1.0  0.77708  0.34476  0.07338  1.0000
  S   S988      1.0  0.76161  0.37577  0.04966  1.0000
  S   S989      1.0  0.97931  0.35760  0.20626  1.0000
  H   H5766     1.0  0.82496  0.41634  0.22330  1.0000
  H   H5767     1.0  0.55684  0.36296  0.07634  1.0000
  C   C3367     1.0  0.82134  0.42828  0.22577  1.0000
  H   H5768     1.0  0.67896  0.47437  0.00567  1.0000
  C   C3368     1.0  0.69073  0.27468  0.17723  1.0000
  C   C3369     1.0  0.90083  0.44000  0.17116  1.0000
  H   H5769     1.0  0.69241  0.34851  0.00015  1.0000
  H   H5770     1.0  0.56251  0.24710  0.12663  1.0000
  H   H5771     1.0  0.53334  0.36027  0.06380  1.0000
  C   C3370     1.0  0.66543  0.40393  0.18178  1.0000
  H   H5772     1.0  0.71078  0.37327  0.18010  1.0000
  Fe  Fe491     1.0  0.96682  0.38930  0.15429  1.0000
  C   C3371     1.0  0.69722  0.36495  0.21928  1.0000
  S   S990      1.0  0.95266  0.39055  0.13700  1.0000
  H   H5773     1.0  0.89893  0.45578  0.18557  1.0000
  S   S991      1.0  0.95112  0.43147  0.18365  1.0000
  S   S992      1.0  0.95572  0.39023  0.17914  1.0000
  Fe  Fe492     1.0  0.85814  0.41886  0.14186  1.0000
  S   S993      1.0  0.86454  0.40352  0.16385  1.0000
  S   S994      1.0  0.86731  0.44015  0.12852  1.0000
  Fe  Fe493     1.0  0.83892  0.39766  0.13864  1.0000
  S   S995      1.0  0.84407  0.38010  0.16022  1.0000
  S   S996      1.0  0.82101  0.39971  0.12467  1.0000
  Fe  Fe494     1.0  0.83962  0.40077  0.17078  1.0000
  S   S997      1.0  0.82451  0.40281  0.19454  1.0000
  Fe  Fe495     1.0  0.86868  0.38420  0.15164  1.0000
  S   S998      1.0  0.89028  0.36528  0.15447  1.0000
  S   S999      1.0  0.83277  0.41817  0.14983  1.0000
  S   S1000     1.0  0.86404  0.39976  0.12895  1.0000
  C   C3372     1.0  0.81566  0.38687  0.20391  1.0000
  H   H5774     1.0  0.77805  0.33412  0.10809  1.0000
  S   S1001     1.0  0.61986  0.42782  0.16118  1.0000
  Fe  Fe496     1.0  0.51092  0.38084  0.12572  1.0000
  H   H5775     1.0  0.61616  0.31828  0.14524  1.0000
  S   S1002     1.0  0.52479  0.39989  0.11701  1.0000
  N   N244      1.0  0.69248  0.27152  0.14957  1.0000
  S   S1003     1.0  0.51264  0.33187  0.16838  1.0000
  Fe  Fe497     1.0  0.66763  0.33878  0.18592  1.0000
  S   S1004     1.0  0.52467  0.35620  0.12730  1.0000
  H   H5776     1.0  0.76604  0.33569  0.15163  1.0000
  C   C3373     1.0  0.93506  0.38386  0.14280  1.0000
  C   C3374     1.0  0.93251  0.37157  0.15560  1.0000
  C   C3375     1.0  0.91879  0.36581  0.15911  1.0000
  C   C3376     1.0  0.90730  0.37272  0.15021  1.0000
  C   C3377     1.0  0.90963  0.38536  0.13775  1.0000
  C   C3378     1.0  0.92362  0.39065  0.13386  1.0000
  H   H5777     1.0  0.94134  0.36617  0.16246  1.0000
  H   H5778     1.0  0.91704  0.35604  0.16876  1.0000
  H   H5779     1.0  0.90083  0.39085  0.13088  1.0000
  H   H5780     1.0  0.92556  0.40012  0.12391  1.0000
  H   H5781     1.0  0.64829  0.38083  0.19763  1.0000
  C   C3379     1.0  0.50944  0.41011  0.07884  1.0000
  N   N245      1.0  0.58802  0.37953  0.16043  1.0000
  C   C3380     1.0  0.82214  0.37226  0.20013  1.0000
  C   C3381     1.0  0.90649  0.45280  0.17455  1.0000
  C   C3382     1.0  0.55834  0.32697  0.14725  1.0000
  H   H5782     1.0  0.83355  0.37016  0.19250  1.0000
  H   H5783     1.0  0.50947  0.28279  0.14011  1.0000
  H   H5784     1.0  0.94282  0.40136  0.20766  1.0000
  H   H5785     1.0  0.71567  0.33774  0.98297  1.0000
  C   C3383     1.0  0.96202  0.43936  0.19133  1.0000
  C   C3384     1.0  0.95443  0.44735  0.20328  1.0000
  Fe  Fe498     1.0  0.87529  0.46962  0.21102  1.0000
  C   C3385     1.0  0.50834  0.45851  0.15399  1.0000
  H   H5786     1.0  0.57552  0.23425  0.07617  1.0000
  H   H5787     1.0  0.55347  0.37688  0.05411  1.0000
  C   C3386     1.0  0.85738  0.46536  0.16159  1.0000
  C   C3387     1.0  0.85936  0.45299  0.15439  1.0000
  C   C3388     1.0  0.86349  0.45536  0.13812  1.0000
  H   H5788     1.0  0.52592  0.25330  0.03628  1.0000
  H   H5789     1.0  0.61258  0.34260  0.17040  1.0000
  H   H5790     1.0  0.85423  0.46357  0.17414  1.0000
  H   H5791     1.0  0.85789  0.44162  0.16137  1.0000
  C   C3389     1.0  0.64248  0.40411  0.20334  1.0000
  H   H5792     1.0  0.89203  0.45389  0.14499  1.0000
  H   H5793     1.0  0.89512  0.40970  0.17967  1.0000
  C   C3390     1.0  0.60532  0.35128  0.16257  1.0000
  C   C3391     1.0  0.61135  0.32340  0.13461  1.0000
  H   H5794     1.0  0.69886  0.26332  0.18008  1.0000
  H   H5795     1.0  0.52430  0.37090  0.08539  1.0000
  H   H5796     1.0  0.53347  0.27467  0.12175  1.0000
  H   H5797     1.0  0.73469  0.35355  0.13069  1.0000
  H   H5798     1.0  0.53311  0.25373  0.09519  1.0000
  H   H5799     1.0  0.59573  0.36398  0.18088  1.0000
  C   C3392     1.0  0.72393  0.48008  0.07051  1.0000
  H   H5800     1.0  0.52928  0.30206  0.18350  1.0000
  C   C3393     1.0  0.64350  0.38632  0.20784  1.0000
  C   C3394     1.0  0.81687  0.38585  0.11710  1.0000
  C   C3395     1.0  0.82276  0.36983  0.12158  1.0000
  C   C3396     1.0  0.81909  0.35934  0.11509  1.0000
  C   C3397     1.0  0.80947  0.36480  0.10417  1.0000
  C   C3398     1.0  0.80334  0.38078  0.09998  1.0000
  C   C3399     1.0  0.80698  0.39123  0.10647  1.0000
  H   H5801     1.0  0.83008  0.36555  0.13003  1.0000
  H   H5802     1.0  0.82374  0.34696  0.11849  1.0000
  H   H5803     1.0  0.79596  0.38514  0.09157  1.0000
  H   H5804     1.0  0.80233  0.40361  0.10299  1.0000
  C   C3400     1.0  0.76015  0.35322  0.99320  1.0000
  H   H5805     1.0  0.51208  0.26423  0.02454  1.0000
  C   C3401     1.0  0.78611  0.34814  0.99849  1.0000
  C   C3402     1.0  0.77953  0.34940  0.01401  1.0000
  C   C3403     1.0  0.76318  0.35257  0.01910  1.0000
  C   C3404     1.0  0.75354  0.35428  0.00878  1.0000
  Fe  Fe499     1.0  0.49797  0.25338  0.08013  1.0000
  H   H5806     1.0  0.79873  0.34561  0.99448  1.0000
  H   H5807     1.0  0.75800  0.35335  0.03108  1.0000
  C   C3405     1.0  0.71784  0.32826  0.12940  1.0000
  C   C3406     1.0  0.73332  0.32622  0.12071  1.0000
  C   C3407     1.0  0.73751  0.33725  0.10706  1.0000
  C   C3408     1.0  0.72610  0.35010  0.10202  1.0000
  C   C3409     1.0  0.71050  0.35156  0.11025  1.0000
  C   C3410     1.0  0.70638  0.34077  0.12399  1.0000
  H   H5808     1.0  0.74212  0.31632  0.12471  1.0000
  H   H5809     1.0  0.74951  0.33587  0.10049  1.0000
  H   H5810     1.0  0.70161  0.36113  0.10599  1.0000
  H   H5811     1.0  0.69433  0.34218  0.13037  1.0000
  C   C3411     1.0  0.62738  0.41051  0.15444  1.0000
  C   C3412     1.0  0.62635  0.40996  0.13966  1.0000
  C   C3413     1.0  0.63127  0.39574  0.13489  1.0000
  C   C3414     1.0  0.63784  0.38225  0.14464  1.0000
  C   C3415     1.0  0.63937  0.38290  0.15920  1.0000
  H   H5812     1.0  0.62180  0.42047  0.13187  1.0000
  H   H5813     1.0  0.63018  0.39526  0.12357  1.0000
  C   C3416     1.0  0.54230  0.41748  0.15001  1.0000
  H   H5814     1.0  0.59248  0.36901  0.14049  1.0000
  C   C3417     1.0  0.52773  0.40063  0.14608  1.0000
  C   C3418     1.0  0.53144  0.40637  0.12998  1.0000
  C   C3419     1.0  0.54068  0.41759  0.12396  1.0000
  C   C3420     1.0  0.54613  0.42311  0.13393  1.0000
  C   C3421     1.0  0.70061  0.43357  0.98471  1.0000
  H   H5815     1.0  0.61337  0.45212  0.98750  1.0000
  H   H5816     1.0  0.54359  0.42209  0.11153  1.0000
  H   H5817     1.0  0.55323  0.43177  0.12914  1.0000
  H   H5818     1.0  0.90956  0.45611  0.11749  1.0000
  C   C3422     1.0  0.72503  0.43600  0.07034  1.0000
  C   C3423     1.0  0.72796  0.43678  0.05436  1.0000
  C   C3424     1.0  0.74286  0.43042  0.04644  1.0000
  C   C3425     1.0  0.75481  0.42299  0.05453  1.0000
  C   C3426     1.0  0.75193  0.42216  0.07054  1.0000
  C   C3427     1.0  0.73706  0.42887  0.07843  1.0000
  H   H5819     1.0  0.71879  0.44228  0.04800  1.0000
  H   H5820     1.0  0.74503  0.43101  0.03411  1.0000
  H   H5821     1.0  0.76120  0.41633  0.07679  1.0000
  H   H5822     1.0  0.73481  0.42821  0.09079  1.0000
  C   C3428     1.0  0.63166  0.43226  0.07359  1.0000
  C   C3429     1.0  0.62145  0.42599  0.08688  1.0000
  C   C3430     1.0  0.60834  0.43591  0.09409  1.0000
  C   C3431     1.0  0.60533  0.45197  0.08777  1.0000
  C   C3432     1.0  0.61524  0.45808  0.07418  1.0000
  C   C3433     1.0  0.62852  0.44828  0.06727  1.0000
  H   H5823     1.0  0.62389  0.41362  0.09185  1.0000
  H   H5824     1.0  0.60051  0.43112  0.10441  1.0000
  H   H5825     1.0  0.61295  0.47048  0.06928  1.0000
  H   H5826     1.0  0.63639  0.45325  0.05716  1.0000
  H   H5827     1.0  0.67858  0.40362  0.01508  1.0000
  S   S1005     1.0  0.78730  0.34910  0.22175  1.0000
  H   H5828     1.0  0.52480  0.45919  0.20029  1.0000
  H   H5829     1.0  0.56616  0.40593  0.06590  1.0000
  H   H5830     1.0  0.65701  0.40717  0.17400  1.0000
  C   C3434     1.0  0.58832  0.39609  0.17922  1.0000
  Fe  Fe500     1.0  0.73089  0.37586  0.22448  1.0000
  H   H5831     1.0  0.55364  0.36684  0.16653  1.0000
  C   C3435     1.0  0.69433  0.42385  0.97978  1.0000
  H   H5832     1.0  0.64441  0.37249  0.16679  1.0000
  S   S1006     1.0  0.89074  0.44706  0.22001  1.0000
  C   C3436     1.0  0.68456  0.41209  0.00659  1.0000
  C   C3437     1.0  0.69020  0.42229  0.01152  1.0000
  C   C3438     1.0  0.69813  0.43313  0.00057  1.0000
  C   C3439     1.0  0.79292  0.37727  0.22056  1.0000
  H   H5833     1.0  0.76916  0.42754  0.99061  1.0000
  C   C3440     1.0  0.69777  0.24209  0.16351  1.0000
  H   H5834     1.0  0.68846  0.42167  0.02380  1.0000
  H   H5835     1.0  0.64835  0.43005  0.20612  1.0000
  H   H5836     1.0  0.75015  0.46097  0.03412  1.0000
  C   C3441     1.0  0.63026  0.27564  0.15126  1.0000
  C   C3442     1.0  0.63818  0.28789  0.14563  1.0000
  C   C3443     1.0  0.64239  0.29403  0.15594  1.0000
  C   C3444     1.0  0.63897  0.28776  0.17194  1.0000
  C   C3445     1.0  0.63096  0.27557  0.17758  1.0000
  C   C3446     1.0  0.62651  0.26957  0.16727  1.0000
  H   H5837     1.0  0.64108  0.29264  0.13324  1.0000
  H   H5838     1.0  0.64838  0.30351  0.15147  1.0000
  H   H5839     1.0  0.62825  0.27067  0.18995  1.0000
  H   H5840     1.0  0.62040  0.26011  0.17172  1.0000
  C   C3447     1.0  0.52323  0.31493  0.16162  1.0000
  C   C3448     1.0  0.52491  0.31464  0.14607  1.0000
  C   C3449     1.0  0.53378  0.30152  0.14031  1.0000
  C   C3450     1.0  0.54132  0.28863  0.14995  1.0000
  C   C3451     1.0  0.53974  0.28876  0.16556  1.0000
  C   C3452     1.0  0.53053  0.30189  0.17145  1.0000
  H   H5841     1.0  0.66074  0.40072  0.22082  1.0000
  H   H5842     1.0  0.53497  0.30152  0.12823  1.0000
  C   C3453     1.0  0.60259  0.31263  0.13158  1.0000
  H   H5843     1.0  0.73995  0.37816  0.12906  1.0000
  H   H5844     1.0  0.71924  0.34730  0.15708  1.0000
  H   H5845     1.0  0.51184  0.24522  0.11504  1.0000
  C   C3454     1.0  0.67200  0.26028  0.14358  1.0000
  H   H5846     1.0  0.67915  0.24833  0.14341  1.0000
  N   N246      1.0  0.74843  0.40292  0.00065  1.0000
  C   C3455     1.0  0.55221  0.24373  0.12516  1.0000
  C   C3456     1.0  0.74516  0.39870  0.01820  1.0000
  C   C3457     1.0  0.76440  0.39389  0.99390  1.0000
  Fe  Fe501     1.0  0.57334  0.47129  0.15077  1.0000
  C   C3458     1.0  0.52045  0.45844  0.16297  1.0000
  C   C3459     1.0  0.72922  0.40709  0.02669  1.0000
  C   C3460     1.0  0.77780  0.39120  0.00231  1.0000
  H   H5847     1.0  0.49609  0.46231  0.16018  1.0000
  H   H5848     1.0  0.73557  0.38583  0.00153  1.0000
  C   C3461     1.0  0.74711  0.42018  0.99434  1.0000
  H   H5849     1.0  0.75415  0.40098  0.02284  1.0000
  H   H5850     1.0  0.74585  0.38591  0.02236  1.0000
  H   H5851     1.0  0.76372  0.38201  0.99372  1.0000
  C   C3462     1.0  0.70454  0.36665  0.99472  1.0000
  C   C3463     1.0  0.73617  0.39815  0.99575  1.0000
  H   H5852     1.0  0.92853  0.39005  0.21561  1.0000
  C   C3464     1.0  0.90962  0.44509  0.12647  1.0000
  H   H5853     1.0  0.57165  0.36110  0.15410  1.0000
  H   H5854     1.0  0.52695  0.27832  0.10380  1.0000
  H   H5855     1.0  0.72768  0.41993  0.02338  1.0000
  H   H5856     1.0  0.71920  0.40363  0.02489  1.0000
  H   H5857     1.0  0.72874  0.40368  0.03942  1.0000
  H   H5858     1.0  0.78892  0.38546  0.99537  1.0000
  H   H5859     1.0  0.77583  0.38307  0.01382  1.0000
  H   H5860     1.0  0.77971  0.40208  0.00374  1.0000
  H   H5861     1.0  0.91454  0.46405  0.21576  1.0000
  H   H5862     1.0  0.75977  0.42283  0.01086  1.0000
  H   H5863     1.0  0.86875  0.47184  0.11657  1.0000
  C   C3465     1.0  0.57996  0.39239  0.13405  1.0000
  H   H5864     1.0  0.72224  0.47154  0.04555  1.0000
  S   S1007     1.0  0.52337  0.24188  0.07598  1.0000
  H   H5865     1.0  0.50957  0.39039  0.07047  1.0000
  C   C3466     1.0  0.93084  0.40145  0.21515  1.0000
  C   C3467     1.0  0.68547  0.35737  0.21994  1.0000
  C   C3468     1.0  0.69293  0.35937  0.99100  1.0000
  C   C3469     1.0  0.56719  0.24391  0.08128  1.0000
  H   H5866     1.0  0.56193  0.26793  0.10516  1.0000
  Fe  Fe502     1.0  0.50564  0.35061  0.14814  1.0000
  H   H5867     1.0  0.94874  0.43557  0.14921  1.0000
  H   H5868     1.0  0.51005  0.40473  0.09110  1.0000
  N   N247      1.0  0.65792  0.40918  0.19689  1.0000
  C   C3470     1.0  0.97957  0.44910  0.20618  1.0000
  C   C3471     1.0  0.56529  0.23954  0.09915  1.0000
  H   H5869     1.0  0.90246  0.43006  0.18115  1.0000
  N   N248      1.0  0.67626  0.40326  0.10389  1.0000
  C   C3472     1.0  0.67729  0.39520  0.09118  1.0000
  C   C3473     1.0  0.69021  0.41070  0.09928  1.0000
  C   C3474     1.0  0.66125  0.41572  0.10484  1.0000
  C   C3475     1.0  0.67620  0.39115  0.11890  1.0000
  C   C3476     1.0  0.66341  0.38766  0.09309  1.0000
  C   C3477     1.0  0.70656  0.39982  0.09621  1.0000
  C   C3478     1.0  0.66081  0.43011  0.11085  1.0000
  C   C3479     1.0  0.67568  0.39667  0.13345  1.0000
  H   H5870     1.0  0.67841  0.40352  0.07965  1.0000
  H   H5871     1.0  0.68795  0.38562  0.09017  1.0000
  H   H5872     1.0  0.69029  0.41686  0.10811  1.0000
  H   H5873     1.0  0.68944  0.41984  0.08841  1.0000
  H   H5874     1.0  0.65837  0.42068  0.09315  1.0000
  H   H5875     1.0  0.65114  0.41068  0.11210  1.0000
  H   H5876     1.0  0.66591  0.38577  0.12191  1.0000
  H   H5877     1.0  0.68660  0.38141  0.11758  1.0000
  H   H5878     1.0  0.66463  0.38390  0.08220  1.0000
  H   H5879     1.0  0.66347  0.37706  0.10260  1.0000
  H   H5880     1.0  0.65186  0.39584  0.09501  1.0000
  H   H5881     1.0  0.70887  0.39579  0.08525  1.0000
  H   H5882     1.0  0.71565  0.40647  0.09451  1.0000
  H   H5883     1.0  0.70840  0.38972  0.10600  1.0000
  H   H5884     1.0  0.64865  0.43733  0.11230  1.0000
  H   H5885     1.0  0.66848  0.43757  0.10232  1.0000
  H   H5886     1.0  0.66419  0.42720  0.12215  1.0000
  H   H5887     1.0  0.68547  0.40233  0.13189  1.0000
  H   H5888     1.0  0.67680  0.38635  0.14326  1.0000
  H   H5889     1.0  0.66422  0.40442  0.13708  1.0000
  N   N249      1.0  0.63091  0.44362  0.01295  1.0000
  C   C3480     1.0  0.64490  0.43052  0.01583  1.0000
  C   C3481     1.0  0.63677  0.45560  0.99908  1.0000
  C   C3482     1.0  0.61917  0.43694  0.00937  1.0000
  C   C3483     1.0  0.62404  0.44998  0.02753  1.0000
  C   C3484     1.0  0.64125  0.41597  0.02838  1.0000
  C   C3485     1.0  0.64855  0.46366  0.00130  1.0000
  C   C3486     1.0  0.60742  0.44831  0.99982  1.0000
  C   C3487     1.0  0.61099  0.46494  0.02668  1.0000
  H   H5890     1.0  0.65132  0.42644  0.00489  1.0000
  H   H5891     1.0  0.65354  0.43453  0.01950  1.0000
  H   H5892     1.0  0.62712  0.46512  0.99524  1.0000
  H   H5893     1.0  0.64241  0.45021  0.98879  1.0000
  H   H5894     1.0  0.62531  0.42771  0.00261  1.0000
  H   H5895     1.0  0.61216  0.43100  0.02029  1.0000
  H   H5896     1.0  0.61883  0.44122  0.03720  1.0000
  H   H5897     1.0  0.63330  0.45185  0.03217  1.0000
  H   H5898     1.0  0.63558  0.41870  0.03997  1.0000
  H   H5899     1.0  0.63403  0.40998  0.02505  1.0000
  H   H5900     1.0  0.65244  0.40747  0.02976  1.0000
  H   H5901     1.0  0.69967  0.36945  0.00641  1.0000
  H   H5902     1.0  0.65053  0.47335  0.99108  1.0000
  H   H5903     1.0  0.64401  0.46904  0.01157  1.0000
  H   H5904     1.0  0.59853  0.44218  0.99961  1.0000
  S   S1008     1.0  0.98940  0.37312  0.15970  1.0000
  H   H5905     1.0  0.60105  0.45864  0.00477  1.0000
  C   C3488     1.0  0.49840  0.30576  0.09355  1.0000
  C   C3489     1.0  0.86306  0.48242  0.13627  1.0000
  C   C3490     1.0  0.51924  0.23974  0.02347  1.0000
  C   C3491     1.0  0.69232  0.36087  0.19191  1.0000
  S   S1009     1.0  0.67707  0.40196  0.98475  1.0000
  H   H5906     1.0  0.52117  0.31165  0.08495  1.0000
  C   C3492     1.0  0.64408  0.43608  0.18291  1.0000
  C   C3493     1.0  0.75767  0.42792  0.99901  1.0000
  H   H5907     1.0  0.51945  0.32456  0.13834  1.0000
  C   C3494     1.0  0.53274  0.37043  0.05382  1.0000
  H   H5908     1.0  0.74723  0.45850  0.05454  1.0000
  C   C3495     1.0  0.54852  0.36598  0.08693  1.0000
  H   H5909     1.0  0.58913  0.30272  0.11250  1.0000
  H   H5910     1.0  0.68498  0.24424  0.16823  1.0000
  C   C3496     1.0  0.98341  0.40839  0.22203  1.0000
  H   H5911     1.0  0.75837  0.35233  0.15949  1.0000
  H   H5912     1.0  0.60396  0.33520  0.13516  1.0000
  H   H5913     1.0  0.57681  0.39460  0.18694  1.0000
  S   S1010     1.0  0.56108  0.46419  0.13652  1.0000
  H   H5914     1.0  0.75684  0.47356  0.04131  1.0000
  H   H5915     1.0  0.56267  0.38827  0.16511  1.0000
  H   H5916     1.0  0.66014  0.45560  0.00188  1.0000
  H   H5917     1.0  0.92079  0.41087  0.19479  1.0000
  H   H5918     1.0  0.92145  0.43739  0.12429  1.0000
  H   H5919     1.0  0.67689  0.32618  0.98230  1.0000
  H   H5920     1.0  0.57128  0.29615  0.12032  1.0000
  C   C3497     1.0  0.73106  0.47874  0.04323  1.0000
  C   C3498     1.0  0.60001  0.36683  0.16801  1.0000
  H   H5921     1.0  0.56793  0.39022  0.13837  1.0000
  H   H5922     1.0  0.59802  0.38780  0.18430  1.0000
  C   C3499     1.0  0.56653  0.36371  0.16575  1.0000
  H   H5923     1.0  0.73162  0.32228  0.21226  1.0000
  C   C3500     1.0  0.71195  0.28402  0.12586  1.0000
  S   S1011     1.0  0.74768  0.35635  0.98033  1.0000
  H   H5924     1.0  0.94180  0.44951  0.20700  1.0000
  S   S1012     1.0  0.85233  0.47112  0.20538  1.0000
  H   H5925     1.0  0.56967  0.37583  0.18108  1.0000
  C   C3501     1.0  0.96321  0.45194  0.21092  1.0000
  C   C3502     1.0  0.53441  0.45797  0.18988  1.0000
  H   H5926     1.0  0.66376  0.26065  0.15499  1.0000
  H   H5927     1.0  0.63148  0.38416  0.21279  1.0000
  N   N250      1.0  0.75565  0.35608  0.13590  1.0000
  C   C3503     1.0  0.76464  0.35256  0.12028  1.0000
  C   C3504     1.0  0.75026  0.37349  0.13467  1.0000
  C   C3505     1.0  0.76488  0.34858  0.14846  1.0000
  C   C3506     1.0  0.77238  0.33526  0.12026  1.0000
  C   C3507     1.0  0.76214  0.38372  0.12526  1.0000
  C   C3508     1.0  0.78142  0.35176  0.14529  1.0000
  H   H5928     1.0  0.77423  0.35891  0.11499  1.0000
  H   H5929     1.0  0.75689  0.35679  0.11174  1.0000
  H   H5930     1.0  0.94732  0.41820  0.21951  1.0000
  H   H5931     1.0  0.74615  0.37618  0.14646  1.0000
  H   H5932     1.0  0.78182  0.33086  0.12690  1.0000
  H   H5933     1.0  0.76388  0.32762  0.12465  1.0000
  H   H5934     1.0  0.76389  0.38470  0.11259  1.0000
  H   H5935     1.0  0.77366  0.37966  0.12850  1.0000
  H   H5936     1.0  0.75732  0.39575  0.12722  1.0000
  C   C3509     1.0  0.68370  0.33240  0.98596  1.0000
  H   H5937     1.0  0.78744  0.35363  0.13289  1.0000
  H   H5938     1.0  0.78914  0.34137  0.15110  1.0000
  C   C3510     1.0  0.92622  0.42910  0.15467  1.0000
  C   C3511     1.0  0.74115  0.34939  0.14032  1.0000
  C   C3512     1.0  0.53321  0.37771  0.08395  1.0000
  N   N251      1.0  0.78248  0.39567  0.16954  1.0000
  C   C3513     1.0  0.78562  0.37853  0.17723  1.0000
  C   C3514     1.0  0.76688  0.40327  0.17837  1.0000
  C   C3515     1.0  0.79547  0.40239  0.17070  1.0000
  C   C3516     1.0  0.78241  0.39710  0.15279  1.0000
  C   C3517     1.0  0.80192  0.36874  0.17112  1.0000
  C   C3518     1.0  0.75254  0.39732  0.17846  1.0000
  C   C3519     1.0  0.79156  0.41986  0.17099  1.0000
  C   C3520     1.0  0.77884  0.41371  0.14280  1.0000
  H   H5939     1.0  0.78429  0.37699  0.19002  1.0000
  H   H5940     1.0  0.77696  0.37273  0.17593  1.0000
  H   H5941     1.0  0.76396  0.41604  0.17389  1.0000
  H   H5942     1.0  0.76744  0.40186  0.19070  1.0000
  H   H5943     1.0  0.79959  0.39636  0.18161  1.0000
  H   H5944     1.0  0.80595  0.40033  0.16111  1.0000
  H   H5945     1.0  0.79409  0.39151  0.14664  1.0000
  H   H5946     1.0  0.77450  0.39036  0.15162  1.0000
  H   H5947     1.0  0.80300  0.35668  0.17833  1.0000
  H   H5948     1.0  0.80355  0.36786  0.15893  1.0000
  H   H5949     1.0  0.81164  0.37319  0.17219  1.0000
  H   H5950     1.0  0.74181  0.40432  0.18473  1.0000
  H   H5951     1.0  0.75088  0.39874  0.16658  1.0000
  H   H5952     1.0  0.75307  0.38506  0.18493  1.0000
  H   H5953     1.0  0.78715  0.42749  0.16073  1.0000
  H   H5954     1.0  0.80239  0.42319  0.17106  1.0000
  H   H5955     1.0  0.78314  0.42225  0.18188  1.0000
  H   H5956     1.0  0.78957  0.41857  0.13840  1.0000
  H   H5957     1.0  0.76928  0.42181  0.14890  1.0000
  H   H5958     1.0  0.77464  0.41329  0.13266  1.0000
  N   N252      1.0  0.88262  0.35853  0.11195  1.0000
  C   C3521     1.0  0.89723  0.35998  0.11578  1.0000
  C   C3522     1.0  0.87044  0.35686  0.12702  1.0000
  C   C3523     1.0  0.87729  0.37331  0.10050  1.0000
  C   C3524     1.0  0.88672  0.34454  0.10482  1.0000
  C   C3525     1.0  0.91105  0.36292  0.10187  1.0000
  C   C3526     1.0  0.87382  0.34157  0.13921  1.0000
  C   C3527     1.0  0.85975  0.37809  0.09994  1.0000
  C   C3528     1.0  0.87306  0.34001  0.10143  1.0000
  H   H5959     1.0  0.89443  0.36975  0.12184  1.0000
  H   H5960     1.0  0.90201  0.34937  0.12395  1.0000
  H   H5961     1.0  0.85871  0.35765  0.12514  1.0000
  H   H5962     1.0  0.86880  0.36665  0.13270  1.0000
  H   H5963     1.0  0.87982  0.38356  0.10290  1.0000
  H   H5964     1.0  0.88402  0.37268  0.08843  1.0000
  H   H5965     1.0  0.89517  0.34641  0.09343  1.0000
  H   H5966     1.0  0.89328  0.33408  0.11187  1.0000
  H   H5967     1.0  0.91608  0.35280  0.09624  1.0000
  H   H5968     1.0  0.90782  0.37366  0.09312  1.0000
  H   H5969     1.0  0.92059  0.36458  0.10627  1.0000
  H   H5970     1.0  0.87435  0.33121  0.13490  1.0000
  H   H5971     1.0  0.88464  0.34011  0.14328  1.0000
  H   H5972     1.0  0.86407  0.34192  0.14967  1.0000
  H   H5973     1.0  0.85523  0.36871  0.09837  1.0000
  H   H5974     1.0  0.85795  0.38808  0.08996  1.0000
  H   H5975     1.0  0.85251  0.38226  0.11053  1.0000
  H   H5976     1.0  0.87091  0.34639  0.08972  1.0000
  H   H5977     1.0  0.86198  0.34186  0.11020  1.0000
  H   H5978     1.0  0.87606  0.32730  0.10180  1.0000
  N   N253      1.0  0.58714  0.31079  0.14271  1.0000
  H   H5979     1.0  0.91544  0.40302  0.17011  1.0000
  C   C3529     1.0  0.58125  0.29926  0.13798  1.0000
  C   C3530     1.0  0.59042  0.30392  0.15879  1.0000
  C   C3531     1.0  0.57612  0.32661  0.14194  1.0000
  H   H5980     1.0  0.71946  0.29262  0.12295  1.0000
  C   C3532     1.0  0.57804  0.30407  0.12144  1.0000
  C   C3533     1.0  0.57623  0.30129  0.17228  1.0000
  H   H5981     1.0  0.68187  0.27644  0.18809  1.0000
  H   H5982     1.0  0.90554  0.46368  0.16545  1.0000
  H   H5983     1.0  0.57039  0.29644  0.14604  1.0000
  H   H5984     1.0  0.58987  0.28784  0.13871  1.0000
  H   H5985     1.0  0.59897  0.29251  0.15897  1.0000
  H   H5986     1.0  0.59594  0.31147  0.16226  1.0000
  H   H5987     1.0  0.57891  0.33329  0.14892  1.0000
  H   H5988     1.0  0.53964  0.28923  0.10545  1.0000
  H   H5989     1.0  0.57785  0.33355  0.12973  1.0000
  C   C3534     1.0  0.57156  0.37745  0.16826  1.0000
  H   H5990     1.0  0.62164  0.32485  0.12482  1.0000
  C   C3535     1.0  0.52156  0.24691  0.11909  1.0000
  H   H5991     1.0  0.93771  0.44507  0.13465  1.0000
  H   H5992     1.0  0.58058  0.29520  0.18308  1.0000
  H   H5993     1.0  0.56949  0.29373  0.17058  1.0000
  H   H5994     1.0  0.56838  0.31249  0.17452  1.0000
  H   H5995     1.0  0.61116  0.47125  0.03539  1.0000
  C   C3536     1.0  0.49694  0.46173  0.19207  1.0000
  C   C3537     1.0  0.50251  0.47604  0.18046  1.0000
  H   H5996     1.0  0.74094  0.35649  0.01288  1.0000
  C   C3538     1.0  0.77647  0.35019  0.98807  1.0000
  S   S1013     1.0  0.66772  0.34649  0.20732  1.0000
  H   H5997     1.0  0.66860  0.39098  0.18392  1.0000
  H   H5998     1.0  0.88788  0.44394  0.17210  1.0000
  H   H5999     1.0  0.94850  0.37229  0.22497  1.0000
  H   H6000     1.0  0.73500  0.47161  0.07244  1.0000
  H   H6001     1.0  0.69108  0.40087  0.17595  1.0000
  C   C3539     1.0  0.72185  0.32553  0.22200  1.0000
  Fe  Fe503     1.0  0.66581  0.47074  0.04849  1.0000
  C   C3540     1.0  0.54093  0.38268  0.05489  1.0000
  C   C3541     1.0  0.90162  0.42231  0.15529  1.0000
  H   H6002     1.0  0.67447  0.28417  0.13664  1.0000
  N   N254      1.0  0.90874  0.43517  0.15589  1.0000
  H   H6003     1.0  0.66461  0.26290  0.13493  1.0000
  H   H6004     1.0  0.70908  0.25245  0.14038  1.0000
  H   H6005     1.0  0.57100  0.31610  0.11883  1.0000
  C   C3542     1.0  0.93671  0.44115  0.14739  1.0000
  C   C3543     1.0  0.63394  0.39698  0.16416  1.0000
  H   H6006     1.0  0.60094  0.31750  0.11945  1.0000
  H   H6007     1.0  0.63186  0.43439  0.18695  1.0000
  H   H6008     1.0  0.63468  0.40895  0.19490  1.0000
  C   C3544     1.0  0.68234  0.27236  0.13868  1.0000
  H   H6009     1.0  0.75174  0.44029  0.99913  1.0000
  H   H6010     1.0  0.53653  0.44646  0.18700  1.0000
  H   H6011     1.0  0.50314  0.28686  0.16344  1.0000
  C   C3545     1.0  0.58935  0.39491  0.16246  1.0000
  H   H6012     1.0  0.63443  0.39726  0.17569  1.0000
  H   H6013     1.0  0.57973  0.40451  0.13421  1.0000
  H   H6014     1.0  0.54078  0.39195  0.04402  1.0000
  H   H6015     1.0  0.68164  0.40973  0.15974  1.0000
  C   C3546     1.0  0.54318  0.40145  0.06881  1.0000
  H   H6016     1.0  0.91020  0.45854  0.14216  1.0000
  H   H6017     1.0  0.60062  0.39789  0.15537  1.0000
  H   H6018     1.0  0.69047  0.35943  0.18131  1.0000
  H   H6019     1.0  0.97491  0.40329  0.21949  1.0000
  H   H6020     1.0  0.69717  0.28419  0.17386  1.0000
  C   C3547     1.0  0.74723  0.46744  0.04354  1.0000
  H   H6021     1.0  0.66513  0.43134  0.19105  1.0000
  H   H6022     1.0  0.74428  0.33647  0.14224  1.0000
  C   C3548     1.0  0.80118  0.38921  0.21438  1.0000
  H   H6023     1.0  0.61299  0.35261  0.15072  1.0000
  H   H6024     1.0  0.54522  0.45820  0.19317  1.0000
  H   H6025     1.0  0.56924  0.35306  0.17484  1.0000
  H   H6026     1.0  0.59927  0.46211  0.02943  1.0000
  H   H6027     1.0  0.99138  0.41162  0.21065  1.0000
  C   C3549     1.0  0.55150  0.26574  0.10262  1.0000
  H   H6028     1.0  0.78765  0.44408  0.21940  1.0000
  S   S1014     1.0  0.75277  0.38449  0.22015  1.0000
  C   C3550     1.0  0.68302  0.35530  0.20624  1.0000
  H   H6029     1.0  0.55285  0.32991  0.13708  1.0000
  H   H6030     1.0  0.69540  0.32466  0.98653  1.0000
  H   H6031     1.0  0.88890  0.42672  0.15515  1.0000
  H   H6032     1.0  0.64914  0.43340  0.17121  1.0000
  H   H6033     1.0  0.91854  0.44854  0.17670  1.0000
  H   H6034     1.0  0.67362  0.26767  0.17018  1.0000
  H   H6035     1.0  0.60360  0.38285  0.13771  1.0000
  C   C3551     1.0  0.81376  0.36031  0.20619  1.0000
  C   C3552     1.0  0.90486  0.44879  0.14282  1.0000
  H   H6036     1.0  0.61082  0.30108  0.13134  1.0000
  C   C3553     1.0  0.59171  0.38032  0.14315  1.0000
  H   H6037     1.0  0.67645  0.42047  0.21215  1.0000
  C   C3554     1.0  0.98711  0.44185  0.19366  1.0000
  H   H6038     1.0  0.67734  0.33418  0.99778  1.0000
  S   S1015     1.0  0.97605  0.41098  0.14916  1.0000
  H   H6039     1.0  0.57999  0.40455  0.15819  1.0000
  H   H6040     1.0  0.90714  0.41809  0.14434  1.0000
  C   C3555     1.0  0.90319  0.40762  0.16854  1.0000
  H   H6041     1.0  0.68962  0.27067  0.12709  1.0000
  S   S1016     1.0  0.72017  0.38137  0.20354  1.0000
  H   H6042     1.0  0.54018  0.40445  0.08046  1.0000
  C   C3556     1.0  0.68608  0.41328  0.99072  1.0000
  C   C3557     1.0  0.53309  0.40624  0.15606  1.0000
  H   H6043     1.0  0.56633  0.38570  0.07118  1.0000
  H   H6044     1.0  0.58946  0.40798  0.17890  1.0000
  H   H6045     1.0  0.53981  0.41261  0.06047  1.0000
  C   C3558     1.0  0.86544  0.47003  0.12912  1.0000
  S   S1017     1.0  0.49659  0.37863  0.11024  1.0000
  H   H6046     1.0  0.49680  0.41417  0.07848  1.0000
  H   H6047     1.0  0.64328  0.44871  0.18153  1.0000
  Fe  Fe504     1.0  0.97902  0.37626  0.18429  1.0000
  H   H6048     1.0  0.68941  0.41093  0.19689  1.0000
  H   H6049     1.0  0.54193  0.24985  0.13270  1.0000
  H   H6050     1.0  0.73402  0.34863  0.16568  1.0000
  H   H6051     1.0  0.59544  0.34630  0.16292  1.0000
  H   H6052     1.0  0.53006  0.40186  0.16851  1.0000
  H   H6053     1.0  0.55036  0.23785  0.02198  1.0000
  Fe  Fe505     1.0  0.96638  0.41078  0.17438  1.0000
  H   H6054     1.0  0.92878  0.42310  0.16634  1.0000
  C   C3559     1.0  0.70633  0.37071  0.20490  1.0000
  H   H6055     1.0  0.71510  0.47297  0.07256  1.0000
  C   C3560     1.0  0.70383  0.36870  0.19123  1.0000
  H   H6056     1.0  0.95731  0.45745  0.22061  1.0000
  H   H6057     1.0  0.51768  0.25834  0.12236  1.0000
  H   H6058     1.0  0.90100  0.43947  0.12483  1.0000
  C   C3561     1.0  0.68211  0.27527  0.16467  1.0000
  H   H6059     1.0  0.71417  0.25711  0.15558  1.0000
  H   H6060     1.0  0.70478  0.28781  0.11690  1.0000
  H   H6061     1.0  0.93095  0.41996  0.14762  1.0000
  Fe  Fe506     1.0  0.50883  0.35355  0.11379  1.0000
  S   S1018     1.0  0.51796  0.34013  0.09470  1.0000
  H   H6062     1.0  0.52058  0.39202  0.15083  1.0000
  C   C3562     1.0  0.97835  0.43682  0.18634  1.0000
  C   C3563     1.0  0.72905  0.35315  0.15512  1.0000
  H   H6063     1.0  0.52856  0.24219  0.01289  1.0000
  H   H6064     1.0  0.70974  0.28383  0.14966  1.0000
  H   H6065     1.0  0.55282  0.26940  0.08980  1.0000
  H   H6066     1.0  0.72381  0.36580  0.15385  1.0000
  H   H6067     1.0  0.93285  0.45142  0.15270  1.0000
  H   H6068     1.0  0.71991  0.27253  0.12499  1.0000
  C   C3564     1.0  0.70397  0.25602  0.15173  1.0000
  H   H6069     1.0  0.81784  0.43623  0.21507  1.0000
  Fe  Fe507     1.0  0.58857  0.23547  0.17711  1.0000
  H   H6070     1.0  0.61104  0.37090  0.16601  1.0000
  C   C3565     1.0  0.70162  0.28424  0.14235  1.0000
  H   H6071     1.0  0.69361  0.29599  0.14172  1.0000
  H   H6072     1.0  0.63593  0.40879  0.21392  1.0000
  S   S1019     1.0  0.98868  0.39697  0.18162  1.0000
  N   N255      1.0  0.51796  0.47291  0.16900  1.0000
  H   H6073     1.0  0.58364  0.39155  0.12164  1.0000
  H   H6074     1.0  0.53218  0.45634  0.15503  1.0000
  C   C3566     1.0  0.50432  0.32913  0.09624  1.0000
  H   H6075     1.0  0.67362  0.38925  0.20775  1.0000
  H   H6076     1.0  0.54562  0.35474  0.09402  1.0000
  C   C3567     1.0  0.53696  0.27745  0.10894  1.0000
  C   C3568     1.0  0.53155  0.47168  0.17604  1.0000
  H   H6077     1.0  0.55440  0.37029  0.09353  1.0000
  H   H6078     1.0  0.53887  0.36590  0.04314  1.0000
  C   C3569     1.0  0.68124  0.40923  0.20835  1.0000
  H   H6079     1.0  0.72427  0.40526  0.99947  1.0000
  H   H6080     1.0  0.84442  0.43350  0.21524  1.0000
  H   H6081     1.0  0.71593  0.35830  0.99529  1.0000
  H   H6082     1.0  0.71073  0.32608  0.21889  1.0000
  H   H6083     1.0  0.55601  0.24585  0.07765  1.0000
  C   C3570     1.0  0.91910  0.41372  0.20623  1.0000
  C   C3571     1.0  0.66803  0.40148  0.20874  1.0000
  H   H6084     1.0  0.51700  0.40555  0.05588  1.0000
  C   C3572     1.0  0.68063  0.40922  0.17223  1.0000
  H   H6085     1.0  0.92105  0.42567  0.20380  1.0000
  H   H6086     1.0  0.49736  0.27833  0.19162  1.0000
  H   H6087     1.0  0.50865  0.24120  0.01890  1.0000
  H   H6088     1.0  0.67451  0.28716  0.16245  1.0000
  H   H6089     1.0  0.67152  0.48103  0.07000  1.0000
  H   H6090     1.0  0.90676  0.41360  0.21237  1.0000
  S   S1020     1.0  0.99071  0.45354  0.21653  1.0000
  C   C3573     1.0  0.56124  0.39688  0.06410  1.0000
  C   C3574     1.0  0.79894  0.36297  0.21610  1.0000
  H   H6091     1.0  0.97680  0.41892  0.22663  1.0000
  H   H6092     1.0  0.57234  0.25434  0.07608  1.0000
  H   H6093     1.0  0.56529  0.39664  0.05155  1.0000
  H   H6094     1.0  0.68086  0.42109  0.17264  1.0000
  N   N256      1.0  0.55096  0.24870  0.10835  1.0000
  H   H6095     1.0  0.79599  0.40043  0.21726  1.0000
  H   H6096     1.0  0.50626  0.45127  0.19450  1.0000
  H   H6097     1.0  0.50152  0.28854  0.12330  1.0000
  H   H6098     1.0  0.50979  0.44649  0.15252  1.0000
  C   C3575     1.0  0.51746  0.39861  0.06792  1.0000
  H   H6099     1.0  0.73479  0.42680  0.99708  1.0000
  H   H6100     1.0  0.51041  0.46594  0.14210  1.0000
  H   H6101     1.0  0.76856  0.39945  0.98151  1.0000
  H   H6102     1.0  0.52074  0.44778  0.17232  1.0000
  H   H6103     1.0  0.52035  0.37543  0.05290  1.0000
  H   H6104     1.0  0.50221  0.29483  0.08979  1.0000
  H   H6105     1.0  0.52295  0.23762  0.12964  1.0000
  H   H6106     1.0  0.71700  0.48030  0.09507  1.0000
  H   H6107     1.0  0.50559  0.25170  0.04251  1.0000
  H   H6108     1.0  0.57620  0.24066  0.10169  1.0000
  C   C3576     1.0  0.53643  0.24565  0.10587  1.0000
  H   H6109     1.0  0.79825  0.42710  0.21161  1.0000
  H   H6110     1.0  0.65042  0.38024  0.21688  1.0000
  C   C3577     1.0  0.51558  0.25282  0.03239  1.0000
  H   H6111     1.0  0.70372  0.23810  0.17346  1.0000
  H   H6112     1.0  0.77841  0.42820  0.22232  1.0000
  H   H6113     1.0  0.51450  0.42063  0.07512  1.0000
  C   C3578     1.0  0.50038  0.29157  0.13454  1.0000
  H   H6114     1.0  0.53018  0.48230  0.18039  1.0000
  H   H6115     1.0  0.50282  0.30338  0.13179  1.0000
  H   H6116     1.0  0.68105  0.36714  0.99325  1.0000
  H   H6117     1.0  0.98423  0.43099  0.17683  1.0000
  H   H6118     1.0  0.54268  0.47095  0.16702  1.0000
  H   H6119     1.0  0.72222  0.33733  0.22268  1.0000
  C   C3579     1.0  0.78964  0.43123  0.22168  1.0000
  H   H6120     1.0  0.75007  0.42280  0.98141  1.0000
  H   H6121     1.0  0.70650  0.37770  0.98653  1.0000
  H   H6122     1.0  0.61260  0.47339  0.01543  1.0000
  C   C3580     1.0  0.73839  0.39950  0.97811  1.0000
  H   H6123     1.0  0.92767  0.42875  0.22376  1.0000
  H   H6124     1.0  0.69753  0.30500  0.22563  1.0000
  C   C3581     1.0  0.99338  0.35445  0.21737  1.0000
  Fe  Fe508     1.0  0.76305  0.34648  0.42706  1.0000
  S   S1021     1.0  0.75068  0.37076  0.41740  1.0000
  Fe  Fe509     1.0  0.76488  0.31216  0.43079  1.0000
  S   S1022     1.0  0.75517  0.29371  0.42674  1.0000
  S   S1023     1.0  0.77662  0.32945  0.41193  1.0000
  Fe  Fe510     1.0  0.79064  0.41642  0.34223  1.0000
  S   S1024     1.0  0.79992  0.40176  0.36324  1.0000
  S   S1025     1.0  0.75463  0.40608  0.31644  1.0000
  S   S1026     1.0  0.79458  0.40703  0.32101  1.0000
  H   H6125     1.0  0.79845  0.45793  0.28423  1.0000
  C   C3582     1.0  0.69852  0.29928  0.23783  1.0000
  H   H6126     1.0  0.99190  0.25608  0.35404  1.0000
  C   C3583     1.0  0.81354  0.43194  0.36884  1.0000
  H   H6127     1.0  0.84256  0.42362  0.23513  1.0000
  C   C3584     1.0  0.71559  0.38823  0.45272  1.0000
  H   H6128     1.0  0.75682  0.44682  0.36518  1.0000
  H   H6129     1.0  0.68887  0.29288  0.24261  1.0000
  H   H6130     1.0  0.72255  0.39412  0.47053  1.0000
  S   S1027     1.0  0.75774  0.23955  0.33305  1.0000
  H   H6131     1.0  0.68737  0.30856  0.25850  1.0000
  H   H6132     1.0  0.80808  0.26606  0.37123  1.0000
  H   H6133     1.0  0.73460  0.31528  0.24038  1.0000
  Fe  Fe511     1.0  0.97506  0.46375  0.23649  1.0000
  Fe  Fe512     1.0  0.97386  0.46080  0.27037  1.0000
  Fe  Fe513     1.0  0.94368  0.46703  0.25943  1.0000
  C   C3585     1.0  0.90533  0.39260  0.24390  1.0000
  S   S1028     1.0  0.92039  0.46018  0.26854  1.0000
  C   C3586     1.0  0.82126  0.23992  0.39020  1.0000
  S   S1029     1.0  0.96518  0.44793  0.25816  1.0000
  Fe  Fe514     1.0  0.73345  0.35918  0.25741  1.0000
  S   S1030     1.0  0.72091  0.38327  0.24734  1.0000
  S   S1031     1.0  0.72139  0.34546  0.27969  1.0000
  H   H6134     1.0  0.85815  0.24125  0.33385  1.0000
  C   C3587     1.0  0.71995  0.28524  0.26408  1.0000
  C   C3588     1.0  0.98458  0.24998  0.36454  1.0000
  Fe  Fe515     1.0  0.74408  0.38946  0.24406  1.0000
  S   S1032     1.0  0.74809  0.41124  0.24791  1.0000
  C   C3589     1.0  0.71817  0.38426  0.46956  1.0000
  H   H6135     1.0  0.68955  0.23561  0.32695  1.0000
  S   S1033     1.0  0.75584  0.36590  0.25582  1.0000
  C   C3590     1.0  0.72429  0.31352  0.23722  1.0000
  C   C3591     1.0  0.79156  0.28734  0.37442  1.0000
  S   S1034     1.0  0.88998  0.24339  0.37290  1.0000
  H   H6136     1.0  0.85253  0.34458  0.40595  1.0000
  Fe  Fe516     1.0  0.96307  0.24586  0.44853  1.0000
  H   H6137     1.0  0.78176  0.37928  0.22862  1.0000
  S   S1035     1.0  0.93877  0.25879  0.44614  1.0000
  C   C3592     1.0  0.73659  0.32521  0.32693  1.0000
  C   C3593     1.0  0.76765  0.35539  0.29338  1.0000
  S   S1036     1.0  0.84821  0.26936  0.37701  1.0000
  S   S1037     1.0  0.92230  0.25564  0.38478  1.0000
  Fe  Fe517     1.0  0.90053  0.24613  0.39106  1.0000
  H   H6138     1.0  0.97101  0.47763  0.34230  1.0000
  Fe  Fe518     1.0  0.77119  0.24535  0.34697  1.0000
  S   S1038     1.0  0.75080  0.24959  0.36679  1.0000
  H   H6139     1.0  0.98860  0.25064  0.37468  1.0000
  Fe  Fe519     1.0  0.75234  0.26520  0.32276  1.0000
  S   S1039     1.0  0.73025  0.27049  0.34073  1.0000
  S   S1040     1.0  0.75530  0.27470  0.29690  1.0000
  Fe  Fe520     1.0  0.74633  0.27439  0.35348  1.0000
  S   S1041     1.0  0.74319  0.29696  0.36083  1.0000
  Fe  Fe521     1.0  0.73693  0.24505  0.35220  1.0000
  C   C3594     1.0  0.76950  0.33150  0.32406  1.0000
  S   S1042     1.0  0.76801  0.27045  0.33480  1.0000
  H   H6140     1.0  0.98109  0.40959  0.25609  1.0000
  H   H6141     1.0  0.72236  0.39697  0.44507  1.0000
  N   N257      1.0  0.76445  0.32841  0.31104  1.0000
  H   H6142     1.0  0.74993  0.31549  0.30725  1.0000
  H   H6143     1.0  0.99031  0.47784  0.28102  1.0000
  H   H6144     1.0  0.80066  0.47749  0.37613  1.0000
  C   C3595     1.0  0.93454  0.25803  0.42890  1.0000
  C   C3596     1.0  0.94567  0.25942  0.41484  1.0000
  C   C3597     1.0  0.94182  0.25904  0.40114  1.0000
  C   C3598     1.0  0.92716  0.25646  0.40170  1.0000
  H   H6145     1.0  0.95703  0.26129  0.41444  1.0000
  H   H6146     1.0  0.95016  0.26077  0.39017  1.0000
  C   C3599     1.0  0.73072  0.32577  0.28411  1.0000
  C   C3600     1.0  0.72376  0.31582  0.29718  1.0000
  C   C3601     1.0  0.73121  0.30008  0.30111  1.0000
  C   C3602     1.0  0.74556  0.29421  0.29187  1.0000
  C   C3603     1.0  0.75233  0.30409  0.27856  1.0000
  C   C3604     1.0  0.74500  0.31990  0.27476  1.0000
  H   H6147     1.0  0.71270  0.32033  0.30441  1.0000
  H   H6148     1.0  0.72583  0.29248  0.31127  1.0000
  H   H6149     1.0  0.76342  0.29958  0.27138  1.0000
  H   H6150     1.0  0.75045  0.32754  0.26466  1.0000
  H   H6151     1.0  0.87412  0.31162  0.43690  1.0000
  H   H6152     1.0  0.95023  0.36505  0.24465  1.0000
  Fe  Fe522     1.0  0.76992  0.42004  0.31992  1.0000
  H   H6153     1.0  0.98238  0.33769  0.23545  1.0000
  C   C3605     1.0  0.83070  0.48301  0.28735  1.0000
  C   C3606     1.0  0.90058  0.44821  0.25997  1.0000
  C   C3607     1.0  0.91248  0.45660  0.25477  1.0000
  H   H6154     1.0  0.88487  0.43862  0.25333  1.0000
  H   H6155     1.0  0.89650  0.44396  0.27231  1.0000
  H   H6156     1.0  0.78342  0.43370  0.36861  1.0000
  H   H6157     1.0  0.79000  0.29719  0.37997  1.0000
  Fe  Fe523     1.0  0.76979  0.32411  0.45697  1.0000
  C   C3608     1.0  0.76134  0.44957  0.37395  1.0000
  H   H6158     1.0  0.90785  0.38335  0.25423  1.0000
  H   H6159     1.0  0.82630  0.43167  0.36477  1.0000
  H   H6160     1.0  0.90505  0.25255  0.41636  1.0000
  N   N258      1.0  0.79992  0.26429  0.39633  1.0000
  H   H6161     1.0  0.74685  0.38941  0.45241  1.0000
  H   H6162     1.0  0.70958  0.29039  0.23783  1.0000
  H   H6163     1.0  0.73023  0.28286  0.25452  1.0000
  H   H6164     1.0  0.76091  0.36571  0.28648  1.0000
  H   H6165     1.0  0.78018  0.28407  0.37663  1.0000
  H   H6166     1.0  0.78670  0.44761  0.41447  1.0000
  H   H6167     1.0  0.74296  0.38748  0.30366  1.0000
  C   C3609     1.0  0.71484  0.30253  0.26497  1.0000
  H   H6168     1.0  0.70289  0.36230  0.46632  1.0000
  C   C3610     1.0  0.80855  0.45916  0.27487  1.0000
  C   C3611     1.0  0.83526  0.44913  0.26235  1.0000
  N   N259      1.0  0.80780  0.42916  0.23974  1.0000
  C   C3612     1.0  0.75372  0.37735  0.45523  1.0000
  H   H6169     1.0  0.80331  0.37344  0.38606  1.0000
  Fe  Fe524     1.0  0.76283  0.36045  0.23217  1.0000
  C   C3613     1.0  0.99193  0.34372  0.23162  1.0000
  H   H6170     1.0  0.94300  0.43293  0.23939  1.0000
  C   C3614     1.0  0.80170  0.41627  0.26926  1.0000
  C   C3615     1.0  0.79587  0.27552  0.40697  1.0000
  C   C3616     1.0  0.91627  0.25470  0.41584  1.0000
  H   H6171     1.0  0.79791  0.42688  0.27410  1.0000
  H   H6172     1.0  0.78259  0.45282  0.35714  1.0000
  H   H6173     1.0  0.79150  0.41230  0.26860  1.0000
  S   S1043     1.0  0.78176  0.34241  0.44025  1.0000
  Fe  Fe525     1.0  0.80110  0.42964  0.30763  1.0000
  H   H6174     1.0  0.76111  0.37666  0.46332  1.0000
  H   H6175     1.0  0.79739  0.48179  0.26331  1.0000
  C   C3617     1.0  0.78048  0.46656  0.38132  1.0000
  H   H6176     1.0  0.75933  0.33796  0.33146  1.0000
  Fe  Fe526     1.0  0.77488  0.44884  0.32746  1.0000
  H   H6177     1.0  0.84499  0.46409  0.24137  1.0000
  H   H6178     1.0  0.77811  0.33912  0.31936  1.0000
  C   C3618     1.0  0.93615  0.41834  0.22845  1.0000
  S   S1044     1.0  0.98436  0.24111  0.42963  1.0000
  H   H6179     1.0  0.84330  0.23899  0.35069  1.0000
  H   H6180     1.0  0.80615  0.45654  0.36039  1.0000
  C   C3619     1.0  0.75287  0.40778  0.29732  1.0000
  C   C3620     1.0  0.74664  0.39679  0.29429  1.0000
  C   C3621     1.0  0.74515  0.39779  0.27916  1.0000
  C   C3622     1.0  0.74964  0.40993  0.26702  1.0000
  C   C3623     1.0  0.75546  0.42118  0.27014  1.0000
  C   C3624     1.0  0.75730  0.41999  0.28520  1.0000
  H   H6181     1.0  0.97246  0.23657  0.39363  1.0000
  H   H6182     1.0  0.74028  0.38930  0.27692  1.0000
  H   H6183     1.0  0.75847  0.43086  0.26090  1.0000
  H   H6184     1.0  0.76183  0.42867  0.28750  1.0000
  C   C3625     1.0  0.91074  0.45952  0.22809  1.0000
  H   H6185     1.0  0.80971  0.44827  0.24815  1.0000
  H   H6186     1.0  0.98350  0.39083  0.24296  1.0000
  C   C3626     1.0  0.95932  0.46639  0.33274  1.0000
  C   C3627     1.0  0.75147  0.29510  0.40845  1.0000
  C   C3628     1.0  0.75435  0.30757  0.39597  1.0000
  C   C3629     1.0  0.75154  0.30815  0.38145  1.0000
  C   C3630     1.0  0.74641  0.29598  0.37919  1.0000
  C   C3631     1.0  0.74378  0.28339  0.39158  1.0000
  C   C3632     1.0  0.74600  0.28312  0.40625  1.0000
  H   H6187     1.0  0.75877  0.31669  0.39752  1.0000
  H   H6188     1.0  0.75362  0.31789  0.37188  1.0000
  H   H6189     1.0  0.73969  0.27403  0.38996  1.0000
  H   H6190     1.0  0.74373  0.27345  0.41587  1.0000
  C   C3633     1.0  0.82727  0.31006  0.39045  1.0000
  C   C3634     1.0  0.83368  0.29875  0.38141  1.0000
  H   H6191     1.0  0.78412  0.36107  0.40722  1.0000
  H   H6192     1.0  0.82342  0.32213  0.38495  1.0000
  H   H6193     1.0  0.83468  0.30208  0.36894  1.0000
  C   C3635     1.0  0.76454  0.38033  0.40355  1.0000
  C   C3636     1.0  0.75978  0.39536  0.39489  1.0000
  C   C3637     1.0  0.77062  0.40223  0.38256  1.0000
  C   C3638     1.0  0.78629  0.39421  0.37924  1.0000
  C   C3639     1.0  0.79118  0.37962  0.38853  1.0000
  C   C3640     1.0  0.78029  0.37260  0.40052  1.0000
  H   H6194     1.0  0.74762  0.40143  0.39729  1.0000
  H   H6195     1.0  0.76679  0.41355  0.37551  1.0000
  H   H6196     1.0  0.78902  0.32526  0.29905  1.0000
  N   N260      1.0  0.74804  0.36804  0.36555  1.0000
  C   C3641     1.0  0.75290  0.35558  0.37917  1.0000
  C   C3642     1.0  0.76276  0.36994  0.35322  1.0000
  C   C3643     1.0  0.73720  0.36241  0.35949  1.0000
  C   C3644     1.0  0.73967  0.38271  0.37146  1.0000
  C   C3645     1.0  0.73938  0.35042  0.39247  1.0000
  C   C3646     1.0  0.77465  0.37626  0.35754  1.0000
  C   C3647     1.0  0.73529  0.37000  0.34262  1.0000
  C   C3648     1.0  0.73607  0.39797  0.35939  1.0000
  H   H6197     1.0  0.76045  0.34488  0.37523  1.0000
  H   H6198     1.0  0.76014  0.35949  0.38475  1.0000
  H   H6199     1.0  0.76019  0.37792  0.34224  1.0000
  H   H6200     1.0  0.76899  0.35860  0.34989  1.0000
  H   H6201     1.0  0.74129  0.34964  0.35989  1.0000
  H   H6202     1.0  0.72520  0.36390  0.36708  1.0000
  H   H6203     1.0  0.72814  0.38133  0.37930  1.0000
  H   H6204     1.0  0.74608  0.38485  0.37910  1.0000
  H   H6205     1.0  0.73166  0.36019  0.39775  1.0000
  H   H6206     1.0  0.73235  0.34457  0.38867  1.0000
  H   H6207     1.0  0.74443  0.34183  0.40200  1.0000
  H   H6208     1.0  0.78472  0.37752  0.34746  1.0000
  H   H6209     1.0  0.76944  0.38802  0.36001  1.0000
  H   H6210     1.0  0.77957  0.36830  0.36741  1.0000
  H   H6211     1.0  0.73240  0.38287  0.34022  1.0000
  H   H6212     1.0  0.72556  0.36630  0.34047  1.0000
  H   H6213     1.0  0.74600  0.36607  0.33403  1.0000
  H   H6214     1.0  0.72456  0.39963  0.35647  1.0000
  H   H6215     1.0  0.74527  0.39895  0.34867  1.0000
  H   H6216     1.0  0.73571  0.40795  0.36427  1.0000
  H   H6217     1.0  0.80399  0.45418  0.23020  1.0000
  C   C3649     1.0  0.83137  0.47280  0.30376  1.0000
  H   H6218     1.0  0.91109  0.25517  0.44008  1.0000
  C   C3650     1.0  0.83806  0.27900  0.40455  1.0000
  H   H6219     1.0  0.76912  0.46733  0.39002  1.0000
  N   N261      1.0  0.72919  0.36902  0.47453  1.0000
  C   C3651     1.0  0.99243  0.41316  0.25017  1.0000
  H   H6220     1.0  0.82997  0.28681  0.42611  1.0000
  H   H6221     1.0  0.89546  0.28064  0.39983  1.0000
  C   C3652     1.0  0.79285  0.26830  0.42459  1.0000
  H   H6222     1.0  0.80386  0.26152  0.42835  1.0000
  C   C3653     1.0  0.80232  0.44583  0.24167  1.0000
  C   C3654     1.0  0.69333  0.33327  0.26844  1.0000
  H   H6223     1.0  0.90778  0.38732  0.23375  1.0000
  H   H6224     1.0  0.70650  0.24346  0.33926  1.0000
  H   H6225     1.0  0.69073  0.34585  0.26857  1.0000
  H   H6226     1.0  0.68230  0.33059  0.26805  1.0000
  H   H6227     1.0  0.69691  0.32689  0.27954  1.0000
  H   H6228     1.0  0.92824  0.42328  0.25209  1.0000
  H   H6229     1.0  0.91440  0.40657  0.25288  1.0000
  H   H6230     1.0  0.90719  0.31002  0.41907  1.0000
  H   H6231     1.0  0.85202  0.32031  0.42492  1.0000
  N   N262      1.0  0.78762  0.44989  0.37971  1.0000
  C   C3655     1.0  0.78494  0.43867  0.39522  1.0000
  H   H6232     1.0  0.70494  0.30306  0.27530  1.0000
  C   C3656     1.0  0.91419  0.40559  0.24112  1.0000
  C   C3657     1.0  0.83943  0.28330  0.38842  1.0000
  H   H6233     1.0  0.95992  0.46386  0.32137  1.0000
  H   H6234     1.0  0.79519  0.29170  0.36167  1.0000
  H   H6235     1.0  0.78738  0.42642  0.39386  1.0000
  H   H6236     1.0  0.94849  0.41273  0.24777  1.0000
  H   H6237     1.0  0.92674  0.46876  0.23471  1.0000
  H   H6238     1.0  0.82576  0.24537  0.37795  1.0000
  H   H6239     1.0  0.89386  0.32647  0.41006  1.0000
  H   H6240     1.0  0.74699  0.35028  0.30985  1.0000
  H   H6241     1.0  0.71726  0.33277  0.25584  1.0000
  H   H6242     1.0  0.78148  0.44344  0.26124  1.0000
  H   H6243     1.0  0.78417  0.29749  0.31521  1.0000
  C   C3658     1.0  0.89909  0.45083  0.23332  1.0000
  H   H6244     1.0  0.79587  0.24760  0.37707  1.0000
  H   H6245     1.0  0.78512  0.28456  0.40505  1.0000
  C   C3659     1.0  0.91974  0.25606  0.42928  1.0000
  H   H6246     1.0  0.93120  0.37046  0.24038  1.0000
  Fe  Fe527     1.0  0.86692  0.25189  0.38802  1.0000
  H   H6247     1.0  0.98462  0.23367  0.35171  1.0000
  H   H6248     1.0  0.92036  0.28265  0.46682  1.0000
  H   H6249     1.0  0.70308  0.33931  0.24420  1.0000
  H   H6250     1.0  0.86297  0.23834  0.36197  1.0000
  H   H6251     1.0  0.72960  0.33503  0.31975  1.0000
  H   H6252     1.0  0.77797  0.35047  0.28501  1.0000
  H   H6253     1.0  0.81948  0.40668  0.25133  1.0000
  H   H6254     1.0  0.81486  0.27808  0.37859  1.0000
  C   C3660     1.0  0.78503  0.45109  0.24985  1.0000
  H   H6255     1.0  0.88150  0.25255  0.43516  1.0000
  H   H6256     1.0  0.85369  0.31803  0.40582  1.0000
  H   H6257     1.0  0.72959  0.31606  0.33163  1.0000
  H   H6258     1.0  0.84581  0.43998  0.26197  1.0000
  H   H6259     1.0  0.75607  0.46207  0.37390  1.0000
  H   H6260     1.0  0.77147  0.35987  0.30148  1.0000
  H   H6261     1.0  0.67815  0.35328  0.23104  1.0000
  C   C3661     1.0  0.78478  0.25069  0.38544  1.0000
  H   H6262     1.0  0.89451  0.32371  0.42985  1.0000
  H   H6263     1.0  0.80531  0.28205  0.40439  1.0000
  H   H6264     1.0  0.78815  0.27782  0.43105  1.0000
  H   H6265     1.0  0.99271  0.38448  0.27028  1.0000
  H   H6266     1.0  0.98020  0.47529  0.32314  1.0000
  H   H6267     1.0  0.97227  0.25652  0.36503  1.0000
  C   C3662     1.0  0.94172  0.39021  0.23891  1.0000
  H   H6268     1.0  0.75701  0.44220  0.38533  1.0000
  H   H6269     1.0  0.96486  0.45527  0.33978  1.0000
  H   H6270     1.0  0.95562  0.24099  0.37559  1.0000
  C   C3663     1.0  0.94271  0.37368  0.23705  1.0000
  H   H6271     1.0  0.85356  0.27838  0.44063  1.0000
  H   H6272     1.0  0.90655  0.41688  0.23669  1.0000
  H   H6273     1.0  0.78397  0.26106  0.42817  1.0000
  C   C3664     1.0  0.81384  0.25185  0.40056  1.0000
  H   H6274     1.0  0.77625  0.32448  0.28783  1.0000
  H   H6275     1.0  0.87163  0.33745  0.39550  1.0000
  H   H6276     1.0  0.79721  0.46708  0.33238  1.0000
  H   H6277     1.0  0.82298  0.42279  0.25617  1.0000
  S   S1045     1.0  0.82278  0.42985  0.28853  1.0000
  H   H6278     1.0  0.77434  0.29817  0.30041  1.0000
  H   H6279     1.0  0.78332  0.46288  0.25201  1.0000
  S   S1046     1.0  0.74985  0.32965  0.44488  1.0000
  H   H6280     1.0  0.86837  0.33953  0.41551  1.0000
  S   S1047     1.0  0.97492  0.25483  0.46154  1.0000
  C   C3665     1.0  0.75252  0.31832  0.31715  1.0000
  H   H6281     1.0  0.93904  0.38979  0.25163  1.0000
  C   C3666     1.0  0.80477  0.44820  0.37184  1.0000
  C   C3667     1.0  0.87116  0.23666  0.45475  1.0000
  C   C3668     1.0  0.75682  0.34387  0.30206  1.0000
  C   C3669     1.0  0.96861  0.47887  0.33069  1.0000
  C   C3670     1.0  0.77738  0.31719  0.33491  1.0000
  C   C3671     1.0  0.77947  0.44620  0.36929  1.0000
  H   H6282     1.0  0.73788  0.32871  0.33707  1.0000
  C   C3672     1.0  0.87756  0.24979  0.44759  1.0000
  H   H6283     1.0  0.71005  0.28076  0.26343  1.0000
  C   C3673     1.0  0.74334  0.36520  0.46180  1.0000
  C   C3674     1.0  0.78595  0.25729  0.39885  1.0000
  H   H6284     1.0  0.76192  0.37482  0.44427  1.0000
  C   C3675     1.0  0.80439  0.27342  0.37992  1.0000
  S   S1048     1.0  0.76544  0.42786  0.34231  1.0000
  H   H6285     1.0  0.77229  0.44088  0.40101  1.0000
  H   H6286     1.0  0.81642  0.31482  0.46949  1.0000
  H   H6287     1.0  0.82333  0.25725  0.40072  1.0000
  C   C3676     1.0  0.91764  0.46218  0.23881  1.0000
  H   H6288     1.0  0.78023  0.23986  0.39045  1.0000
  H   H6289     1.0  0.72138  0.35079  0.45761  1.0000
  H   H6290     1.0  0.84219  0.26700  0.41007  1.0000
  S   S1049     1.0  0.98561  0.47515  0.24854  1.0000
  H   H6291     1.0  0.94694  0.46961  0.33889  1.0000
  H   H6292     1.0  0.70853  0.34193  0.47396  1.0000
  C   C3677     1.0  0.70662  0.33018  0.25419  1.0000
  H   H6293     1.0  0.81156  0.45137  0.37839  1.0000
  H   H6294     1.0  0.86083  0.29163  0.44644  1.0000
  C   C3678     1.0  0.93906  0.42175  0.24290  1.0000
  C   C3679     1.0  0.78298  0.30299  0.30312  1.0000
  H   H6295     1.0  0.88467  0.26899  0.45102  1.0000
  C   C3680     1.0  0.69594  0.31166  0.24743  1.0000
  H   H6296     1.0  0.75101  0.35382  0.46599  1.0000
  C   C3681     1.0  0.79141  0.47784  0.33602  1.0000
  H   H6297     1.0  0.77496  0.26623  0.40101  1.0000
  H   H6298     1.0  0.90548  0.28974  0.40818  1.0000
  H   H6299     1.0  0.84477  0.29850  0.43635  1.0000
  C   C3682     1.0  0.87475  0.25527  0.47280  1.0000
  S   S1050     1.0  0.77664  0.44220  0.30497  1.0000
  H   H6300     1.0  0.88908  0.29546  0.43195  1.0000
  H   H6301     1.0  0.77597  0.25888  0.37899  1.0000
  H   H6302     1.0  0.80988  0.42945  0.35937  1.0000
  S   S1051     1.0  0.87754  0.25690  0.40493  1.0000
  S   S1052     1.0  0.78369  0.30496  0.44457  1.0000
  H   H6303     1.0  0.75150  0.34201  0.29326  1.0000
  C   C3683     1.0  0.79364  0.43890  0.40739  1.0000
  H   H6304     1.0  0.77903  0.34762  0.47044  1.0000
  H   H6305     1.0  0.84070  0.24689  0.31906  1.0000
  H   H6306     1.0  0.77760  0.47399  0.37014  1.0000
  S   S1053     1.0  0.79982  0.43770  0.32894  1.0000
  H   H6307     1.0  0.80751  0.40706  0.27794  1.0000
  H   H6308     1.0  0.78888  0.31143  0.32867  1.0000
  C   C3684     1.0  0.83479  0.46278  0.25067  1.0000
  S   S1054     1.0  0.82003  0.32014  0.41753  1.0000
  C   C3685     1.0  0.83116  0.29020  0.41363  1.0000
  H   H6309     1.0  0.79536  0.42720  0.41529  1.0000
  H   H6310     1.0  0.78527  0.24789  0.40959  1.0000
  H   H6311     1.0  0.77968  0.32106  0.34439  1.0000
  C   C3686     1.0  0.87936  0.25907  0.45659  1.0000
  H   H6312     1.0  0.89251  0.39772  0.24598  1.0000
  H   H6313     1.0  0.76985  0.30866  0.34061  1.0000
  C   C3687     1.0  0.82213  0.44728  0.27444  1.0000
  H   H6314     1.0  0.80559  0.44099  0.40243  1.0000
  C   C3688     1.0  0.83952  0.23561  0.31775  1.0000
  H   H6315     1.0  0.79444  0.29929  0.29534  1.0000
  C   C3689     1.0  0.77840  0.32101  0.29988  1.0000
  C   C3690     1.0  0.81378  0.41851  0.25371  1.0000
  Fe  Fe528     1.0  0.79413  0.32374  0.42688  1.0000
  C   C3691     1.0  0.89403  0.44516  0.24925  1.0000
  H   H6316     1.0  0.81206  0.42253  0.37941  1.0000
  H   H6317     1.0  0.81956  0.47277  0.31136  1.0000
  N   N263      1.0  0.71033  0.31415  0.25077  1.0000
  H   H6318     1.0  0.83877  0.47621  0.30948  1.0000
  C   C3692     1.0  0.82618  0.30580  0.40653  1.0000
  H   H6319     1.0  0.72834  0.30194  0.23423  1.0000
  H   H6320     1.0  0.90742  0.29356  0.38756  1.0000
  H   H6321     1.0  0.72369  0.27836  0.27503  1.0000
  H   H6322     1.0  0.95396  0.39192  0.23441  1.0000
  H   H6323     1.0  0.75711  0.30689  0.32434  1.0000
  N   N264      1.0  0.87428  0.30621  0.41528  1.0000
  C   C3693     1.0  0.86807  0.29147  0.42124  1.0000
  C   C3694     1.0  0.88475  0.30537  0.39941  1.0000
  C   C3695     1.0  0.86038  0.31969  0.41356  1.0000
  C   C3696     1.0  0.88273  0.30731  0.42688  1.0000
  C   C3697     1.0  0.85617  0.29019  0.43706  1.0000
  C   C3698     1.0  0.89904  0.29152  0.39896  1.0000
  C   C3699     1.0  0.86379  0.33610  0.40721  1.0000
  C   C3700     1.0  0.89516  0.31748  0.42077  1.0000
  H   H6324     1.0  0.86242  0.28985  0.41260  1.0000
  H   H6325     1.0  0.87781  0.28106  0.42278  1.0000
  H   H6326     1.0  0.88939  0.31602  0.39380  1.0000
  H   H6327     1.0  0.87788  0.30471  0.39131  1.0000
  C   C3701     1.0  0.71311  0.35272  0.46865  1.0000
  H   H6328     1.0  0.72459  0.30541  0.26800  1.0000
  H   H6329     1.0  0.98929  0.42491  0.24265  1.0000
  H   H6330     1.0  0.81068  0.24479  0.41252  1.0000
  H   H6331     1.0  0.71826  0.37824  0.44717  1.0000
  H   H6332     1.0  0.70307  0.39393  0.45279  1.0000
  C   C3702     1.0  0.79520  0.42309  0.23701  1.0000
  H   H6333     1.0  0.74012  0.36337  0.45176  1.0000
  H   H6334     1.0  0.91375  0.24292  0.46635  1.0000
  H   H6335     1.0  0.93992  0.29448  0.47499  1.0000
  H   H6336     1.0  0.69892  0.36679  0.22983  1.0000
  H   H6337     1.0  0.79927  0.41040  0.23710  1.0000
  H   H6338     1.0  0.68974  0.32276  0.24083  1.0000
  C   C3703     1.0  0.79049  0.47512  0.38576  1.0000
  S   S1055     1.0  0.98541  0.44624  0.28985  1.0000
  H   H6339     1.0  0.78461  0.42392  0.24654  1.0000
  H   H6340     1.0  0.77682  0.45210  0.24247  1.0000
  S   S1056     1.0  0.74160  0.35124  0.23481  1.0000
  H   H6341     1.0  0.83673  0.46053  0.30270  1.0000
  H   H6342     1.0  0.79461  0.46886  0.39655  1.0000
  C   C3704     1.0  0.91822  0.23323  0.47550  1.0000
  C   C3705     1.0  0.82112  0.47454  0.25097  1.0000
  S   S1057     1.0  0.95151  0.47874  0.27357  1.0000
  C   C3706     1.0  0.80799  0.47272  0.26307  1.0000
  S   S1058     1.0  0.76411  0.47315  0.33210  1.0000
  N   N265      1.0  0.93049  0.40358  0.23100  1.0000
  S   S1059     1.0  0.95259  0.48193  0.23641  1.0000
  H   H6343     1.0  0.94478  0.27526  0.47279  1.0000
  H   H6344     1.0  0.81221  0.48079  0.34080  1.0000
  H   H6345     1.0  0.83350  0.44416  0.22991  1.0000
  H   H6346     1.0  0.82452  0.47770  0.28196  1.0000
  H   H6347     1.0  0.82844  0.23798  0.31372  1.0000
  H   H6348     1.0  0.84298  0.48132  0.28044  1.0000
  H   H6349     1.0  0.79936  0.48178  0.29712  1.0000
  C   C3707     1.0  0.99248  0.39611  0.23359  1.0000
  H   H6350     1.0  0.82035  0.32978  0.47583  1.0000
  C   C3708     1.0  0.83619  0.43268  0.22681  1.0000
  C   C3709     1.0  0.81597  0.24861  0.59803  1.0000
  C   C3710     1.0  0.87266  0.36859  0.69535  1.0000
  H   H6351     1.0  0.92239  0.29663  0.52811  1.0000
  C   C3711     1.0  0.79805  0.47146  0.66224  1.0000
  C   C3712     1.0  0.73554  0.28619  0.64962  1.0000
  C   C3713     1.0  0.60178  0.23607  0.72021  1.0000
  H   H6352     1.0  0.80692  0.31453  0.53225  1.0000
  H   H6353     1.0  0.73692  0.29779  0.64231  1.0000
  C   C3714     1.0  0.80316  0.31342  0.52209  1.0000
  H   H6354     1.0  0.82234  0.34974  0.49816  1.0000
  H   H6355     1.0  0.80791  0.34387  0.51482  1.0000
  Fe  Fe529     1.0  0.76487  0.26221  0.68042  1.0000
  H   H6356     1.0  0.72190  0.26921  0.65392  1.0000
  S   S1060     1.0  0.77489  0.25735  0.70164  1.0000
  S   S1061     1.0  0.80401  0.27324  0.67850  1.0000
  Fe  Fe530     1.0  0.79154  0.27730  0.65934  1.0000
  S   S1062     1.0  0.80333  0.28823  0.63540  1.0000
  H   H6357     1.0  0.80095  0.42136  0.58666  1.0000
  S   S1063     1.0  0.76794  0.28702  0.67285  1.0000
  H   H6358     1.0  0.98210  0.32416  0.48991  1.0000
  C   C3715     1.0  0.93931  0.24985  0.49484  1.0000
  Fe  Fe531     1.0  0.90900  0.44524  0.71702  1.0000
  S   S1064     1.0  0.78755  0.25311  0.66506  1.0000
  C   C3716     1.0  0.72574  0.23857  0.67482  1.0000
  H   H6359     1.0  0.82418  0.44878  0.60608  1.0000
  C   C3717     1.0  0.80328  0.45934  0.57898  1.0000
  Fe  Fe532     1.0  0.77206  0.34390  0.57026  1.0000
  S   S1065     1.0  0.79132  0.35138  0.57520  1.0000
  S   S1066     1.0  0.75936  0.32708  0.58903  1.0000
  Fe  Fe533     1.0  0.77450  0.36517  0.53798  1.0000
  S   S1067     1.0  0.79340  0.37495  0.54083  1.0000
  S   S1068     1.0  0.76839  0.37233  0.51436  1.0000
  Fe  Fe534     1.0  0.80350  0.35002  0.55065  1.0000
  S   S1069     1.0  0.82904  0.33967  0.54284  1.0000
  Fe  Fe535     1.0  0.77928  0.37546  0.56516  1.0000
  S   S1070     1.0  0.77350  0.39400  0.57912  1.0000
  S   S1071     1.0  0.78537  0.34019  0.54655  1.0000
  S   S1072     1.0  0.75919  0.36812  0.56139  1.0000
  Fe  Fe536     1.0  0.81727  0.40693  0.63491  1.0000
  S   S1073     1.0  0.79458  0.42266  0.64378  1.0000
  S   S1074     1.0  0.82312  0.39346  0.61602  1.0000
  Fe  Fe537     1.0  0.83413  0.41196  0.65713  1.0000
  S   S1075     1.0  0.81291  0.42820  0.66766  1.0000
  S   S1076     1.0  0.85739  0.40548  0.66419  1.0000
  Fe  Fe538     1.0  0.79999  0.41077  0.66731  1.0000
  S   S1077     1.0  0.78333  0.40112  0.68853  1.0000
  Fe  Fe539     1.0  0.80974  0.43868  0.64333  1.0000
  S   S1078     1.0  0.82141  0.39376  0.65847  1.0000
  S   S1079     1.0  0.83209  0.42372  0.63265  1.0000
  H   H6360     1.0  0.72059  0.26893  0.61272  1.0000
  H   H6361     1.0  0.83209  0.27031  0.58987  1.0000
  H   H6362     1.0  0.83479  0.45392  0.66018  1.0000
  C   C3718     1.0  0.79615  0.48106  0.67254  1.0000
  H   H6363     1.0  0.70562  0.25917  0.64753  1.0000
  C   C3719     1.0  0.74396  0.26031  0.63076  1.0000
  H   H6364     1.0  0.85098  0.28134  0.50830  1.0000
  H   H6365     1.0  0.80431  0.36799  0.63871  1.0000
  Fe  Fe540     1.0  0.78011  0.28136  0.69270  1.0000
  C   C3720     1.0  0.82278  0.33499  0.72356  1.0000
  H   H6366     1.0  0.77483  0.45523  0.60047  1.0000
  H   H6367     1.0  0.97398  0.30271  0.60947  1.0000
  C   C3721     1.0  0.98002  0.29124  0.61551  1.0000
  H   H6368     1.0  0.93798  0.25707  0.51549  1.0000
  H   H6369     1.0  0.81995  0.43645  0.55557  1.0000
  Fe  Fe541     1.0  0.97832  0.30501  0.55642  1.0000
  H   H6370     1.0  0.71931  0.24626  0.63553  1.0000
  C   C3722     1.0  0.81675  0.24860  0.62493  1.0000
  Fe  Fe542     1.0  0.96060  0.27903  0.56613  1.0000
  S   S1080     1.0  0.93659  0.27368  0.57549  1.0000
  C   C3723     1.0  0.97119  0.24208  0.60735  1.0000
  H   H6371     1.0  0.70643  0.38477  0.47763  1.0000
  N   N266      1.0  0.93861  0.27764  0.49693  1.0000
  C   C3724     1.0  0.96278  0.28974  0.49128  1.0000
  H   H6372     1.0  0.96305  0.26679  0.48962  1.0000
  H   H6373     1.0  0.78754  0.37482  0.65262  1.0000
  C   C3725     1.0  0.82465  0.43716  0.58757  1.0000
  C   C3726     1.0  0.75129  0.25236  0.61683  1.0000
  C   C3727     1.0  0.96473  0.23534  0.59730  1.0000
  H   H6374     1.0  0.82402  0.24955  0.63241  1.0000
  C   C3728     1.0  0.73689  0.28797  0.61701  1.0000
  Fe  Fe543     1.0  0.87614  0.25383  0.50884  1.0000
  S   S1081     1.0  0.88062  0.26438  0.52612  1.0000
  H   H6375     1.0  0.74336  0.35895  0.49182  1.0000
  C   C3729     1.0  0.86740  0.47166  0.65581  1.0000
  C   C3730     1.0  0.98033  0.29238  0.63185  1.0000
  Fe  Fe544     1.0  0.86035  0.25457  0.54224  1.0000
  S   S1082     1.0  0.83983  0.26652  0.55810  1.0000
  H   H6376     1.0  0.96786  0.29604  0.63770  1.0000
  H   H6377     1.0  0.92623  0.27614  0.52985  1.0000
  C   C3731     1.0  0.98506  0.23615  0.50516  1.0000
  H   H6378     1.0  0.80669  0.34270  0.49584  1.0000
  H   H6379     1.0  0.93613  0.23888  0.63341  1.0000
  H   H6380     1.0  0.82392  0.30369  0.69774  1.0000
  H   H6381     1.0  0.80611  0.25810  0.62667  1.0000
  H   H6382     1.0  0.98534  0.30668  0.50502  1.0000
  H   H6383     1.0  0.87106  0.37198  0.68316  1.0000
  C   C3732     1.0  0.93358  0.26242  0.50462  1.0000
  C   C3733     1.0  0.87529  0.47863  0.66441  1.0000
  C   C3734     1.0  0.82792  0.29607  0.51371  1.0000
  C   C3735     1.0  0.93182  0.26326  0.56464  1.0000
  C   C3736     1.0  0.91607  0.26320  0.56603  1.0000
  C   C3737     1.0  0.91214  0.25472  0.55754  1.0000
  C   C3738     1.0  0.92402  0.24599  0.54799  1.0000
  H   H6384     1.0  0.85486  0.25193  0.58595  1.0000
  C   C3739     1.0  0.94365  0.25449  0.55510  1.0000
  H   H6385     1.0  0.90689  0.26992  0.57348  1.0000
  H   H6386     1.0  0.89996  0.25497  0.55837  1.0000
  H   H6387     1.0  0.84281  0.40517  0.71556  1.0000
  H   H6388     1.0  0.95581  0.25441  0.55402  1.0000
  H   H6389     1.0  0.76237  0.36639  0.61952  1.0000
  H   H6390     1.0  0.84316  0.44210  0.59503  1.0000
  H   H6391     1.0  0.74459  0.27811  0.59579  1.0000
  H   H6392     1.0  0.59137  0.24536  0.71772  1.0000
  C   C3740     1.0  0.93974  0.24569  0.54699  1.0000
  H   H6393     1.0  0.76107  0.25758  0.60891  1.0000
  H   H6394     1.0  0.84199  0.45101  0.64087  1.0000
  H   H6395     1.0  0.81598  0.32663  0.61528  1.0000
  Fe  Fe545     1.0  0.89497  0.24067  0.53403  1.0000
  S   S1083     1.0  0.76595  0.31982  0.48314  1.0000
  S   S1084     1.0  0.87802  0.26646  0.48387  1.0000
  H   H6396     1.0  0.91543  0.23802  0.48605  1.0000
  C   C3741     1.0  0.74054  0.24142  0.67346  1.0000
  H   H6397     1.0  0.78107  0.33225  0.62258  1.0000
  C   C3742     1.0  0.79304  0.39314  0.70402  1.0000
  C   C3743     1.0  0.89976  0.38483  0.70837  1.0000
  C   C3744     1.0  0.98697  0.24878  0.52438  1.0000
  H   H6398     1.0  0.98445  0.24973  0.53630  1.0000
  H   H6399     1.0  0.72877  0.37573  0.51070  1.0000
  S   S1085     1.0  0.77538  0.30133  0.70481  1.0000
  H   H6400     1.0  0.85565  0.44713  0.65291  1.0000
  H   H6401     1.0  0.91274  0.27764  0.48701  1.0000
  C   C3745     1.0  0.78288  0.36029  0.63992  1.0000
  H   H6402     1.0  0.73014  0.28793  0.66166  1.0000
  H   H6403     1.0  0.91595  0.29106  0.50630  1.0000
  H   H6404     1.0  0.94890  0.23895  0.53958  1.0000
  C   C3746     1.0  0.93016  0.28686  0.52279  1.0000
  C   C3747     1.0  0.85753  0.43830  0.69346  1.0000
  C   C3748     1.0  0.87169  0.43138  0.68470  1.0000
  C   C3749     1.0  0.87170  0.42119  0.67571  1.0000
  C   C3750     1.0  0.85760  0.41768  0.67584  1.0000
  C   C3751     1.0  0.84368  0.42396  0.68530  1.0000
  C   C3752     1.0  0.84355  0.43458  0.69376  1.0000
  H   H6405     1.0  0.88251  0.43437  0.68433  1.0000
  H   H6406     1.0  0.88254  0.41622  0.66849  1.0000
  H   H6407     1.0  0.83303  0.42039  0.68643  1.0000
  H   H6408     1.0  0.83261  0.43974  0.70072  1.0000
  C   C3753     1.0  0.98396  0.25318  0.63591  1.0000
  H   H6409     1.0  0.95730  0.46636  0.69992  1.0000
  S   S1086     1.0  0.85464  0.24600  0.52421  1.0000
  C   C3754     1.0  0.83255  0.31931  0.54804  1.0000
  C   C3755     1.0  0.84720  0.31037  0.54240  1.0000
  C   C3756     1.0  0.84967  0.29408  0.54575  1.0000
  C   C3757     1.0  0.83749  0.28673  0.55473  1.0000
  C   C3758     1.0  0.82298  0.29567  0.56071  1.0000
  C   C3759     1.0  0.82052  0.31194  0.55730  1.0000
  H   H6410     1.0  0.85657  0.31606  0.53532  1.0000
  H   H6411     1.0  0.86098  0.28727  0.54142  1.0000
  H   H6412     1.0  0.81352  0.29006  0.56770  1.0000
  H   H6413     1.0  0.80926  0.31883  0.56165  1.0000
  C   C3760     1.0  0.78710  0.39279  0.59005  1.0000
  C   C3761     1.0  0.78209  0.39911  0.60339  1.0000
  C   C3762     1.0  0.79295  0.39894  0.61184  1.0000
  C   C3763     1.0  0.80890  0.39273  0.60673  1.0000
  C   C3764     1.0  0.81384  0.38617  0.59356  1.0000
  C   C3765     1.0  0.80297  0.38610  0.58529  1.0000
  H   H6414     1.0  0.76980  0.40426  0.60711  1.0000
  H   H6415     1.0  0.78902  0.40391  0.62205  1.0000
  H   H6416     1.0  0.82617  0.38129  0.58960  1.0000
  H   H6417     1.0  0.80691  0.38121  0.57501  1.0000
  H   H6418     1.0  0.89242  0.36323  0.71586  1.0000
  S   S1087     1.0  0.91974  0.23551  0.53690  1.0000
  H   H6419     1.0  0.83592  0.26918  0.62281  1.0000
  H   H6420     1.0  0.80034  0.28967  0.53455  1.0000
  H   H6421     1.0  0.96652  0.27011  0.64754  1.0000
  C   C3766     1.0  0.76865  0.33355  0.49180  1.0000
  H   H6422     1.0  0.77956  0.36828  0.48293  1.0000
  C   C3767     1.0  0.77524  0.35807  0.48994  1.0000
  C   C3768     1.0  0.76977  0.35671  0.50605  1.0000
  C   C3769     1.0  0.76440  0.34341  0.51511  1.0000
  C   C3770     1.0  0.76379  0.33189  0.50798  1.0000
  H   H6423     1.0  0.74397  0.29836  0.59251  1.0000
  H   H6424     1.0  0.71129  0.35733  0.49052  1.0000
  H   H6425     1.0  0.76009  0.34233  0.52754  1.0000
  H   H6426     1.0  0.75908  0.32190  0.51499  1.0000
  C   C3771     1.0  0.79083  0.29870  0.62273  1.0000
  C   C3772     1.0  0.79739  0.30509  0.60735  1.0000
  C   C3773     1.0  0.78771  0.31363  0.59698  1.0000
  C   C3774     1.0  0.77143  0.31609  0.60197  1.0000
  C   C3775     1.0  0.76482  0.30991  0.61741  1.0000
  C   C3776     1.0  0.77451  0.30104  0.62777  1.0000
  H   H6427     1.0  0.81000  0.30354  0.60340  1.0000
  H   H6428     1.0  0.79283  0.31831  0.58510  1.0000
  H   H6429     1.0  0.75222  0.31230  0.62136  1.0000
  H   H6430     1.0  0.76936  0.29626  0.63966  1.0000
  S   S1088     1.0  0.98256  0.26053  0.56239  1.0000
  H   H6431     1.0  0.95805  0.26935  0.50881  1.0000
  C   C3777     1.0  0.83966  0.27096  0.60998  1.0000
  H   H6432     1.0  0.91171  0.37875  0.71029  1.0000
  H   H6433     1.0  0.85541  0.47221  0.63243  1.0000
  H   H6434     1.0  0.75388  0.26304  0.63361  1.0000
  H   H6435     1.0  0.79793  0.35500  0.65684  1.0000
  H   H6436     1.0  0.79071  0.31695  0.66657  1.0000
  C   C3778     1.0  0.84075  0.23903  0.60683  1.0000
  C   C3779     1.0  0.97934  0.26510  0.64636  1.0000
  H   H6437     1.0  0.74206  0.37928  0.48444  1.0000
  C   C3780     1.0  0.79601  0.33206  0.64373  1.0000
  C   C3781     1.0  0.81483  0.34108  0.50349  1.0000
  H   H6438     1.0  0.97516  0.28853  0.67801  1.0000
  H   H6439     1.0  0.85068  0.23764  0.64055  1.0000
  C   C3782     1.0  0.81268  0.46452  0.56237  1.0000
  H   H6440     1.0  0.81277  0.47706  0.56027  1.0000
  H   H6441     1.0  0.83256  0.43647  0.57605  1.0000
  H   H6442     1.0  0.84686  0.23761  0.58216  1.0000
  H   H6443     1.0  0.81498  0.39903  0.69071  1.0000
  C   C3783     1.0  0.72464  0.27930  0.64437  1.0000
  H   H6444     1.0  0.93398  0.25326  0.48454  1.0000
  S   S1089     1.0  0.98003  0.32984  0.55217  1.0000
  C   C3784     1.0  0.84360  0.29186  0.50227  1.0000
  H   H6445     1.0  0.78071  0.33674  0.66623  1.0000
  C   C3785     1.0  0.81035  0.33799  0.60875  1.0000
  H   H6446     1.0  0.77294  0.38580  0.72035  1.0000
  H   H6447     1.0  0.98231  0.34025  0.50809  1.0000
  H   H6448     1.0  0.74722  0.27834  0.65000  1.0000
  H   H6449     1.0  0.92060  0.26412  0.50851  1.0000
  H   H6450     1.0  0.79447  0.32438  0.51896  1.0000
  H   H6451     1.0  0.84185  0.28858  0.49219  1.0000
  H   H6452     1.0  0.98556  0.32318  0.52286  1.0000
  H   H6453     1.0  0.77855  0.36018  0.60439  1.0000
  H   H6454     1.0  0.79890  0.27132  0.59612  1.0000
  H   H6455     1.0  0.72600  0.29215  0.59711  1.0000
  H   H6456     1.0  0.83526  0.47893  0.64030  1.0000
  H   H6457     1.0  0.76184  0.35173  0.61035  1.0000
  H   H6458     1.0  0.82861  0.34494  0.71924  1.0000
  N   N267      1.0  0.81706  0.31140  0.50866  1.0000
  C   C3786     1.0  0.86810  0.24228  0.48001  1.0000
  H   H6459     1.0  0.79079  0.46266  0.57803  1.0000
  C   C3787     1.0  0.81129  0.31137  0.49468  1.0000
  H   H6460     1.0  0.77676  0.43505  0.59999  1.0000
  C   C3788     1.0  0.79382  0.30041  0.52791  1.0000
  H   H6461     1.0  0.99025  0.30814  0.57867  1.0000
  H   H6462     1.0  0.79592  0.45984  0.66678  1.0000
  C   C3789     1.0  0.84473  0.45508  0.64998  1.0000
  H   H6463     1.0  0.80997  0.29950  0.49513  1.0000
  H   H6464     1.0  0.79930  0.31885  0.49478  1.0000
  H   H6465     1.0  0.79051  0.29774  0.51830  1.0000
  H   H6466     1.0  0.96577  0.29755  0.66207  1.0000
  C   C3790     1.0  0.83077  0.44755  0.59421  1.0000
  C   C3791     1.0  0.80337  0.43230  0.57847  1.0000
  H   H6467     1.0  0.96231  0.24495  0.61776  1.0000
  H   H6468     1.0  0.97854  0.45709  0.71466  1.0000
  H   H6469     1.0  0.79363  0.25638  0.59090  1.0000
  C   C3792     1.0  0.79395  0.36457  0.64740  1.0000
  H   H6470     1.0  0.86798  0.45932  0.66211  1.0000
  H   H6471     1.0  0.93593  0.24475  0.61328  1.0000
  H   H6472     1.0  0.90022  0.38643  0.69582  1.0000
  H   H6473     1.0  0.97458  0.25313  0.60033  1.0000
  H   H6474     1.0  0.82898  0.38663  0.71203  1.0000
  H   H6475     1.0  0.77425  0.32451  0.65776  1.0000
  H   H6476     1.0  0.83159  0.24529  0.66384  1.0000
  H   H6477     1.0  0.87409  0.47245  0.67682  1.0000
  H   H6478     1.0  0.79906  0.32396  0.69766  1.0000
  H   H6479     1.0  0.84236  0.46487  0.67630  1.0000
  H   H6480     1.0  0.79942  0.36723  0.68122  1.0000
  H   H6481     1.0  0.80687  0.33313  0.64635  1.0000
  H   H6482     1.0  0.87582  0.39150  0.69320  1.0000
  S   S1090     1.0  0.96977  0.29028  0.57962  1.0000
  C   C3793     1.0  0.92861  0.28987  0.50581  1.0000
  C   C3794     1.0  0.80248  0.47695  0.64618  1.0000
  H   H6483     1.0  0.82568  0.41788  0.56852  1.0000
  C   C3795     1.0  0.84652  0.47214  0.64357  1.0000
  H   H6484     1.0  0.93099  0.30159  0.49972  1.0000
  H   H6485     1.0  0.77468  0.44045  0.61781  1.0000
  H   H6486     1.0  0.81685  0.27576  0.60536  1.0000
  H   H6487     1.0  0.87336  0.34826  0.72319  1.0000
  H   H6488     1.0  0.85179  0.26419  0.60672  1.0000
  H   H6489     1.0  0.71336  0.28814  0.64438  1.0000
  H   H6490     1.0  0.80374  0.46705  0.58632  1.0000
  Fe  Fe546     1.0  0.79791  0.24978  0.68558  1.0000
  C   C3796     1.0  0.78168  0.31372  0.72568  1.0000
  H   H6491     1.0  0.85641  0.38904  0.70083  1.0000
  H   H6492     1.0  0.86454  0.23923  0.49254  1.0000
  C   C3797     1.0  0.79806  0.44014  0.60319  1.0000
  H   H6493     1.0  0.83066  0.45928  0.58652  1.0000
  H   H6494     1.0  0.80201  0.42807  0.60974  1.0000
  C   C3798     1.0  0.79910  0.25867  0.59926  1.0000
  H   H6495     1.0  0.86449  0.36087  0.70202  1.0000
  C   C3799     1.0  0.81565  0.42681  0.56455  1.0000
  C   C3800     1.0  0.98083  0.31949  0.50262  1.0000
  C   C3801     1.0  0.96958  0.45056  0.71720  1.0000
  H   H6496     1.0  0.71748  0.36343  0.50919  1.0000
  H   H6497     1.0  0.71356  0.38411  0.50008  1.0000
  C   C3802     1.0  0.82805  0.26724  0.60273  1.0000
  H   H6498     1.0  0.88501  0.36224  0.69503  1.0000
  H   H6499     1.0  0.71542  0.24502  0.68143  1.0000
  H   H6500     1.0  0.95690  0.29848  0.49854  1.0000
  C   C3803     1.0  0.80881  0.39347  0.70181  1.0000
  H   H6501     1.0  0.84003  0.28347  0.60546  1.0000
  H   H6502     1.0  0.77913  0.37093  0.63118  1.0000
  C   C3804     1.0  0.72280  0.37354  0.50266  1.0000
  H   H6503     1.0  0.98501  0.25854  0.62338  1.0000
  H   H6504     1.0  0.70761  0.28186  0.62404  1.0000
  H   H6505     1.0  0.87168  0.40593  0.71223  1.0000
  C   C3805     1.0  0.77490  0.34641  0.48285  1.0000
  N   N268      1.0  0.82540  0.25086  0.60812  1.0000
  C   C3806     1.0  0.95761  0.45578  0.70885  1.0000
  H   H6506     1.0  0.78275  0.30438  0.53610  1.0000
  H   H6507     1.0  0.79228  0.43819  0.57438  1.0000
  H   H6508     1.0  0.81634  0.30630  0.68107  1.0000
  C   C3807     1.0  0.95573  0.27510  0.49700  1.0000
  H   H6509     1.0  0.74019  0.25133  0.64102  1.0000
  S   S1091     1.0  0.89937  0.42837  0.71050  1.0000
  C   C3808     1.0  0.80133  0.34934  0.70287  1.0000
  C   C3809     1.0  0.88801  0.37486  0.71882  1.0000
  H   H6510     1.0  0.79290  0.34337  0.71235  1.0000
  C   C3810     1.0  0.78011  0.44294  0.60518  1.0000
  H   H6511     1.0  0.74276  0.25252  0.61019  1.0000
  H   H6512     1.0  0.80170  0.33623  0.60334  1.0000
  H   H6513     1.0  0.93586  0.23889  0.50208  1.0000
  H   H6514     1.0  0.81966  0.34231  0.59906  1.0000
  H   H6515     1.0  0.77203  0.35863  0.64893  1.0000
  H   H6516     1.0  0.83524  0.32425  0.49566  1.0000
  C   C3811     1.0  0.73787  0.28891  0.59971  1.0000
  S   S1092     1.0  0.74172  0.25643  0.68157  1.0000
  H   H6517     1.0  0.79160  0.25576  0.61100  1.0000
  C   C3812     1.0  0.79214  0.35993  0.69056  1.0000
  H   H6518     1.0  0.94224  0.28617  0.52374  1.0000
  C   C3813     1.0  0.76968  0.35621  0.61464  1.0000
  H   H6519     1.0  0.70071  0.25631  0.63116  1.0000
  H   H6520     1.0  0.74882  0.28797  0.61802  1.0000
  H   H6521     1.0  0.72929  0.29935  0.61930  1.0000
  H   H6522     1.0  0.78210  0.36805  0.69629  1.0000
  C   C3814     1.0  0.78520  0.38590  0.71851  1.0000
  H   H6523     1.0  0.82218  0.28614  0.51606  1.0000
  H   H6524     1.0  0.98579  0.30234  0.63034  1.0000
  H   H6525     1.0  0.80728  0.46291  0.55359  1.0000
  H   H6526     1.0  0.82746  0.47868  0.66803  1.0000
  C   C3815     1.0  0.73521  0.37004  0.48796  1.0000
  H   H6527     1.0  0.81019  0.42099  0.55892  1.0000
  C   C3816     1.0  0.71738  0.27132  0.62455  1.0000
  H   H6528     1.0  0.98070  0.25772  0.65807  1.0000
  H   H6529     1.0  0.85051  0.30100  0.49842  1.0000
  C   C3817     1.0  0.71054  0.25747  0.63546  1.0000
  H   H6530     1.0  0.82187  0.25137  0.58556  1.0000
  S   S1093     1.0  0.92998  0.45507  0.70304  1.0000
  C   C3818     1.0  0.83945  0.47706  0.66977  1.0000
  N   N269      1.0  0.73088  0.27456  0.62883  1.0000
  H   H6531     1.0  0.77449  0.32443  0.72051  1.0000
  H   H6532     1.0  0.82702  0.42503  0.59467  1.0000
  S   S1094     1.0  0.88615  0.46258  0.72043  1.0000
  N   N270      1.0  0.80757  0.44237  0.58665  1.0000
  H   H6533     1.0  0.83068  0.32310  0.51587  1.0000
  N   N271      1.0  0.81551  0.33748  0.69714  1.0000
  C   C3819     1.0  0.80999  0.32737  0.69009  1.0000
  H   H6534     1.0  0.95221  0.24714  0.49104  1.0000
  C   C3820     1.0  0.82263  0.32721  0.71063  1.0000
  C   C3821     1.0  0.82753  0.34502  0.68459  1.0000
  C   C3822     1.0  0.82165  0.31212  0.68686  1.0000
  H   H6535     1.0  0.61200  0.23944  0.71123  1.0000
  H   H6536     1.0  0.79939  0.36157  0.61131  1.0000
  C   C3823     1.0  0.83470  0.35622  0.68891  1.0000
  C   C3824     1.0  0.82528  0.32448  0.50588  1.0000
  H   H6537     1.0  0.80684  0.33389  0.67879  1.0000
  H   H6538     1.0  0.78695  0.35331  0.68560  1.0000
  C   C3825     1.0  0.81678  0.38643  0.71394  1.0000
  Fe  Fe547     1.0  0.87625  0.44479  0.71616  1.0000
  H   H6539     1.0  0.83491  0.32112  0.70640  1.0000
  H   H6540     1.0  0.83771  0.33600  0.68048  1.0000
  H   H6541     1.0  0.82298  0.35121  0.67388  1.0000
  H   H6542     1.0  0.83290  0.31421  0.67897  1.0000
  H   H6543     1.0  0.79982  0.44802  0.60959  1.0000
  H   H6544     1.0  0.83502  0.47774  0.71864  1.0000
  H   H6545     1.0  0.79966  0.32166  0.63843  1.0000
  H   H6546     1.0  0.97330  0.28265  0.61599  1.0000
  C   C3826     1.0  0.78423  0.30023  0.72007  1.0000
  H   H6547     1.0  0.83076  0.29572  0.52488  1.0000
  S   S1095     1.0  0.85690  0.45222  0.70347  1.0000
  S   S1096     1.0  0.80591  0.46467  0.63307  1.0000
  H   H6548     1.0  0.84461  0.34975  0.69465  1.0000
  H   H6549     1.0  0.82606  0.36378  0.69628  1.0000
  H   H6550     1.0  0.83912  0.36446  0.67818  1.0000
  C   C3827     1.0  0.86875  0.38344  0.70166  1.0000
  C   C3828     1.0  0.85183  0.24036  0.59060  1.0000
  C   C3829     1.0  0.80304  0.35012  0.61900  1.0000
  H   H6551     1.0  0.81612  0.31780  0.71685  1.0000
  H   H6552     1.0  0.89733  0.39628  0.71145  1.0000
  C   C3830     1.0  0.94584  0.44746  0.71226  1.0000
  H   H6553     1.0  0.76691  0.34090  0.63698  1.0000
  H   H6554     1.0  0.81291  0.35143  0.62315  1.0000
  C   C3831     1.0  0.86617  0.39728  0.72182  1.0000
  S   S1097     1.0  0.96699  0.29550  0.54330  1.0000
  C   C3832     1.0  0.78460  0.32757  0.65937  1.0000
  N   N272      1.0  0.78970  0.34641  0.63245  1.0000
  C   C3833     1.0  0.77691  0.34313  0.62707  1.0000
  H   H6555     1.0  0.82519  0.45850  0.56049  1.0000
  H   H6556     1.0  0.80436  0.35723  0.70828  1.0000
  H   H6557     1.0  0.87531  0.47068  0.64426  1.0000
  H   H6558     1.0  0.97527  0.28626  0.49221  1.0000
  N   N273      1.0  0.87103  0.38137  0.71787  1.0000
  H   H6559     1.0  0.97491  0.24610  0.63940  1.0000
  H   H6560     1.0  0.50372  0.23965  0.71425  1.0000
  C   C3834     1.0  0.97303  0.28652  0.66742  1.0000
  C   C3835     1.0  0.93656  0.28307  0.48036  1.0000
  N   N274      1.0  0.85079  0.47954  0.65425  1.0000
  H   H6561     1.0  0.96272  0.29512  0.47887  1.0000
  H   H6562     1.0  0.96630  0.27720  0.67142  1.0000
  H   H6563     1.0  0.95530  0.24470  0.59286  1.0000
  C   C3836     1.0  0.94665  0.43336  0.72326  1.0000
  H   H6564     1.0  0.84740  0.23939  0.61518  1.0000
  H   H6565     1.0  0.79287  0.47661  0.68495  1.0000
  C   C3837     1.0  0.98195  0.23736  0.52065  1.0000
  H   H6566     1.0  0.96804  0.32152  0.50785  1.0000
  H   H6567     1.0  0.76528  0.23497  0.66385  1.0000
  H   H6568     1.0  0.79559  0.27594  0.72253  1.0000
  H   H6569     1.0  0.81529  0.23618  0.60047  1.0000
  Fe  Fe548     1.0  0.98968  0.27783  0.54053  1.0000
  H   H6570     1.0  0.88801  0.47712  0.65901  1.0000
  C   C3838     1.0  0.83428  0.23339  0.66247  1.0000
  H   H6571     1.0  0.93458  0.23934  0.59052  1.0000
  H   H6572     1.0  0.75595  0.23977  0.62127  1.0000
  C   C3839     1.0  0.82119  0.31704  0.47843  1.0000
  C   C3840     1.0  0.98858  0.32780  0.51007  1.0000
  C   C3841     1.0  0.98903  0.28196  0.65640  1.0000
  H   H6573     1.0  0.72923  0.34454  0.48406  1.0000
  C   C3842     1.0  0.84834  0.40451  0.72512  1.0000
  C   C3843     1.0  0.91974  0.28543  0.47808  1.0000
  C   C3844     1.0  0.72092  0.35563  0.48019  1.0000
  N   N275      1.0  0.98842  0.27789  0.64171  1.0000
  H   H6574     1.0  0.84966  0.37269  0.72602  1.0000
  H   H6575     1.0  0.91320  0.29766  0.47802  1.0000
  H   H6576     1.0  0.83367  0.31096  0.47686  1.0000
  C   C3845     1.0  0.93570  0.23469  0.62327  1.0000
  H   H6577     1.0  0.98187  0.23429  0.61098  1.0000
  H   H6578     1.0  0.93799  0.42654  0.72543  1.0000
  H   H6579     1.0  0.99194  0.28862  0.60816  1.0000
  Fe  Fe549     1.0  0.99245  0.27333  0.57372  1.0000
  H   H6580     1.0  0.97406  0.23389  0.58663  1.0000
  H   H6581     1.0  0.99196  0.35364  0.51883  1.0000
  H   H6582     1.0  0.84653  0.41665  0.72642  1.0000
  C   C3846     1.0  0.99323  0.32997  0.56294  1.0000
  Fe  Fe550     1.0  0.57063  0.26807  0.84700  1.0000
  S   S1098     1.0  0.58045  0.28165  0.82364  1.0000
  S   S1099     1.0  0.54920  0.27751  0.86390  1.0000
  H   H6583     1.0  0.54320  0.45897  0.81991  1.0000
  C   C3847     1.0  0.80907  0.37888  0.72831  1.0000
  Fe  Fe551     1.0  0.60341  0.27312  0.83134  1.0000
  S   S1100     1.0  0.61954  0.28965  0.82670  1.0000
  Fe  Fe552     1.0  0.58620  0.25895  0.81591  1.0000
  S   S1101     1.0  0.58142  0.25826  0.79311  1.0000
  S   S1102     1.0  0.59316  0.26105  0.85529  1.0000
  S   S1103     1.0  0.57448  0.24604  0.83884  1.0000
  S   S1104     1.0  0.98505  0.45934  0.76328  1.0000
  C   C3848     1.0  0.49809  0.42724  0.86459  1.0000
  N   N276      1.0  0.68173  0.27914  0.84358  1.0000
  H   H6584     1.0  0.60605  0.46186  0.89243  1.0000
  C   C3849     1.0  0.66800  0.46842  0.96259  1.0000
  H   H6585     1.0  0.51946  0.25751  0.90798  1.0000
  S   S1105     1.0  0.50520  0.36524  0.86700  1.0000
  S   S1106     1.0  0.50304  0.33960  0.83946  1.0000
  S   S1107     1.0  0.66488  0.40581  0.94516  1.0000
  H   H6586     1.0  0.71299  0.33428  0.78107  1.0000
  H   H6587     1.0  0.66660  0.45704  0.96955  1.0000
  H   H6588     1.0  0.90251  0.43868  0.77747  1.0000
  H   H6589     1.0  0.59189  0.23455  0.74468  1.0000
  H   H6590     1.0  0.59066  0.47683  0.94386  1.0000
  H   H6591     1.0  0.56383  0.24309  0.90467  1.0000
  H   H6592     1.0  0.93184  0.41316  0.80438  1.0000
  H   H6593     1.0  0.54430  0.26255  0.91986  1.0000
  Fe  Fe553     1.0  0.54238  0.44921  0.88435  1.0000
  S   S1108     1.0  0.56456  0.44372  0.86658  1.0000
  S   S1109     1.0  0.51823  0.45285  0.88004  1.0000
  Fe  Fe554     1.0  0.55995  0.44727  0.90892  1.0000
  S   S1110     1.0  0.58340  0.44094  0.89334  1.0000
  S   S1111     1.0  0.56035  0.45090  0.93202  1.0000
  Fe  Fe555     1.0  0.57310  0.46002  0.87522  1.0000
  Fe  Fe556     1.0  0.57246  0.42541  0.88653  1.0000
  S   S1112     1.0  0.58179  0.40013  0.88578  1.0000
  S   S1113     1.0  0.55017  0.46721  0.89121  1.0000
  S   S1114     1.0  0.54978  0.43001  0.90388  1.0000
  Fe  Fe557     1.0  0.66911  0.42859  0.92968  1.0000
  C   C3850     1.0  0.97016  0.35775  0.93206  1.0000
  S   S1115     1.0  0.68477  0.43174  0.90597  1.0000
  Fe  Fe558     1.0  0.64736  0.44740  0.95264  1.0000
  H   H6594     1.0  0.85835  0.34726  0.74059  1.0000
  H   H6595     1.0  0.69095  0.46555  0.96665  1.0000
  Fe  Fe559     1.0  0.63971  0.41850  0.94933  1.0000
  H   H6596     1.0  0.69596  0.42439  0.96754  1.0000
  S   S1116     1.0  0.67316  0.43720  0.94846  1.0000
  S   S1117     1.0  0.64377  0.44066  0.93232  1.0000
  H   H6597     1.0  0.85739  0.37441  0.74108  1.0000
  H   H6598     1.0  0.62635  0.24382  0.75331  1.0000
  H   H6599     1.0  0.92768  0.43214  0.80747  1.0000
  S   S1118     1.0  0.98430  0.43055  0.73987  1.0000
  N   N277      1.0  0.69691  0.35601  0.97492  1.0000
  S   S1119     1.0  0.89727  0.39247  0.74684  1.0000
  H   H6600     1.0  0.93910  0.37185  0.82915  1.0000
  H   H6601     1.0  0.76914  0.31675  0.88263  1.0000
  H   H6602     1.0  0.57042  0.47149  0.83909  1.0000
  H   H6603     1.0  0.84189  0.39819  0.73610  1.0000
  S   S1120     1.0  0.90620  0.43340  0.74227  1.0000
  H   H6604     1.0  0.50584  0.27278  0.87291  1.0000
  Fe  Fe560     1.0  0.99106  0.35549  0.87406  1.0000
  Fe  Fe561     1.0  0.75695  0.34757  0.92553  1.0000
  S   S1121     1.0  0.77435  0.36154  0.91027  1.0000
  S   S1122     1.0  0.75007  0.33269  0.91347  1.0000
  Fe  Fe562     1.0  0.76113  0.37989  0.92379  1.0000
  H   H6605     1.0  0.54263  0.29185  0.83327  1.0000
  Fe  Fe563     1.0  0.78762  0.35181  0.92935  1.0000
  S   S1123     1.0  0.81332  0.34048  0.92420  1.0000
  Fe  Fe564     1.0  0.67482  0.33923  0.88593  1.0000
  S   S1124     1.0  0.68553  0.35060  0.86186  1.0000
  S   S1125     1.0  0.68011  0.34621  0.90546  1.0000
  Fe  Fe565     1.0  0.65471  0.32479  0.87368  1.0000
  S   S1126     1.0  0.66406  0.33551  0.84883  1.0000
  S   S1127     1.0  0.63723  0.30926  0.87997  1.0000
  Fe  Fe566     1.0  0.68727  0.32798  0.85577  1.0000
  S   S1128     1.0  0.70880  0.31402  0.84276  1.0000
  Fe  Fe567     1.0  0.66110  0.35686  0.85781  1.0000
  S   S1129     1.0  0.65076  0.38153  0.84707  1.0000
  S   S1130     1.0  0.67828  0.31597  0.88025  1.0000
  S   S1131     1.0  0.65016  0.34673  0.88229  1.0000
  Fe  Fe568     1.0  0.80178  0.31997  0.77053  1.0000
  S   S1132     1.0  0.78804  0.34295  0.76004  1.0000
  S   S1133     1.0  0.80511  0.29862  0.76094  1.0000
  Fe  Fe569     1.0  0.80836  0.33343  0.79483  1.0000
  S   S1134     1.0  0.79524  0.35741  0.78565  1.0000
  S   S1135     1.0  0.81594  0.33206  0.81680  1.0000
  Fe  Fe570     1.0  0.77732  0.34533  0.78468  1.0000
  S   S1136     1.0  0.75160  0.35584  0.79205  1.0000
  Fe  Fe571     1.0  0.80732  0.35255  0.76213  1.0000
  S   S1137     1.0  0.50853  0.40599  0.84560  1.0000
  S   S1138     1.0  0.78963  0.32152  0.79526  1.0000
  S   S1139     1.0  0.82199  0.32937  0.77119  1.0000
  Fe  Fe572     1.0  0.90595  0.36652  0.82734  1.0000
  S   S1140     1.0  0.91652  0.34101  0.82951  1.0000
  S   S1141     1.0  0.91666  0.38516  0.80976  1.0000
  Fe  Fe573     1.0  0.87629  0.36141  0.85163  1.0000
  S   S1142     1.0  0.88435  0.33544  0.85586  1.0000
  S   S1143     1.0  0.85277  0.37467  0.86241  1.0000
  Fe  Fe574     1.0  0.90771  0.34003  0.85517  1.0000
  S   S1144     1.0  0.92074  0.32566  0.87391  1.0000
  Fe  Fe575     1.0  0.89222  0.33913  0.82990  1.0000
  S   S1145     1.0  0.88763  0.32604  0.81464  1.0000
  S   S1146     1.0  0.89896  0.36582  0.85288  1.0000
  S   S1147     1.0  0.88250  0.36480  0.82571  1.0000
  C   C3851     1.0  0.65601  0.47834  0.95544  1.0000
  H   H6606     1.0  0.81073  0.33885  0.73022  1.0000
  H   H6607     1.0  0.80705  0.27533  0.74449  1.0000
  Fe  Fe576     1.0  0.75851  0.35709  0.95475  1.0000
  H   H6608     1.0  0.66384  0.29532  0.85583  1.0000
  H   H6609     1.0  0.54666  0.35617  0.90378  1.0000
  S   S1148     1.0  0.51122  0.28442  0.92561  1.0000
  H   H6610     1.0  0.95135  0.40141  0.76885  1.0000
  H   H6611     1.0  0.49639  0.40388  0.91394  1.0000
  Fe  Fe577     1.0  0.88236  0.44924  0.74505  1.0000
  C   C3852     1.0  0.60073  0.47791  0.93381  1.0000
  C   C3853     1.0  0.56708  0.46965  0.82906  1.0000
  H   H6612     1.0  0.57005  0.25197  0.76974  1.0000
  H   H6613     1.0  0.60536  0.46672  0.92994  1.0000
  H   H6614     1.0  0.71811  0.32384  0.96505  1.0000
  C   C3854     1.0  0.67577  0.26446  0.84682  1.0000
  C   C3855     1.0  0.72118  0.43804  0.94388  1.0000
  H   H6615     1.0  0.91146  0.45232  0.78044  1.0000
  N   N278      1.0  0.54112  0.24017  0.90417  1.0000
  C   C3856     1.0  0.52703  0.39104  0.91223  1.0000
  H   H6616     1.0  0.95673  0.45098  0.75738  1.0000
  H   H6617     1.0  0.72796  0.45597  0.89670  1.0000
  H   H6618     1.0  0.51840  0.38777  0.92320  1.0000
  H   H6619     1.0  0.59500  0.33620  0.86220  1.0000
  C   C3857     1.0  0.59321  0.33372  0.85168  1.0000
  H   H6620     1.0  0.59886  0.32131  0.85222  1.0000
  H   H6621     1.0  0.68317  0.29563  0.85592  1.0000
  C   C3858     1.0  0.95834  0.34074  0.88745  1.0000
  C   C3859     1.0  0.95203  0.32799  0.89657  1.0000
  C   C3860     1.0  0.94071  0.32348  0.89209  1.0000
  C   C3861     1.0  0.93511  0.33198  0.87873  1.0000
  C   C3862     1.0  0.94102  0.34506  0.86976  1.0000
  C   C3863     1.0  0.95286  0.34928  0.87397  1.0000
  H   H6622     1.0  0.95619  0.32134  0.90697  1.0000
  H   H6623     1.0  0.93626  0.31332  0.89904  1.0000
  H   H6624     1.0  0.93653  0.35180  0.85959  1.0000
  C   C3864     1.0  0.83593  0.33072  0.81556  1.0000
  C   C3865     1.0  0.84770  0.32391  0.80440  1.0000
  C   C3866     1.0  0.86357  0.32232  0.80431  1.0000
  C   C3867     1.0  0.86771  0.32779  0.81518  1.0000
  C   C3868     1.0  0.85591  0.33495  0.82608  1.0000
  C   C3869     1.0  0.84009  0.33637  0.82626  1.0000
  H   H6625     1.0  0.84459  0.31950  0.79611  1.0000
  H   H6626     1.0  0.87268  0.31681  0.79583  1.0000
  H   H6627     1.0  0.85901  0.33931  0.83441  1.0000
  H   H6628     1.0  0.83104  0.34195  0.83465  1.0000
  C   C3870     1.0  0.72057  0.32574  0.82877  1.0000
  C   C3871     1.0  0.73653  0.31946  0.82384  1.0000
  C   C3872     1.0  0.74622  0.32877  0.81290  1.0000
  C   C3873     1.0  0.73991  0.34424  0.80648  1.0000
  C   C3874     1.0  0.72391  0.35051  0.81141  1.0000
  C   C3875     1.0  0.71425  0.34130  0.82263  1.0000
  H   H6629     1.0  0.74146  0.30745  0.82866  1.0000
  H   H6630     1.0  0.75850  0.32387  0.80931  1.0000
  H   H6631     1.0  0.71895  0.36248  0.80646  1.0000
  H   H6632     1.0  0.70189  0.34620  0.82639  1.0000
  C   C3876     1.0  0.82411  0.35005  0.90702  1.0000
  C   C3877     1.0  0.81837  0.36557  0.90027  1.0000
  C   C3878     1.0  0.82727  0.37301  0.88653  1.0000
  C   C3879     1.0  0.84178  0.36489  0.87940  1.0000
  C   C3880     1.0  0.84730  0.34924  0.88597  1.0000
  C   C3881     1.0  0.83852  0.34187  0.89984  1.0000
  H   H6633     1.0  0.85833  0.34283  0.88044  1.0000
  H   H6634     1.0  0.84276  0.32974  0.90487  1.0000
  C   C3882     1.0  0.73076  0.33690  0.91075  1.0000
  C   C3883     1.0  0.72632  0.32689  0.90440  1.0000
  C   C3884     1.0  0.71096  0.32997  0.90214  1.0000
  C   C3885     1.0  0.69987  0.34290  0.90657  1.0000
  C   C3886     1.0  0.70440  0.35303  0.91269  1.0000
  C   C3887     1.0  0.71987  0.35018  0.91452  1.0000
  H   H6635     1.0  0.73471  0.31658  0.90146  1.0000
  H   H6636     1.0  0.70754  0.32204  0.89751  1.0000
  H   H6637     1.0  0.69592  0.36316  0.91592  1.0000
  H   H6638     1.0  0.72345  0.35824  0.91879  1.0000
  H   H6639     1.0  0.96798  0.32923  0.81939  1.0000
  S   S1149     1.0  0.87147  0.46177  0.76443  1.0000
  C   C3888     1.0  0.84133  0.37892  0.81801  1.0000
  H   H6640     1.0  0.54657  0.35758  0.84740  1.0000
  H   H6641     1.0  0.51192  0.33752  0.89558  1.0000
  H   H6642     1.0  0.86941  0.48277  0.78355  1.0000
  H   H6643     1.0  0.50274  0.24792  0.90073  1.0000
  C   C3889     1.0  0.90143  0.38992  0.76507  1.0000
  C   C3890     1.0  0.90903  0.37536  0.77245  1.0000
  C   C3891     1.0  0.91327  0.37375  0.78652  1.0000
  C   C3892     1.0  0.91034  0.38680  0.79289  1.0000
  C   C3893     1.0  0.90203  0.40112  0.78595  1.0000
  C   C3894     1.0  0.89742  0.40263  0.77215  1.0000
  H   H6644     1.0  0.91188  0.36541  0.76718  1.0000
  H   H6645     1.0  0.91907  0.36249  0.79228  1.0000
  H   H6646     1.0  0.89895  0.41098  0.79136  1.0000
  H   H6647     1.0  0.89066  0.41365  0.76706  1.0000
  H   H6648     1.0  0.83717  0.30985  0.87492  1.0000
  H   H6649     1.0  0.85115  0.37033  0.82253  1.0000
  S   S1150     1.0  0.81966  0.36917  0.74292  1.0000
  S   S1151     1.0  0.62264  0.40548  0.94835  1.0000
  H   H6650     1.0  0.78538  0.33665  0.86920  1.0000
  H   H6651     1.0  0.75853  0.45350  0.90591  1.0000
  H   H6652     1.0  0.94696  0.35394  0.78537  1.0000
  C   C3895     1.0  0.51218  0.31417  0.90933  1.0000
  H   H6653     1.0  0.87667  0.35076  0.74079  1.0000
  H   H6654     1.0  0.61747  0.23810  0.77345  1.0000
  C   C3896     1.0  0.95588  0.40325  0.77816  1.0000
  H   H6655     1.0  0.58111  0.45293  0.94979  1.0000
  H   H6656     1.0  0.53802  0.27332  0.90194  1.0000
  C   C3897     1.0  0.95100  0.37230  0.82968  1.0000
  C   C3898     1.0  0.70430  0.42298  0.90703  1.0000
  C   C3899     1.0  0.70799  0.41305  0.92080  1.0000
  C   C3900     1.0  0.72374  0.40666  0.92172  1.0000
  C   C3901     1.0  0.73578  0.41056  0.90901  1.0000
  C   C3902     1.0  0.73204  0.42055  0.89529  1.0000
  C   C3903     1.0  0.71633  0.42659  0.89423  1.0000
  H   H6657     1.0  0.69873  0.41054  0.93082  1.0000
  H   H6658     1.0  0.72655  0.39942  0.93253  1.0000
  H   H6659     1.0  0.71349  0.43432  0.88360  1.0000
  C   C3904     1.0  0.66428  0.47234  0.88645  1.0000
  S   S1152     1.0  0.64056  0.42648  0.97004  1.0000
  C   C3905     1.0  0.65782  0.26680  0.84943  1.0000
  C   C3906     1.0  0.96273  0.35663  0.82811  1.0000
  H   H6660     1.0  0.69674  0.38339  0.93933  1.0000
  S   S1153     1.0  0.61022  0.25174  0.82124  1.0000
  C   C3907     1.0  0.50041  0.43779  0.87195  1.0000
  C   C3908     1.0  0.60048  0.39545  0.87393  1.0000
  C   C3909     1.0  0.60865  0.40699  0.86498  1.0000
  C   C3910     1.0  0.62393  0.40276  0.85621  1.0000
  C   C3911     1.0  0.63102  0.38700  0.85646  1.0000
  C   C3912     1.0  0.62254  0.37559  0.86490  1.0000
  C   C3913     1.0  0.60736  0.37979  0.87369  1.0000
  H   H6661     1.0  0.60330  0.41913  0.86500  1.0000
  H   H6662     1.0  0.63039  0.41164  0.84954  1.0000
  H   H6663     1.0  0.62763  0.36349  0.86458  1.0000
  H   H6664     1.0  0.60098  0.37085  0.88041  1.0000
  C   C3914     1.0  0.57697  0.43785  0.93772  1.0000
  C   C3915     1.0  0.58235  0.42358  0.93316  1.0000
  C   C3916     1.0  0.59613  0.41348  0.93690  1.0000
  C   C3917     1.0  0.60494  0.41791  0.94461  1.0000
  H   H6665     1.0  0.70548  0.27018  0.86251  1.0000
  C   C3918     1.0  0.58541  0.44202  0.94604  1.0000
  H   H6666     1.0  0.57579  0.42024  0.92685  1.0000
  H   H6667     1.0  0.60004  0.40235  0.93356  1.0000
  H   H6668     1.0  0.57948  0.47595  0.90064  1.0000
  C   C3919     1.0  0.98976  0.38416  0.90561  1.0000
  H   H6669     1.0  0.75318  0.44152  0.89656  1.0000
  H   H6670     1.0  0.68617  0.34588  0.96263  1.0000
  H   H6671     1.0  0.55220  0.48151  0.81260  1.0000
  C   C3920     1.0  0.50440  0.30470  0.92224  1.0000
  H   H6672     1.0  0.74714  0.48238  0.90784  1.0000
  H   H6673     1.0  0.61415  0.47128  0.90195  1.0000
  H   H6674     1.0  0.65443  0.25536  0.85438  1.0000
  H   H6675     1.0  0.67589  0.31270  0.81394  1.0000
  H   H6676     1.0  0.85378  0.47867  0.73472  1.0000
  H   H6677     1.0  0.73744  0.41173  0.97149  1.0000
  C   C3921     1.0  0.51096  0.41848  0.85592  1.0000
  H   H6678     1.0  0.90686  0.43595  0.79602  1.0000
  Fe  Fe578     1.0  0.89436  0.41804  0.73618  1.0000
  C   C3922     1.0  0.51561  0.43926  0.87108  1.0000
  C   C3923     1.0  0.52848  0.43020  0.86274  1.0000
  C   C3924     1.0  0.52614  0.42012  0.85490  1.0000
  C   C3925     1.0  0.95644  0.34816  0.79187  1.0000
  H   H6679     1.0  0.65139  0.27447  0.85765  1.0000
  H   H6680     1.0  0.54024  0.43118  0.86201  1.0000
  H   H6681     1.0  0.53612  0.41346  0.84810  1.0000
  H   H6682     1.0  0.83771  0.48101  0.75049  1.0000
  H   H6683     1.0  0.59233  0.31329  0.81834  1.0000
  H   H6684     1.0  0.60549  0.24689  0.73615  1.0000
  H   H6685     1.0  0.92635  0.47998  0.81510  1.0000
  C   C3926     1.0  0.97005  0.43677  0.72862  1.0000
  C   C3927     1.0  0.83276  0.31761  0.86466  1.0000
  H   H6686     1.0  0.51415  0.40711  0.88730  1.0000
  H   H6687     1.0  0.74133  0.42367  0.88550  1.0000
  H   H6688     1.0  0.78690  0.30983  0.86969  1.0000
  H   H6689     1.0  0.55714  0.25399  0.88780  1.0000
  S   S1154     1.0  0.98587  0.39002  0.82201  1.0000
  C   C3928     1.0  0.95095  0.41921  0.80944  1.0000
  H   H6690     1.0  0.72687  0.44180  0.95105  1.0000
  H   H6691     1.0  0.65084  0.47695  0.92100  1.0000
  H   H6692     1.0  0.83636  0.38696  0.82617  1.0000
  H   H6693     1.0  0.49736  0.30064  0.86803  1.0000
  H   H6694     1.0  0.71025  0.34006  0.95090  1.0000
  H   H6695     1.0  0.95756  0.35927  0.86698  1.0000
  H   H6696     1.0  0.52437  0.40406  0.90921  1.0000
  H   H6697     1.0  0.52273  0.30900  0.90197  1.0000
  H   H6698     1.0  0.67566  0.28368  0.88130  1.0000
  H   H6699     1.0  0.51629  0.24329  0.88370  1.0000
  S   S1155     1.0  0.58835  0.47706  0.86119  1.0000
  C   C3929     1.0  0.62308  0.29574  0.84186  1.0000
  C   C3930     1.0  0.63139  0.30759  0.83797  1.0000
  C   C3931     1.0  0.63523  0.31225  0.84959  1.0000
  C   C3932     1.0  0.63097  0.30497  0.86524  1.0000
  C   C3933     1.0  0.62214  0.29350  0.86919  1.0000
  C   C3934     1.0  0.61820  0.28889  0.85755  1.0000
  H   H6700     1.0  0.63500  0.31312  0.82588  1.0000
  H   H6701     1.0  0.64164  0.32135  0.84636  1.0000
  H   H6702     1.0  0.61870  0.28786  0.88127  1.0000
  H   H6703     1.0  0.61177  0.27977  0.86073  1.0000
  C   C3935     1.0  0.53685  0.29497  0.85680  1.0000
  C   C3936     1.0  0.52775  0.30457  0.86708  1.0000
  C   C3937     1.0  0.51769  0.31862  0.86177  1.0000
  C   C3938     1.0  0.51623  0.32271  0.84628  1.0000
  C   C3939     1.0  0.52522  0.31302  0.83604  1.0000
  C   C3940     1.0  0.53571  0.29927  0.84123  1.0000
  H   H6704     1.0  0.52854  0.30109  0.87915  1.0000
  H   H6705     1.0  0.51074  0.32602  0.86975  1.0000
  H   H6706     1.0  0.52412  0.31618  0.82403  1.0000
  H   H6707     1.0  0.83203  0.37290  0.81874  1.0000
  C   C3941     1.0  0.60353  0.23527  0.73669  1.0000
  H   H6708     1.0  0.70389  0.26980  0.82937  1.0000
  C   C3942     1.0  0.69899  0.46155  0.91618  1.0000
  C   C3943     1.0  0.91123  0.43980  0.78332  1.0000
  H   H6709     1.0  0.98906  0.40656  0.79015  1.0000
  H   H6710     1.0  0.57236  0.35016  0.84723  1.0000
  H   H6711     1.0  0.72349  0.43692  0.92018  1.0000
  H   H6712     1.0  0.93586  0.45584  0.75844  1.0000
  H   H6713     1.0  0.94430  0.35497  0.81304  1.0000
  H   H6714     1.0  0.98591  0.33118  0.83471  1.0000
  C   C3944     1.0  0.52631  0.25029  0.89929  1.0000
  N   N279      1.0  0.73776  0.35475  0.85546  1.0000
  C   C3945     1.0  0.72713  0.37075  0.85250  1.0000
  C   C3946     1.0  0.74346  0.35322  0.86993  1.0000
  C   C3947     1.0  0.72787  0.34296  0.85867  1.0000
  C   C3948     1.0  0.75083  0.35327  0.84121  1.0000
  C   C3949     1.0  0.71934  0.37486  0.83844  1.0000
  C   C3950     1.0  0.75358  0.36468  0.86881  1.0000
  C   C3951     1.0  0.73618  0.32564  0.86197  1.0000
  C   C3952     1.0  0.76592  0.34059  0.84331  1.0000
  H   H6715     1.0  0.71751  0.37240  0.86296  1.0000
  H   H6716     1.0  0.73370  0.38001  0.85034  1.0000
  H   H6717     1.0  0.75025  0.34139  0.87388  1.0000
  H   H6718     1.0  0.73326  0.35489  0.87987  1.0000
  H   H6719     1.0  0.71782  0.34476  0.86873  1.0000
  H   H6720     1.0  0.72264  0.34443  0.84863  1.0000
  H   H6721     1.0  0.74644  0.35112  0.83196  1.0000
  H   H6722     1.0  0.75466  0.36453  0.83607  1.0000
  H   H6723     1.0  0.71027  0.36815  0.84039  1.0000
  H   H6724     1.0  0.71314  0.38733  0.83674  1.0000
  H   H6725     1.0  0.72800  0.37344  0.82743  1.0000
  H   H6726     1.0  0.74636  0.37662  0.86906  1.0000
  H   H6727     1.0  0.75887  0.36094  0.87921  1.0000
  H   H6728     1.0  0.76329  0.36500  0.85837  1.0000
  H   H6729     1.0  0.72724  0.31851  0.86485  1.0000
  H   H6730     1.0  0.74175  0.32222  0.87207  1.0000
  H   H6731     1.0  0.74475  0.32240  0.85151  1.0000
  H   H6732     1.0  0.76938  0.33406  0.83385  1.0000
  H   H6733     1.0  0.76495  0.33186  0.85437  1.0000
  H   H6734     1.0  0.77590  0.34603  0.84183  1.0000
  N   N280      1.0  0.52521  0.38470  0.89938  1.0000
  C   C3953     1.0  0.51144  0.39548  0.89299  1.0000
  C   C3954     1.0  0.53951  0.38506  0.88619  1.0000
  C   C3955     1.0  0.51501  0.24200  0.89638  1.0000
  C   C3956     1.0  0.52159  0.36872  0.90554  1.0000
  H   H6735     1.0  0.60514  0.24823  0.76021  1.0000
  C   C3957     1.0  0.53951  0.37833  0.87249  1.0000
  H   H6736     1.0  0.74683  0.45829  0.92908  1.0000
  H   H6737     1.0  0.90207  0.46439  0.74560  1.0000
  H   H6738     1.0  0.93012  0.43277  0.76453  1.0000
  H   H6739     1.0  0.50897  0.39113  0.88390  1.0000
  H   H6740     1.0  0.55050  0.37863  0.89011  1.0000
  H   H6741     1.0  0.54117  0.39725  0.88140  1.0000
  H   H6742     1.0  0.96768  0.34742  0.78322  1.0000
  C   C3958     1.0  0.88454  0.47250  0.76462  1.0000
  H   H6743     1.0  0.94903  0.39819  0.78953  1.0000
  H   H6744     1.0  0.51709  0.36532  0.89709  1.0000
  C   C3959     1.0  0.98842  0.36243  0.78636  1.0000
  H   H6745     1.0  0.70895  0.48043  0.91561  1.0000
  C   C3960     1.0  0.73539  0.46615  0.92727  1.0000
  H   H6746     1.0  0.55082  0.37875  0.86390  1.0000
  H   H6747     1.0  0.53849  0.36599  0.87626  1.0000
  H   H6748     1.0  0.53017  0.38531  0.86619  1.0000
  H   H6749     1.0  0.54239  0.39027  0.92704  1.0000
  H   H6750     1.0  0.82921  0.32625  0.73206  1.0000
  H   H6751     1.0  0.74961  0.39210  0.97319  1.0000
  C   C3961     1.0  0.59962  0.43222  0.94916  1.0000
  H   H6752     1.0  0.53207  0.24321  0.92793  1.0000
  H   H6753     1.0  0.92073  0.47933  0.74595  1.0000
  H   H6754     1.0  0.72988  0.33677  0.95273  1.0000
  S   S1156     1.0  0.98985  0.38121  0.86636  1.0000
  H   H6755     1.0  0.95987  0.40915  0.80569  1.0000
  C   C3962     1.0  0.69943  0.27518  0.83974  1.0000
  C   C3963     1.0  0.78834  0.31347  0.73790  1.0000
  C   C3964     1.0  0.73404  0.46135  0.90217  1.0000
  H   H6756     1.0  0.56530  0.23509  0.87473  1.0000
  C   C3965     1.0  0.79321  0.37879  0.73065  1.0000
  H   H6757     1.0  0.96818  0.39652  0.77759  1.0000
  C   C3966     1.0  0.69563  0.37154  0.96350  1.0000
  C   C3967     1.0  0.92730  0.42960  0.77748  1.0000
  H   H6758     1.0  0.68103  0.26586  0.87509  1.0000
  H   H6759     1.0  0.93234  0.45366  0.78814  1.0000
  H   H6760     1.0  0.95748  0.42542  0.76336  1.0000
  C   C3968     1.0  0.61619  0.23941  0.76140  1.0000
  C   C3969     1.0  0.71338  0.34618  0.97202  1.0000
  H   H6761     1.0  0.54805  0.37358  0.91862  1.0000
  C   C3970     1.0  0.79355  0.28642  0.72677  1.0000
  C   C3971     1.0  0.73844  0.48252  0.91904  1.0000
  C   C3972     1.0  0.68179  0.47323  0.96101  1.0000
  C   C3973     1.0  0.80004  0.28611  0.73919  1.0000
  H   H6762     1.0  0.88923  0.37300  0.73102  1.0000
  H   H6763     1.0  0.72287  0.42516  0.94756  1.0000
  H   H6764     1.0  0.96908  0.36276  0.91982  1.0000
  H   H6765     1.0  0.96602  0.42191  0.77917  1.0000
  H   H6766     1.0  0.52655  0.45213  0.83244  1.0000
  H   H6767     1.0  0.55762  0.27098  0.90353  1.0000
  C   C3974     1.0  0.98394  0.36181  0.93577  1.0000
  N   N281      1.0  0.64425  0.39123  0.90499  1.0000
  C   C3975     1.0  0.63126  0.38296  0.91444  1.0000
  C   C3976     1.0  0.63732  0.40851  0.90303  1.0000
  C   C3977     1.0  0.65674  0.38685  0.91434  1.0000
  C   C3978     1.0  0.65061  0.38605  0.88970  1.0000
  C   C3979     1.0  0.63611  0.36508  0.91970  1.0000
  C   C3980     1.0  0.62324  0.41461  0.89506  1.0000
  C   C3981     1.0  0.67115  0.39422  0.90713  1.0000
  C   C3982     1.0  0.65907  0.39710  0.87591  1.0000
  H   H6768     1.0  0.62533  0.38753  0.92518  1.0000
  H   H6769     1.0  0.62198  0.38514  0.90781  1.0000
  H   H6770     1.0  0.64608  0.41557  0.89636  1.0000
  H   H6771     1.0  0.63334  0.41181  0.91456  1.0000
  H   H6772     1.0  0.65153  0.38973  0.92603  1.0000
  H   H6773     1.0  0.66166  0.37409  0.91654  1.0000
  H   H6774     1.0  0.65884  0.37446  0.89129  1.0000
  H   H6775     1.0  0.64088  0.38436  0.88556  1.0000
  H   H6776     1.0  0.64220  0.36173  0.92948  1.0000
  H   H6777     1.0  0.62540  0.36020  0.92405  1.0000
  H   H6778     1.0  0.64359  0.35950  0.91008  1.0000
  H   H6779     1.0  0.62566  0.41053  0.88417  1.0000
  H   H6780     1.0  0.61245  0.41119  0.90292  1.0000
  H   H6781     1.0  0.62066  0.42755  0.89205  1.0000
  H   H6782     1.0  0.66806  0.40712  0.90437  1.0000
  H   H6783     1.0  0.67841  0.38964  0.89677  1.0000
  H   H6784     1.0  0.67874  0.39078  0.91570  1.0000
  H   H6785     1.0  0.66879  0.38993  0.86875  1.0000
  H   H6786     1.0  0.66430  0.40501  0.87907  1.0000
  H   H6787     1.0  0.65110  0.40397  0.86798  1.0000
  N   N282      1.0  0.57014  0.32852  0.84367  1.0000
  C   C3983     1.0  0.55241  0.33243  0.84730  1.0000
  C   C3984     1.0  0.57524  0.31107  0.84895  1.0000
  C   C3985     1.0  0.54448  0.34957  0.84144  1.0000
  C   C3986     1.0  0.57130  0.30454  0.86668  1.0000
  H   H6788     1.0  0.54752  0.32963  0.86004  1.0000
  H   H6789     1.0  0.56908  0.33621  0.86450  1.0000
  H   H6790     1.0  0.53159  0.35056  0.84411  1.0000
  H   H6791     1.0  0.57520  0.34625  0.82274  1.0000
  H   H6792     1.0  0.54797  0.35357  0.82865  1.0000
  H   H6793     1.0  0.55850  0.30634  0.87156  1.0000
  H   H6794     1.0  0.57596  0.29172  0.86898  1.0000
  H   H6795     1.0  0.57695  0.30936  0.87302  1.0000
  H   H6796     1.0  0.68114  0.25835  0.83700  1.0000
  H   H6797     1.0  0.87038  0.39694  0.73228  1.0000
  H   H6798     1.0  0.68689  0.46868  0.91889  1.0000
  N   N283      1.0  0.74525  0.31391  0.76728  1.0000
  C   C3987     1.0  0.75189  0.30008  0.75960  1.0000
  C   C3988     1.0  0.75657  0.31360  0.77677  1.0000
  C   C3989     1.0  0.74412  0.32862  0.75466  1.0000
  C   C3990     1.0  0.72925  0.31221  0.77715  1.0000
  C   C3991     1.0  0.74436  0.29996  0.74644  1.0000
  C   C3992     1.0  0.75903  0.29911  0.79002  1.0000
  C   C3993     1.0  0.74337  0.34401  0.75899  1.0000
  C   C3994     1.0  0.72060  0.32418  0.78736  1.0000
  H   H6799     1.0  0.76466  0.29900  0.75458  1.0000
  H   H6800     1.0  0.75095  0.28894  0.76827  1.0000
  H   H6801     1.0  0.75312  0.32383  0.78216  1.0000
  H   H6802     1.0  0.76833  0.31448  0.76907  1.0000
  H   H6803     1.0  0.75452  0.32748  0.74487  1.0000
  H   H6804     1.0  0.73373  0.33051  0.74961  1.0000
  H   H6805     1.0  0.72117  0.31296  0.76968  1.0000
  H   H6806     1.0  0.72960  0.30036  0.78479  1.0000
  H   H6807     1.0  0.74659  0.30951  0.73612  1.0000
  H   H6808     1.0  0.74989  0.28893  0.74233  1.0000
  H   H6809     1.0  0.73160  0.30042  0.75038  1.0000
  H   H6810     1.0  0.74795  0.29788  0.79870  1.0000
  H   H6811     1.0  0.76450  0.28830  0.78556  1.0000
  H   H6812     1.0  0.76732  0.30042  0.79624  1.0000
  H   H6813     1.0  0.75465  0.34414  0.76138  1.0000
  H   H6814     1.0  0.73374  0.34672  0.76891  1.0000
  H   H6815     1.0  0.74141  0.35380  0.74889  1.0000
  H   H6816     1.0  0.72848  0.32845  0.79159  1.0000
  N   N284      1.0  0.85290  0.37950  0.78859  1.0000
  C   C3995     1.0  0.84658  0.38849  0.80143  1.0000
  C   C3996     1.0  0.85681  0.39093  0.77344  1.0000
  C   C3997     1.0  0.86791  0.36832  0.79186  1.0000
  C   C3998     1.0  0.84081  0.37093  0.78873  1.0000
  C   C3999     1.0  0.84330  0.40484  0.76945  1.0000
  C   C4000     1.0  0.87691  0.35797  0.78013  1.0000
  C   C4001     1.0  0.84090  0.36718  0.77329  1.0000
  H   H6817     1.0  0.85538  0.39470  0.80186  1.0000
  H   H6818     1.0  0.83599  0.39766  0.79928  1.0000
  H   H6819     1.0  0.86113  0.38512  0.76344  1.0000
  H   H6820     1.0  0.86670  0.39593  0.77341  1.0000
  H   H6821     1.0  0.87627  0.37477  0.79278  1.0000
  H   H6822     1.0  0.86571  0.36006  0.80322  1.0000
  H   H6823     1.0  0.84187  0.35971  0.79748  1.0000
  H   H6824     1.0  0.82868  0.37763  0.79255  1.0000
  H   H6825     1.0  0.83194  0.40136  0.77203  1.0000
  H   H6826     1.0  0.84199  0.41401  0.77581  1.0000
  H   H6827     1.0  0.84614  0.41027  0.75686  1.0000
  H   H6828     1.0  0.88826  0.35149  0.78339  1.0000
  H   H6829     1.0  0.87986  0.36467  0.76804  1.0000
  H   H6830     1.0  0.87062  0.34893  0.78087  1.0000
  H   H6831     1.0  0.83670  0.37780  0.76486  1.0000
  H   H6832     1.0  0.83258  0.35947  0.77567  1.0000
  H   H6833     1.0  0.85244  0.36092  0.76778  1.0000
  H   H6834     1.0  0.98187  0.33351  0.80181  1.0000
  C   C4002     1.0  0.97679  0.33656  0.81335  1.0000
  C   C4003     1.0  0.54771  0.26497  0.90699  1.0000
  N   N285      1.0  0.96886  0.35360  0.81187  1.0000
  N   N286      1.0  0.88391  0.34432  0.91143  1.0000
  C   C4004     1.0  0.87727  0.33037  0.91311  1.0000
  C   C4005     1.0  0.87341  0.35294  0.92374  1.0000
  C   C4006     1.0  0.90014  0.33824  0.91474  1.0000
  C   C4007     1.0  0.88450  0.35401  0.89508  1.0000
  C   C4008     1.0  0.88606  0.31942  0.90181  1.0000
  C   C4009     1.0  0.85632  0.36007  0.92181  1.0000
  C   C4010     1.0  0.90955  0.35043  0.91318  1.0000
  C   C4011     1.0  0.88556  0.37124  0.89222  1.0000
  H   H6835     1.0  0.87648  0.32306  0.92516  1.0000
  H   H6836     1.0  0.86511  0.33414  0.91130  1.0000
  H   H6837     1.0  0.87816  0.36243  0.92472  1.0000
  H   H6838     1.0  0.87282  0.34503  0.93549  1.0000
  H   H6839     1.0  0.89962  0.33069  0.92666  1.0000
  H   H6840     1.0  0.90770  0.33074  0.90663  1.0000
  H   H6841     1.0  0.89460  0.34842  0.88688  1.0000
  H   H6842     1.0  0.87399  0.35423  0.89097  1.0000
  H   H6843     1.0  0.89768  0.31277  0.90420  1.0000
  H   H6844     1.0  0.87911  0.31063  0.90336  1.0000
  H   H6845     1.0  0.88737  0.32571  0.88948  1.0000
  H   H6846     1.0  0.85053  0.36820  0.92980  1.0000
  H   H6847     1.0  0.85556  0.36682  0.90986  1.0000
  H   H6848     1.0  0.84929  0.35102  0.92514  1.0000
  H   H6849     1.0  0.91280  0.35660  0.90089  1.0000
  H   H6850     1.0  0.92082  0.34428  0.91675  1.0000
  H   H6851     1.0  0.90353  0.35882  0.92078  1.0000
  H   H6852     1.0  0.89591  0.37350  0.88278  1.0000
  H   H6853     1.0  0.88681  0.37491  0.90222  1.0000
  H   H6854     1.0  0.87511  0.37914  0.88805  1.0000
  H   H6855     1.0  0.66082  0.27673  0.87822  1.0000
  C   C4012     1.0  0.75164  0.45371  0.89760  1.0000
  C   C4013     1.0  0.57550  0.33741  0.85210  1.0000
  C   C4014     1.0  0.57564  0.33349  0.82623  1.0000
  H   H6856     1.0  0.59547  0.33164  0.80650  1.0000
  H   H6857     1.0  0.58805  0.30683  0.84517  1.0000
  H   H6858     1.0  0.74121  0.43611  0.92496  1.0000
  S   S1157     1.0  0.75541  0.40466  0.91067  1.0000
  H   H6859     1.0  0.80721  0.37192  0.90576  1.0000
  H   H6860     1.0  0.54799  0.32522  0.84218  1.0000
  S   S1158     1.0  0.49904  0.24617  0.94931  1.0000
  H   H6861     1.0  0.82292  0.38510  0.88145  1.0000
  H   H6862     1.0  0.83898  0.31210  0.85458  1.0000
  H   H6863     1.0  0.56991  0.30500  0.84341  1.0000
  H   H6864     1.0  0.70504  0.46811  0.93411  1.0000
  C   C4015     1.0  0.94254  0.44656  0.78134  1.0000
  C   C4016     1.0  0.57895  0.24073  0.79053  1.0000
  S   S1159     1.0  0.77109  0.33647  0.94396  1.0000
  Fe  Fe579     1.0  0.66624  0.41569  0.96446  1.0000
  H   H6865     1.0  0.56764  0.33146  0.82002  1.0000
  H   H6866     1.0  0.83618  0.32895  0.86203  1.0000
  H   H6867     1.0  0.53459  0.35401  0.92330  1.0000
  N   N287      1.0  0.72707  0.45945  0.91937  1.0000
  C   C4017     1.0  0.50611  0.33029  0.90578  1.0000
  C   C4018     1.0  0.54332  0.38630  0.91634  1.0000
  H   H6868     1.0  0.81993  0.31434  0.89711  1.0000
  H   H6869     1.0  0.82037  0.33911  0.88217  1.0000
  H   H6870     1.0  0.79373  0.35800  0.86513  1.0000
  H   H6871     1.0  0.52026  0.47153  0.84781  1.0000
  S   S1160     1.0  0.77614  0.37166  0.94151  1.0000
  H   H6872     1.0  0.59946  0.34094  0.84121  1.0000
  H   H6873     1.0  0.97432  0.37645  0.80235  1.0000
  C   C4019     1.0  0.67554  0.28765  0.85678  1.0000
  H   H6874     1.0  0.80134  0.30856  0.92064  1.0000
  H   H6875     1.0  0.98025  0.37419  0.93657  1.0000
  H   H6876     1.0  0.70215  0.46226  0.90346  1.0000
  C   C4020     1.0  0.80836  0.31410  0.89531  1.0000
  C   C4021     1.0  0.81491  0.31958  0.86674  1.0000
  C   C4022     1.0  0.80817  0.34093  0.88089  1.0000
  C   C4023     1.0  0.80603  0.35429  0.86655  1.0000
  H   H6877     1.0  0.80957  0.30196  0.89427  1.0000
  H   H6878     1.0  0.79395  0.32841  0.91236  1.0000
  H   H6879     1.0  0.81393  0.35126  0.85573  1.0000
  C   C4024     1.0  0.69815  0.37125  0.94628  1.0000
  C   C4025     1.0  0.59219  0.32534  0.81875  1.0000
  C   C4026     1.0  0.67329  0.27758  0.87355  1.0000
  H   H6880     1.0  0.94997  0.37456  0.84126  1.0000
  C   C4027     1.0  0.95887  0.42792  0.73129  1.0000
  N   N288      1.0  0.80477  0.32576  0.88076  1.0000
  C   C4028     1.0  0.79643  0.31640  0.91066  1.0000
  H   H6881     1.0  0.81151  0.32703  0.85579  1.0000
  H   H6882     1.0  0.81313  0.30789  0.86724  1.0000
  H   H6883     1.0  0.80070  0.34552  0.89115  1.0000
  H   H6884     1.0  0.80916  0.36459  0.86812  1.0000
  S   S1161     1.0  0.74255  0.36677  0.93772  1.0000
  H   H6885     1.0  0.60135  0.32507  0.82467  1.0000
  H   H6886     1.0  0.68131  0.31115  0.83170  1.0000
  S   S1162     1.0  0.97269  0.34584  0.89357  1.0000
  H   H6887     1.0  0.71313  0.31861  0.79809  1.0000
  C   C4029     1.0  0.99021  0.33068  0.82225  1.0000
  H   H6888     1.0  0.52941  0.25880  0.88822  1.0000
  H   H6889     1.0  0.78517  0.31344  0.91142  1.0000
  H   H6890     1.0  0.57767  0.46945  0.81943  1.0000
  C   C4030     1.0  0.67638  0.28970  0.82923  1.0000
  C   C4031     1.0  0.55309  0.25003  0.90048  1.0000
  H   H6891     1.0  0.51162  0.36874  0.91584  1.0000
  H   H6892     1.0  0.70408  0.25296  0.85700  1.0000
  H   H6893     1.0  0.55187  0.39221  0.90705  1.0000
  H   H6894     1.0  0.97253  0.35639  0.83326  1.0000
  C   C4032     1.0  0.83216  0.47573  0.73150  1.0000
  C   C4033     1.0  0.78779  0.32845  0.88017  1.0000
  S   S1163     1.0  0.87031  0.43294  0.74116  1.0000
  H   H6895     1.0  0.66338  0.29355  0.83160  1.0000
  C   C4034     1.0  0.57333  0.24098  0.77761  1.0000
  H   H6896     1.0  0.52350  0.47076  0.81973  1.0000
  H   H6897     1.0  0.78700  0.37351  0.74187  1.0000
  H   H6898     1.0  0.71024  0.36533  0.94179  1.0000
  H   H6899     1.0  0.70702  0.44172  0.97628  1.0000
  H   H6900     1.0  0.94672  0.41556  0.82221  1.0000
  C   C4035     1.0  0.95507  0.35734  0.80422  1.0000
  H   H6901     1.0  0.67956  0.28335  0.81962  1.0000
  H   H6902     1.0  0.70837  0.44291  0.94642  1.0000
  C   C4036     1.0  0.93696  0.42362  0.80143  1.0000
  H   H6903     1.0  0.69513  0.30237  0.81640  1.0000
  C   C4037     1.0  0.70751  0.26437  0.85276  1.0000
  C   C4038     1.0  0.79740  0.29961  0.74487  1.0000
  H   H6904     1.0  0.95682  0.34725  0.83598  1.0000
  H   H6905     1.0  0.73198  0.47382  0.89598  1.0000
  H   H6906     1.0  0.65381  0.27162  0.83830  1.0000
  C   C4039     1.0  0.78213  0.31380  0.88082  1.0000
  H   H6907     1.0  0.77997  0.33420  0.88966  1.0000
  H   H6908     1.0  0.72040  0.26190  0.84807  1.0000
  C   C4040     1.0  0.89902  0.47155  0.75402  1.0000
  H   H6909     1.0  0.65785  0.47311  0.87748  1.0000
  H   H6910     1.0  0.97994  0.36600  0.77872  1.0000
  C   C4041     1.0  0.68266  0.30478  0.82259  1.0000
  H   H6911     1.0  0.69839  0.44943  0.92243  1.0000
  H   H6912     1.0  0.78622  0.32394  0.74205  1.0000
  H   H6913     1.0  0.78510  0.30401  0.89053  1.0000
  H   H6914     1.0  0.93597  0.47712  0.83038  1.0000
  H   H6915     1.0  0.68947  0.36618  0.94403  1.0000
  H   H6916     1.0  0.95662  0.42908  0.80739  1.0000
  H   H6917     1.0  0.58773  0.46546  0.91682  1.0000
  N   N289      1.0  0.94056  0.43011  0.78409  1.0000
  C   C4042     1.0  0.53483  0.35520  0.91084  1.0000
  H   H6918     1.0  0.95210  0.37000  0.79889  1.0000
  H   H6919     1.0  0.95466  0.38238  0.82089  1.0000
  H   H6920     1.0  0.75701  0.46050  0.88626  1.0000
  H   H6921     1.0  0.72853  0.46704  0.93926  1.0000
  C   C4043     1.0  0.72864  0.44231  0.92642  1.0000
  C   C4044     1.0  0.71009  0.46796  0.92166  1.0000
  H   H6922     1.0  0.54513  0.24132  0.87255  1.0000
  C   C4045     1.0  0.58816  0.47594  0.90717  1.0000
  Fe  Fe580     1.0  0.98810  0.48228  0.74724  1.0000
  C   C4046     1.0  0.94508  0.45566  0.76425  1.0000
  H   H6923     1.0  0.53305  0.34417  0.90943  1.0000
  H   H6924     1.0  0.95946  0.41697  0.73974  1.0000
  H   H6925     1.0  0.95283  0.44665  0.78564  1.0000
  Fe  Fe581     1.0  0.59809  0.24031  0.84479  1.0000
  C   C4047     1.0  0.95545  0.42070  0.77609  1.0000
  H   H6926     1.0  0.92559  0.41747  0.78026  1.0000
  H   H6927     1.0  0.56416  0.45806  0.83197  1.0000
  H   H6928     1.0  0.83570  0.46296  0.73595  1.0000
  C   C4048     1.0  0.53817  0.23374  0.92152  1.0000
  H   H6929     1.0  0.63297  0.23659  0.72974  1.0000
  H   H6930     1.0  0.94478  0.46798  0.76391  1.0000
  H   H6931     1.0  0.67542  0.46358  0.88414  1.0000
  C   C4049     1.0  0.98024  0.36398  0.80314  1.0000
  H   H6932     1.0  0.98484  0.35534  0.94786  1.0000
  H   H6933     1.0  0.97847  0.38497  0.90262  1.0000
  H   H6934     1.0  0.97123  0.34496  0.93453  1.0000
  C   C4050     1.0  0.53146  0.46274  0.82716  1.0000
  H   H6935     1.0  0.95899  0.36257  0.93961  1.0000
  H   H6936     1.0  0.56947  0.47879  0.93393  1.0000
  H   H6937     1.0  0.70417  0.28588  0.83659  1.0000
  H   H6938     1.0  0.95474  0.33615  0.79755  1.0000
  H   H6939     1.0  0.59873  0.23340  0.87978  1.0000
  C   C4051     1.0  0.60444  0.47288  0.89615  1.0000
  C   C4052     1.0  0.71773  0.33634  0.95949  1.0000
  H   H6940     1.0  0.60633  0.43560  0.95526  1.0000
  H   H6941     1.0  0.67276  0.35596  0.97631  1.0000
  H   H6942     1.0  0.98960  0.36211  0.80955  1.0000
  S   S1164     1.0  0.63925  0.47177  0.95653  1.0000
  C   C4053     1.0  0.90961  0.47998  0.75423  1.0000
  C   C4054     1.0  0.68463  0.34812  0.97429  1.0000
  H   H6943     1.0  0.67930  0.25584  0.85707  1.0000
  H   H6944     1.0  0.54718  0.47738  0.85660  1.0000
  H   H6945     1.0  0.65782  0.46753  0.89813  1.0000
  H   H6946     1.0  0.81928  0.47917  0.73570  1.0000
  C   C4055     1.0  0.86788  0.35336  0.73355  1.0000
  H   H6947     1.0  0.68385  0.37915  0.96664  1.0000
  H   H6948     1.0  0.53950  0.46041  0.84785  1.0000
  H   H6949     1.0  0.72209  0.35363  0.96893  1.0000
  H   H6950     1.0  0.70430  0.37787  0.96382  1.0000
  H   H6951     1.0  0.72887  0.39525  0.97624  1.0000
  C   C4056     1.0  0.86082  0.37105  0.72964  1.0000
  H   H6952     1.0  0.98748  0.39003  0.91527  1.0000
  C   C4057     1.0  0.53231  0.46971  0.84037  1.0000
  H   H6953     1.0  0.60547  0.48208  0.88536  1.0000
  H   H6954     1.0  0.61010  0.47993  0.93815  1.0000
  C   C4058     1.0  0.49570  0.39836  0.90487  1.0000
  C   C4059     1.0  0.88061  0.48203  0.77534  1.0000
  H   H6955     1.0  0.78171  0.34931  0.97612  1.0000
  H   H6956     1.0  0.63546  0.48286  0.91030  1.0000
  C   C4060     1.0  0.55369  0.48297  0.82375  1.0000
  C   C4061     1.0  0.71668  0.54641  0.98928  1.0000
  Fe  Fe582     1.0  0.76621  0.63709  0.06968  1.0000
  S   S1165     1.0  0.78045  0.61419  0.07985  1.0000
  S   S1166     1.0  0.74483  0.65129  0.08288  1.0000
  Fe  Fe583     1.0  0.78716  0.63789  0.03742  1.0000
  S   S1167     1.0  0.80352  0.61517  0.04486  1.0000
  S   S1168     1.0  0.78749  0.65233  0.01303  1.0000
  Fe  Fe584     1.0  0.78144  0.60717  0.05804  1.0000
  S   S1169     1.0  0.77842  0.58380  0.05762  1.0000
  Fe  Fe585     1.0  0.80140  0.62406  0.06613  1.0000
  S   S1170     1.0  0.82066  0.61711  0.07955  1.0000
  S   S1171     1.0  0.76517  0.62910  0.04906  1.0000
  S   S1172     1.0  0.78709  0.64770  0.05751  1.0000
  H   H6957     1.0  0.77547  0.65939  0.98535  1.0000
  H   H6958     1.0  0.70051  0.53019  0.13949  1.0000
  H   H6959     1.0  0.65199  0.72189  0.15890  1.0000
  Fe  Fe586     1.0  0.70482  0.63685  0.16875  1.0000
  H   H6960     1.0  0.81799  0.57587  0.05909  1.0000
  S   S1173     1.0  0.72613  0.62344  0.15482  1.0000
  Fe  Fe587     1.0  0.68198  0.66692  0.17392  1.0000
  H   H6961     1.0  0.97462  0.66259  0.13170  1.0000
  S   S1174     1.0  0.70583  0.65592  0.17918  1.0000
  S   S1175     1.0  0.68224  0.64914  0.16109  1.0000
  H   H6962     1.0  0.64529  0.52638  0.05224  1.0000
  C   C4062     1.0  0.51545  0.72870  0.17187  1.0000
  C   C4063     1.0  0.52954  0.73053  0.17388  1.0000
  S   S1176     1.0  0.83554  0.65397  0.14452  1.0000
  S   S1177     1.0  0.87215  0.64409  0.12459  1.0000
  Fe  Fe588     1.0  0.85005  0.66193  0.12092  1.0000
  S   S1178     1.0  0.84010  0.66897  0.09934  1.0000
  Fe  Fe589     1.0  0.85817  0.63772  0.14885  1.0000
  S   S1179     1.0  0.85913  0.61329  0.16257  1.0000
  H   H6963     1.0  0.72818  0.53871  0.98872  1.0000
  Fe  Fe590     1.0  0.69686  0.57467  0.06393  1.0000
  S   S1180     1.0  0.69362  0.58329  0.03931  1.0000
  S   S1181     1.0  0.70553  0.58737  0.07643  1.0000
  Fe  Fe591     1.0  0.68404  0.54604  0.06948  1.0000
  S   S1182     1.0  0.67966  0.55194  0.04546  1.0000
  S   S1183     1.0  0.67916  0.52407  0.08634  1.0000
  Fe  Fe592     1.0  0.70306  0.55822  0.03775  1.0000
  S   S1184     1.0  0.71957  0.54959  0.01714  1.0000
  Fe  Fe593     1.0  0.67042  0.57630  0.04922  1.0000
  S   S1185     1.0  0.64829  0.58981  0.04125  1.0000
  S   S1186     1.0  0.70840  0.55017  0.06156  1.0000
  S   S1187     1.0  0.67280  0.56980  0.07404  1.0000
  S   S1188     1.0  0.70067  0.63826  0.22385  1.0000
  S   S1189     1.0  0.58094  0.57682  0.14085  1.0000
  Fe  Fe594     1.0  0.59597  0.58957  0.12025  1.0000
  S   S1190     1.0  0.58934  0.59635  0.09703  1.0000
  C   C4064     1.0  0.93340  0.66662  0.15154  1.0000
  C   C4065     1.0  0.65909  0.52535  0.06839  1.0000
  H   H6964     1.0  0.80807  0.62284  0.00829  1.0000
  H   H6965     1.0  0.75737  0.68591  0.19254  1.0000
  H   H6966     1.0  0.68783  0.56371  0.10117  1.0000
  H   H6967     1.0  0.52907  0.48414  0.14597  1.0000
  H   H6968     1.0  0.62329  0.59899  0.16725  1.0000
  H   H6969     1.0  0.63268  0.52757  0.09570  1.0000
  H   H6970     1.0  0.69780  0.67164  0.21122  1.0000
  C   C4066     1.0  0.63198  0.59218  0.05674  1.0000
  C   C4067     1.0  0.63379  0.59267  0.07128  1.0000
  C   C4068     1.0  0.62070  0.59409  0.08368  1.0000
  C   C4069     1.0  0.60577  0.59505  0.08155  1.0000
  C   C4070     1.0  0.60389  0.59503  0.06691  1.0000
  C   C4071     1.0  0.61697  0.59362  0.05452  1.0000
  H   H6971     1.0  0.64518  0.59240  0.07287  1.0000
  H   H6972     1.0  0.62216  0.59475  0.09476  1.0000
  H   H6973     1.0  0.59234  0.59591  0.06518  1.0000
  H   H6974     1.0  0.61551  0.59341  0.04325  1.0000
  H   H6975     1.0  0.65567  0.53776  0.06789  1.0000
  C   C4072     1.0  0.61627  0.54317  0.08259  1.0000
  Fe  Fe595     1.0  0.98708  0.62714  0.19764  1.0000
  C   C4073     1.0  0.69493  0.56351  0.00261  1.0000
  C   C4074     1.0  0.70968  0.55336  0.00208  1.0000
  H   H6976     1.0  0.66952  0.49764  0.01607  1.0000
  H   H6977     1.0  0.93196  0.56780  0.21343  1.0000
  H   H6978     1.0  0.70507  0.50795  0.05971  1.0000
  H   H6979     1.0  0.68947  0.56904  0.01239  1.0000
  H   H6980     1.0  0.68973  0.48368  0.98788  1.0000
  H   H6981     1.0  0.66852  0.48881  0.99243  1.0000
  C   C4075     1.0  0.87104  0.61078  0.17553  1.0000
  C   C4076     1.0  0.86656  0.60352  0.19111  1.0000
  C   C4077     1.0  0.87501  0.60328  0.20187  1.0000
  C   C4078     1.0  0.65708  0.61107  0.14822  1.0000
  C   C4079     1.0  0.89304  0.61657  0.18134  1.0000
  C   C4080     1.0  0.88447  0.61703  0.17057  1.0000
  H   H6982     1.0  0.85617  0.59869  0.19501  1.0000
  H   H6983     1.0  0.79120  0.58639  0.11239  1.0000
  H   H6984     1.0  0.90333  0.62148  0.17753  1.0000
  H   H6985     1.0  0.88811  0.62244  0.15845  1.0000
  C   C4081     1.0  0.80239  0.67940  0.21100  1.0000
  H   H6986     1.0  0.58374  0.50832  0.12254  1.0000
  C   C4082     1.0  0.54163  0.63032  0.16122  1.0000
  H   H6987     1.0  0.59533  0.48620  0.15942  1.0000
  C   C4083     1.0  0.61032  0.65022  0.17864  1.0000
  C   C4084     1.0  0.61968  0.53074  0.09729  1.0000
  H   H6988     1.0  0.81488  0.60951  0.98638  1.0000
  S   S1191     1.0  0.99044  0.60477  0.21555  1.0000
  S   S1192     1.0  0.84809  0.50930  0.19866  1.0000
  Fe  Fe596     1.0  0.67065  0.63677  0.18441  1.0000
  H   H6989     1.0  0.74267  0.51707  0.05947  1.0000
  C   C4085     1.0  0.70906  0.54974  0.97697  1.0000
  H   H6990     1.0  0.68701  0.54478  0.14902  1.0000
  C   C4086     1.0  0.91239  0.66292  0.14195  1.0000
  C   C4087     1.0  0.81931  0.67773  0.18549  1.0000
  H   H6991     1.0  0.62683  0.61028  0.18745  1.0000
  H   H6992     1.0  0.73105  0.52468  0.04537  1.0000
  C   C4088     1.0  0.62994  0.71574  0.16156  1.0000
  C   C4089     1.0  0.64608  0.71246  0.16121  1.0000
  C   C4090     1.0  0.65450  0.69698  0.16414  1.0000
  H   H6993     1.0  0.86445  0.49377  0.12920  1.0000
  H   H6994     1.0  0.78485  0.64707  0.21113  1.0000
  C   C4091     1.0  0.82613  0.63165  0.08477  1.0000
  C   C4092     1.0  0.82232  0.64731  0.07732  1.0000
  C   C4093     1.0  0.82687  0.65866  0.08175  1.0000
  C   C4094     1.0  0.83499  0.65442  0.09380  1.0000
  C   C4095     1.0  0.83869  0.63877  0.10133  1.0000
  C   C4096     1.0  0.83440  0.62740  0.09671  1.0000
  H   H6995     1.0  0.81608  0.65066  0.06801  1.0000
  H   H6996     1.0  0.82401  0.67075  0.07586  1.0000
  H   H6997     1.0  0.84494  0.63542  0.11065  1.0000
  H   H6998     1.0  0.83739  0.61528  0.10249  1.0000
  C   C4097     1.0  0.73948  0.64354  0.10283  1.0000
  C   C4098     1.0  0.74559  0.62797  0.10910  1.0000
  C   C4099     1.0  0.74147  0.62197  0.12512  1.0000
  C   C4100     1.0  0.73096  0.63142  0.13490  1.0000
  C   C4101     1.0  0.72460  0.64695  0.12866  1.0000
  C   C4102     1.0  0.72890  0.65302  0.11261  1.0000
  H   H6999     1.0  0.75325  0.62046  0.10162  1.0000
  H   H7000     1.0  0.74625  0.60991  0.12994  1.0000
  H   H7001     1.0  0.71646  0.65428  0.13621  1.0000
  H   H7002     1.0  0.72405  0.66506  0.10777  1.0000
  C   C4103     1.0  0.75834  0.58406  0.06319  1.0000
  C   C4104     1.0  0.75183  0.57579  0.05672  1.0000
  C   C4105     1.0  0.73556  0.57678  0.06063  1.0000
  C   C4106     1.0  0.72593  0.58556  0.07144  1.0000
  C   C4107     1.0  0.73261  0.59321  0.07835  1.0000
  C   C4108     1.0  0.74872  0.59277  0.07399  1.0000
  H   H7003     1.0  0.75929  0.56895  0.04845  1.0000
  H   H7004     1.0  0.73047  0.57084  0.05523  1.0000
  H   H7005     1.0  0.72532  0.59958  0.08700  1.0000
  H   H7006     1.0  0.75370  0.59907  0.07911  1.0000
  S   S1193     1.0  0.50535  0.63666  0.14098  1.0000
  H   H7007     1.0  0.90595  0.65496  0.07117  1.0000
  C   C4109     1.0  0.80217  0.62774  0.99870  1.0000
  C   C4110     1.0  0.79126  0.64195  0.99834  1.0000
  H   H7008     1.0  0.90504  0.65528  0.21210  1.0000
  C   C4111     1.0  0.62125  0.64452  0.14583  1.0000
  S   S1194     1.0  0.59790  0.60679  0.13251  1.0000
  H   H7009     1.0  0.60693  0.63044  0.16406  1.0000
  H   H7010     1.0  0.62450  0.63599  0.13826  1.0000
  H   H7011     1.0  0.62051  0.65629  0.13812  1.0000
  H   H7012     1.0  0.63094  0.64188  0.15194  1.0000
  C   C4112     1.0  0.67005  0.52541  0.02094  1.0000
  N   N290      1.0  0.72589  0.48983  0.05414  1.0000
  C   C4113     1.0  0.94103  0.60230  0.20781  1.0000
  C   C4114     1.0  0.52939  0.70576  0.16136  1.0000
  S   S1195     1.0  0.60637  0.57653  0.16091  1.0000
  C   C4115     1.0  0.75777  0.66617  0.21299  1.0000
  H   H7013     1.0  0.92693  0.62848  0.13103  1.0000
  C   C4116     1.0  0.70814  0.50694  0.98299  1.0000
  H   H7014     1.0  0.66554  0.61112  0.13732  1.0000
  N   N291      1.0  0.67875  0.51426  0.99611  1.0000
  H   H7015     1.0  0.61469  0.65568  0.19847  1.0000
  H   H7016     1.0  0.56943  0.65759  0.15990  1.0000
  C   C4117     1.0  0.89318  0.68142  0.04856  1.0000
  C   C4118     1.0  0.58519  0.51000  0.10979  1.0000
  H   H7017     1.0  0.55928  0.52769  0.15255  1.0000
  C   C4119     1.0  0.74295  0.58237  0.00896  1.0000
  C   C4120     1.0  0.60496  0.65874  0.19226  1.0000
  C   C4121     1.0  0.58334  0.65121  0.17815  1.0000
  H   H7018     1.0  0.99079  0.61076  0.15037  1.0000
  H   H7019     1.0  0.73127  0.65553  0.19876  1.0000
  C   C4122     1.0  0.60926  0.69893  0.20789  1.0000
  S   S1196     1.0  0.64925  0.62696  0.18768  1.0000
  H   H7020     1.0  0.57624  0.68103  0.15065  1.0000
  C   C4123     1.0  0.51540  0.71643  0.16542  1.0000
  S   S1197     1.0  0.65156  0.49504  0.04791  1.0000
  H   H7021     1.0  0.59183  0.67859  0.16772  1.0000
  C   C4124     1.0  0.64412  0.60450  0.15084  1.0000
  C   C4125     1.0  0.96633  0.61277  0.14839  1.0000
  C   C4126     1.0  0.59724  0.52421  0.15392  1.0000
  N   N292      1.0  0.55932  0.63963  0.10671  1.0000
  C   C4127     1.0  0.57027  0.64639  0.11142  1.0000
  C   C4128     1.0  0.56636  0.63799  0.09011  1.0000
  C   C4129     1.0  0.55900  0.62372  0.11711  1.0000
  C   C4130     1.0  0.54319  0.65025  0.10879  1.0000
  C   C4131     1.0  0.56631  0.64764  0.12862  1.0000
  C   C4132     1.0  0.56848  0.65327  0.07813  1.0000
  C   C4133     1.0  0.54946  0.61392  0.11384  1.0000
  C   C4134     1.0  0.53187  0.64920  0.09940  1.0000
  H   H7022     1.0  0.58255  0.63943  0.10898  1.0000
  H   H7023     1.0  0.57062  0.65842  0.10448  1.0000
  H   H7024     1.0  0.55952  0.63247  0.08577  1.0000
  H   H7025     1.0  0.57813  0.62989  0.08932  1.0000
  H   H7026     1.0  0.57114  0.61659  0.11683  1.0000
  H   H7027     1.0  0.55405  0.62463  0.12938  1.0000
  H   H7028     1.0  0.53707  0.64829  0.12128  1.0000
  H   H7029     1.0  0.54419  0.66266  0.10556  1.0000
  H   H7030     1.0  0.56888  0.63603  0.13647  1.0000
  H   H7031     1.0  0.57389  0.65456  0.13007  1.0000
  H   H7032     1.0  0.55397  0.65368  0.13244  1.0000
  H   H7033     1.0  0.57853  0.65731  0.07910  1.0000
  H   H7034     1.0  0.57127  0.65107  0.06621  1.0000
  H   H7035     1.0  0.55774  0.66266  0.07917  1.0000
  H   H7036     1.0  0.53671  0.61913  0.11636  1.0000
  H   H7037     1.0  0.55111  0.60230  0.12190  1.0000
  H   H7038     1.0  0.55353  0.61162  0.10196  1.0000
  H   H7039     1.0  0.51990  0.64983  0.10698  1.0000
  H   H7040     1.0  0.53475  0.63844  0.09500  1.0000
  H   H7041     1.0  0.53076  0.65946  0.08956  1.0000
  N   N293      1.0  0.80725  0.55867  0.09843  1.0000
  C   C4135     1.0  0.81047  0.54155  0.10617  1.0000
  C   C4136     1.0  0.78987  0.56383  0.09885  1.0000
  C   C4137     1.0  0.81184  0.56739  0.10771  1.0000
  C   C4138     1.0  0.81703  0.56046  0.08203  1.0000
  C   C4139     1.0  0.82720  0.53426  0.10912  1.0000
  C   C4140     1.0  0.78324  0.55488  0.09105  1.0000
  H   H7042     1.0  0.80214  0.53939  0.11765  1.0000
  H   H7043     1.0  0.80854  0.53439  0.09910  1.0000
  H   H7044     1.0  0.78643  0.57634  0.09338  1.0000
  H   H7045     1.0  0.78312  0.56279  0.11114  1.0000
  H   H7046     1.0  0.80913  0.56199  0.12038  1.0000
  H   H7047     1.0  0.82474  0.56666  0.10446  1.0000
  H   H7048     1.0  0.82973  0.55689  0.08218  1.0000
  H   H7049     1.0  0.81553  0.55230  0.07579  1.0000
  H   H7050     1.0  0.83626  0.53440  0.09816  1.0000
  H   H7051     1.0  0.83021  0.53983  0.11691  1.0000
  H   H7052     1.0  0.82785  0.52180  0.11509  1.0000
  H   H7053     1.0  0.78303  0.54282  0.09783  1.0000
  H   H7054     1.0  0.77087  0.56086  0.09060  1.0000
  H   H7055     1.0  0.78968  0.55472  0.07889  1.0000
  N   N294      1.0  0.77842  0.65682  0.11425  1.0000
  C   C4141     1.0  0.78016  0.67128  0.11785  1.0000
  C   C4142     1.0  0.76328  0.65270  0.12421  1.0000
  C   C4143     1.0  0.77787  0.65939  0.09738  1.0000
  C   C4144     1.0  0.79231  0.64385  0.11753  1.0000
  C   C4145     1.0  0.79460  0.67781  0.10795  1.0000
  C   C4146     1.0  0.76220  0.64803  0.14195  1.0000
  C   C4147     1.0  0.76627  0.67412  0.09104  1.0000
  C   C4148     1.0  0.79160  0.62761  0.11619  1.0000
  H   H7056     1.0  0.76948  0.68077  0.11687  1.0000
  H   H7057     1.0  0.78121  0.66904  0.13013  1.0000
  H   H7058     1.0  0.76087  0.64301  0.12081  1.0000
  H   H7059     1.0  0.75315  0.66261  0.12231  1.0000
  H   H7060     1.0  0.78967  0.65975  0.08965  1.0000
  H   H7061     1.0  0.77453  0.64942  0.09532  1.0000
  H   H7062     1.0  0.80325  0.64653  0.10934  1.0000
  H   H7063     1.0  0.79426  0.64275  0.12929  1.0000
  H   H7064     1.0  0.80560  0.66998  0.11089  1.0000
  H   H7065     1.0  0.79541  0.67999  0.09527  1.0000
  H   H7066     1.0  0.79387  0.68913  0.11066  1.0000
  H   H7067     1.0  0.76254  0.65782  0.14668  1.0000
  H   H7068     1.0  0.75070  0.64483  0.14777  1.0000
  H   H7069     1.0  0.77134  0.63768  0.14533  1.0000
  H   H7070     1.0  0.75399  0.67418  0.09751  1.0000
  H   H7071     1.0  0.76657  0.67426  0.07878  1.0000
  H   H7072     1.0  0.76946  0.68501  0.09088  1.0000
  H   H7073     1.0  0.78195  0.62299  0.12506  1.0000
  H   H7074     1.0  0.80275  0.61929  0.11812  1.0000
  H   H7075     1.0  0.79048  0.62762  0.10444  1.0000
  N   N295      1.0  0.69441  0.63157  0.10259  1.0000
  C   C4149     1.0  0.70188  0.64186  0.08807  1.0000
  C   C4150     1.0  0.68087  0.64178  0.11148  1.0000
  C   C4151     1.0  0.68830  0.61965  0.09880  1.0000
  C   C4152     1.0  0.70663  0.62303  0.11201  1.0000
  C   C4153     1.0  0.71502  0.63345  0.07649  1.0000
  C   C4154     1.0  0.68535  0.65235  0.11931  1.0000
  C   C4155     1.0  0.67696  0.62613  0.08760  1.0000
  C   C4156     1.0  0.70105  0.61252  0.12786  1.0000
  H   H7076     1.0  0.69292  0.64965  0.08154  1.0000
  H   H7077     1.0  0.70727  0.64985  0.09111  1.0000
  H   H7078     1.0  0.67310  0.63478  0.12062  1.0000
  H   H7079     1.0  0.67310  0.64965  0.10367  1.0000
  H   H7080     1.0  0.69810  0.61083  0.09384  1.0000
  H   H7081     1.0  0.68196  0.61284  0.10959  1.0000
  H   H7082     1.0  0.71631  0.61525  0.10550  1.0000
  H   H7083     1.0  0.71264  0.63111  0.11388  1.0000
  H   H7084     1.0  0.71105  0.62526  0.07228  1.0000
  H   H7085     1.0  0.71896  0.64230  0.06610  1.0000
  H   H7086     1.0  0.72553  0.62739  0.08143  1.0000
  H   H7087     1.0  0.67447  0.65952  0.12516  1.0000
  H   H7088     1.0  0.69191  0.64548  0.12845  1.0000
  H   H7089     1.0  0.69226  0.66052  0.11080  1.0000
  H   H7090     1.0  0.67331  0.61621  0.08584  1.0000
  H   H7091     1.0  0.68262  0.63205  0.07595  1.0000
  H   H7092     1.0  0.66614  0.63405  0.09244  1.0000
  H   H7093     1.0  0.70042  0.60105  0.12646  1.0000
  H   H7094     1.0  0.68963  0.61799  0.13436  1.0000
  H   H7095     1.0  0.70934  0.61070  0.13546  1.0000
  C   C4157     1.0  0.62183  0.50711  0.08861  1.0000
  C   C4158     1.0  0.61818  0.49110  0.09062  1.0000
  H   H7096     1.0  0.61966  0.51380  0.07698  1.0000
  H   H7097     1.0  0.85074  0.66207  0.19358  1.0000
  H   H7098     1.0  0.68154  0.49228  0.08582  1.0000
  C   C4159     1.0  0.86044  0.65414  0.19900  1.0000
  H   H7099     1.0  0.67600  0.57488  0.99071  1.0000
  C   C4160     1.0  0.85420  0.63986  0.20961  1.0000
  C   C4161     1.0  0.76299  0.68108  0.20267  1.0000
  H   H7100     1.0  0.70955  0.49476  0.98974  1.0000
  C   C4162     1.0  0.70371  0.66830  0.22078  1.0000
  C   C4163     1.0  0.52528  0.67658  0.20057  1.0000
  S   S1198     1.0  0.89745  0.61125  0.21093  1.0000
  H   H7101     1.0  0.50446  0.65661  0.21680  1.0000
  H   H7102     1.0  0.86925  0.57268  0.21859  1.0000
  H   H7103     1.0  0.59472  0.65497  0.20089  1.0000
  C   C4164     1.0  0.66281  0.52032  0.99205  1.0000
  H   H7104     1.0  0.93648  0.59487  0.20324  1.0000
  Fe  Fe597     1.0  0.50716  0.68710  0.15053  1.0000
  C   C4165     1.0  0.73828  0.49912  0.05080  1.0000
  H   H7105     1.0  0.85050  0.63412  0.20242  1.0000
  H   H7106     1.0  0.63811  0.51113  0.11740  1.0000
  H   H7107     1.0  0.68217  0.53614  0.99824  1.0000
  H   H7108     1.0  0.62867  0.48351  0.08473  1.0000
  H   H7109     1.0  0.65076  0.71775  0.21298  1.0000
  H   H7110     1.0  0.60228  0.67159  0.18828  1.0000
  H   H7111     1.0  0.50163  0.72319  0.11180  1.0000
  H   H7112     1.0  0.52642  0.67741  0.21203  1.0000
  H   H7113     1.0  0.98029  0.65247  0.11633  1.0000
  H   H7114     1.0  0.77593  0.67916  0.19870  1.0000
  H   H7115     1.0  0.74821  0.49210  0.05641  1.0000
  H   H7116     1.0  0.66189  0.51455  0.98320  1.0000
  C   C4166     1.0  0.86579  0.56203  0.21977  1.0000
  C   C4167     1.0  0.68162  0.52420  0.00523  1.0000
  C   C4168     1.0  0.49704  0.66371  0.20836  1.0000
  H   H7117     1.0  0.66164  0.54462  0.16422  1.0000
  H   H7118     1.0  0.66017  0.56556  0.15660  1.0000
  C   C4169     1.0  0.92525  0.66965  0.13960  1.0000
  H   H7119     1.0  0.55421  0.69925  0.16057  1.0000
  H   H7120     1.0  0.64325  0.55798  0.16609  1.0000
  H   H7121     1.0  0.50704  0.50559  0.16782  1.0000
  C   C4170     1.0  0.86914  0.67809  0.19556  1.0000
  C   C4171     1.0  0.70862  0.67952  0.22505  1.0000
  H   H7122     1.0  0.74338  0.50174  0.03804  1.0000
  H   H7123     1.0  0.67455  0.51619  0.03040  1.0000
  H   H7124     1.0  0.79923  0.62932  0.19347  1.0000
  C   C4172     1.0  0.70976  0.50977  0.03512  1.0000
  H   H7125     1.0  0.98280  0.59406  0.15992  1.0000
  H   H7126     1.0  0.60889  0.51493  0.12545  1.0000
  N   N296      1.0  0.63021  0.71190  0.21024  1.0000
  C   C4173     1.0  0.96268  0.57129  0.20957  1.0000
  H   H7127     1.0  0.98736  0.62342  0.11930  1.0000
  N   N297      1.0  0.49489  0.68093  0.20743  1.0000
  H   H7128     1.0  0.64680  0.54084  0.98220  1.0000
  S   S1199     1.0  0.50891  0.68050  0.12816  1.0000
  H   H7129     1.0  0.57560  0.63684  0.16724  1.0000
  H   H7130     1.0  0.96059  0.61618  0.15978  1.0000
  Fe  Fe598     1.0  0.58834  0.73025  0.17228  1.0000
  H   H7131     1.0  0.73508  0.57875  0.02035  1.0000
  H   H7132     1.0  0.71996  0.51529  0.02991  1.0000
  H   H7133     1.0  0.70913  0.50266  0.02735  1.0000
  H   H7134     1.0  0.69906  0.51931  0.03554  1.0000
  H   H7135     1.0  0.88100  0.64162  0.21818  1.0000
  H   H7136     1.0  0.91162  0.53501  0.21211  1.0000
  H   H7137     1.0  0.75927  0.69018  0.20964  1.0000
  N   N298      1.0  0.86492  0.55856  0.16538  1.0000
  C   C4174     1.0  0.86217  0.54217  0.17083  1.0000
  C   C4175     1.0  0.85349  0.56805  0.17653  1.0000
  C   C4176     1.0  0.88159  0.55785  0.16596  1.0000
  C   C4177     1.0  0.86248  0.56450  0.14895  1.0000
  C   C4178     1.0  0.87453  0.52967  0.16290  1.0000
  C   C4179     1.0  0.83598  0.56951  0.17739  1.0000
  C   C4180     1.0  0.88533  0.57287  0.16716  1.0000
  C   C4181     1.0  0.86254  0.58178  0.14146  1.0000
  H   H7138     1.0  0.86147  0.53805  0.18357  1.0000
  H   H7139     1.0  0.85067  0.54170  0.16910  1.0000
  H   H7140     1.0  0.85522  0.58010  0.17391  1.0000
  H   H7141     1.0  0.85554  0.56301  0.18854  1.0000
  H   H7142     1.0  0.95977  0.66086  0.12351  1.0000
  H   H7143     1.0  0.89003  0.55394  0.15567  1.0000
  H   H7144     1.0  0.87180  0.55786  0.14098  1.0000
  H   H7145     1.0  0.85150  0.56217  0.14780  1.0000
  H   H7146     1.0  0.89476  0.69089  0.03801  1.0000
  H   H7147     1.0  0.88621  0.52771  0.16556  1.0000
  H   H7148     1.0  0.87555  0.53233  0.15016  1.0000
  H   H7149     1.0  0.78354  0.62168  0.20721  1.0000
  H   H7150     1.0  0.82887  0.57747  0.18524  1.0000
  H   H7151     1.0  0.83289  0.57464  0.16588  1.0000
  H   H7152     1.0  0.87084  0.51838  0.16756  1.0000
  H   H7153     1.0  0.87988  0.57549  0.17886  1.0000
  H   H7154     1.0  0.88168  0.58310  0.15817  1.0000
  H   H7155     1.0  0.87466  0.58351  0.13614  1.0000
  H   H7156     1.0  0.85654  0.58961  0.14956  1.0000
  H   H7157     1.0  0.85569  0.58578  0.13220  1.0000
  N   N299      1.0  0.77090  0.58780  0.99766  1.0000
  C   C4182     1.0  0.77377  0.57756  0.98628  1.0000
  C   C4183     1.0  0.75896  0.58224  0.01182  1.0000
  C   C4184     1.0  0.78631  0.58603  0.00201  1.0000
  C   C4185     1.0  0.76505  0.60439  0.98967  1.0000
  H   H7158     1.0  0.92289  0.53422  0.22552  1.0000
  H   H7159     1.0  0.84375  0.64310  0.21873  1.0000
  C   C4186     1.0  0.78560  0.58822  0.01831  1.0000
  C   C4187     1.0  0.76026  0.61675  0.99957  1.0000
  H   H7160     1.0  0.77614  0.56501  0.99225  1.0000
  H   H7161     1.0  0.72258  0.51617  0.06521  1.0000
  H   H7162     1.0  0.75634  0.58921  0.02077  1.0000
  H   H7163     1.0  0.76381  0.57007  0.01759  1.0000
  H   H7164     1.0  0.79371  0.57408  0.00175  1.0000
  H   H7165     1.0  0.79335  0.59405  0.99331  1.0000
  S   S1200     1.0  0.97899  0.62752  0.17665  1.0000
  H   H7166     1.0  0.87109  0.59826  0.21395  1.0000
  S   S1201     1.0  0.52975  0.68969  0.15420  1.0000
  H   H7167     1.0  0.60984  0.49714  0.12101  1.0000
  H   H7168     1.0  0.77418  0.60835  0.97955  1.0000
  H   H7169     1.0  0.96685  0.55835  0.21200  1.0000
  H   H7170     1.0  0.50988  0.68561  0.18456  1.0000
  N   N300      1.0  0.96478  0.62690  0.13518  1.0000
  H   H7171     1.0  0.79734  0.58912  0.01895  1.0000
  H   H7172     1.0  0.78266  0.57789  0.02730  1.0000
  H   H7173     1.0  0.77716  0.59876  0.02144  1.0000
  H   H7174     1.0  0.85811  0.68422  0.19140  1.0000
  H   H7175     1.0  0.95991  0.60421  0.14818  1.0000
  C   C4188     1.0  0.81491  0.65419  0.20470  1.0000
  H   H7176     1.0  0.59048  0.53217  0.10580  1.0000
  H   H7177     1.0  0.89820  0.57110  0.16575  1.0000
  S   S1202     1.0  0.88319  0.48701  0.18965  1.0000
  H   H7178     1.0  0.57713  0.66118  0.18391  1.0000
  H   H7179     1.0  0.54674  0.63751  0.16511  1.0000
  C   C4189     1.0  0.80602  0.62023  0.98627  1.0000
  H   H7180     1.0  0.83398  0.67020  0.21526  1.0000
  H   H7181     1.0  0.62346  0.72768  0.15935  1.0000
  S   S1203     1.0  0.86579  0.48684  0.22642  1.0000
  C   C4190     1.0  0.57167  0.64847  0.17028  1.0000
  H   H7182     1.0  0.88613  0.55356  0.20318  1.0000
  C   C4191     1.0  0.64773  0.71088  0.20636  1.0000
  H   H7183     1.0  0.57327  0.51492  0.10734  1.0000
  H   H7184     1.0  0.80287  0.58379  0.07310  1.0000
  H   H7185     1.0  0.63225  0.49463  0.13106  1.0000
  C   C4192     1.0  0.69109  0.51461  0.98121  1.0000
  C   C4193     1.0  0.58181  0.53129  0.15241  1.0000
  C   C4194     1.0  0.58891  0.67651  0.14621  1.0000
  H   H7186     1.0  0.81713  0.64160  0.20803  1.0000
  C   C4195     1.0  0.89230  0.65977  0.21640  1.0000
  H   H7187     1.0  0.76296  0.66309  0.22343  1.0000
  C   C4196     1.0  0.80383  0.58478  0.10657  1.0000
  H   H7188     1.0  0.61577  0.48460  0.10281  1.0000
  C   C4197     1.0  0.88806  0.61007  0.19708  1.0000
  H   H7189     1.0  0.60838  0.68826  0.20493  1.0000
  C   C4198     1.0  0.57122  0.52213  0.15362  1.0000
  H   H7190     1.0  0.66866  0.53700  0.02341  1.0000
  H   H7191     1.0  0.56021  0.64845  0.17870  1.0000
  C   C4199     1.0  0.98326  0.60361  0.14934  1.0000
  C   C4200     1.0  0.88233  0.67717  0.18085  1.0000
  H   H7192     1.0  0.73187  0.48523  0.03092  1.0000
  H   H7193     1.0  0.50825  0.48823  0.14952  1.0000
  H   H7194     1.0  0.88182  0.68896  0.17313  1.0000
  C   C4201     1.0  0.87520  0.55131  0.21086  1.0000
  H   H7195     1.0  0.60292  0.69875  0.22014  1.0000
  H   H7196     1.0  0.97452  0.59110  0.19851  1.0000
  C   C4202     1.0  0.59152  0.49875  0.15743  1.0000
  C   C4203     1.0  0.59783  0.67069  0.15952  1.0000
  H   H7197     1.0  0.77047  0.61811  0.00303  1.0000
  H   H7198     1.0  0.62507  0.67865  0.16958  1.0000
  H   H7199     1.0  0.69566  0.57260  0.11135  1.0000
  N   N301      1.0  0.76205  0.65250  0.20533  1.0000
  C   C4204     1.0  0.75625  0.65681  0.19045  1.0000
  C   C4205     1.0  0.77969  0.64732  0.20141  1.0000
  S   S1204     1.0  0.88343  0.52349  0.20235  1.0000
  H   H7200     1.0  0.61521  0.53680  0.10722  1.0000
  C   C4206     1.0  0.73856  0.66403  0.19175  1.0000
  H   H7201     1.0  0.86384  0.70043  0.05574  1.0000
  H   H7202     1.0  0.78189  0.63048  0.18721  1.0000
  C   C4207     1.0  0.80517  0.66315  0.21534  1.0000
  H   H7203     1.0  0.76275  0.66504  0.18133  1.0000
  H   H7204     1.0  0.88098  0.66947  0.17411  1.0000
  H   H7205     1.0  0.65178  0.71610  0.19379  1.0000
  H   H7206     1.0  0.78495  0.65589  0.19150  1.0000
  H   H7207     1.0  0.62223  0.55277  0.08105  1.0000
  C   C4208     1.0  0.64797  0.61767  0.17366  1.0000
  H   H7208     1.0  0.52817  0.50304  0.16100  1.0000
  H   H7209     1.0  0.93092  0.61181  0.21100  1.0000
  H   H7210     1.0  0.50353  0.66069  0.19696  1.0000
  H   H7211     1.0  0.60974  0.72891  0.20380  1.0000
  H   H7212     1.0  0.85273  0.52430  0.22269  1.0000
  H   H7213     1.0  0.65328  0.51733  0.00225  1.0000
  H   H7214     1.0  0.50276  0.48421  0.18739  1.0000
  H   H7215     1.0  0.60358  0.54857  0.08366  1.0000
  C   C4209     1.0  0.54339  0.70750  0.16358  1.0000
  C   C4210     1.0  0.94839  0.59407  0.22216  1.0000
  H   H7216     1.0  0.55438  0.72106  0.17143  1.0000
  H   H7217     1.0  0.98916  0.59807  0.13928  1.0000
  H   H7218     1.0  0.71280  0.51389  0.98812  1.0000
  H   H7219     1.0  0.58933  0.49856  0.10651  1.0000
  N   N302      1.0  0.88393  0.68202  0.07806  1.0000
  C   C4211     1.0  0.89118  0.68228  0.09096  1.0000
  C   C4212     1.0  0.88139  0.66576  0.08093  1.0000
  C   C4213     1.0  0.86825  0.69341  0.07943  1.0000
  C   C4214     1.0  0.89478  0.68669  0.06263  1.0000
  C   C4215     1.0  0.89302  0.69831  0.09170  1.0000
  C   C4216     1.0  0.85840  0.69486  0.06765  1.0000
  H   H7220     1.0  0.60327  0.70890  0.19998  1.0000
  H   H7221     1.0  0.88425  0.67745  0.10251  1.0000
  H   H7222     1.0  0.90314  0.67462  0.09017  1.0000
  H   H7223     1.0  0.87557  0.66445  0.07239  1.0000
  C   C4217     1.0  0.67351  0.49973  0.07863  1.0000
  H   H7224     1.0  0.86084  0.69050  0.09132  1.0000
  H   H7225     1.0  0.86970  0.70544  0.07795  1.0000
  H   H7226     1.0  0.89342  0.69959  0.05937  1.0000
  H   H7227     1.0  0.90723  0.68186  0.06366  1.0000
  H   H7228     1.0  0.90048  0.69653  0.10011  1.0000
  H   H7229     1.0  0.89881  0.70462  0.08034  1.0000
  H   H7230     1.0  0.88156  0.70564  0.09624  1.0000
  H   H7231     1.0  0.84678  0.70264  0.07091  1.0000
  C   C4218     1.0  0.73300  0.51503  0.05559  1.0000
  H   H7232     1.0  0.70137  0.49244  0.05458  1.0000
  H   H7233     1.0  0.98173  0.63499  0.14193  1.0000
  H   H7234     1.0  0.62091  0.53851  0.07187  1.0000
  Fe  Fe599     1.0  0.98988  0.66075  0.18690  1.0000
  H   H7235     1.0  0.73600  0.66745  0.17994  1.0000
  C   C4219     1.0  0.87069  0.53753  0.21221  1.0000
  C   C4220     1.0  0.85632  0.53488  0.22180  1.0000
  H   H7236     1.0  0.50455  0.71517  0.16372  1.0000
  Fe  Fe600     1.0  0.69272  0.64311  0.20126  1.0000
  Fe  Fe601     1.0  0.87154  0.50442  0.20451  1.0000
  H   H7237     1.0  0.59409  0.52522  0.08851  1.0000
  H   H7238     1.0  0.83246  0.55817  0.18248  1.0000
  H   H7239     1.0  0.49468  0.61005  0.16895  1.0000
  C   C4221     1.0  0.54349  0.71987  0.16975  1.0000
  H   H7240     1.0  0.89046  0.64849  0.19916  1.0000
  H   H7241     1.0  0.68560  0.52491  0.15599  1.0000
  C   C4222     1.0  0.64688  0.68484  0.16693  1.0000
  H   H7242     1.0  0.87311  0.66306  0.09229  1.0000
  C   C4223     1.0  0.78385  0.64835  0.98570  1.0000
  H   H7243     1.0  0.75077  0.61439  0.00993  1.0000
  S   S1205     1.0  0.60190  0.70701  0.16681  1.0000
  H   H7244     1.0  0.73702  0.59415  0.00354  1.0000
  S   S1206     1.0  0.61851  0.57339  0.12445  1.0000
  H   H7245     1.0  0.82285  0.58358  0.07286  1.0000
  H   H7246     1.0  0.53478  0.68154  0.19171  1.0000
  H   H7247     1.0  0.75570  0.62825  0.99240  1.0000
  H   H7248     1.0  0.71533  0.58607  0.98093  1.0000
  C   C4224     1.0  0.94769  0.63300  0.13454  1.0000
  C   C4225     1.0  0.97483  0.62389  0.11974  1.0000
  C   C4226     1.0  0.97106  0.65456  0.12683  1.0000
  C   C4227     1.0  0.68734  0.56688  0.99027  1.0000
  C   C4228     1.0  0.65836  0.53798  0.98541  1.0000
  Fe  Fe602     1.0  0.84336  0.48984  0.21912  1.0000
  C   C4229     1.0  0.71010  0.49984  0.05170  1.0000
  H   H7249     1.0  0.75484  0.60527  0.98479  1.0000
  H   H7250     1.0  0.94409  0.62247  0.11725  1.0000
  H   H7251     1.0  0.75610  0.62976  0.21094  1.0000
  H   H7252     1.0  0.94068  0.63508  0.14613  1.0000
  H   H7253     1.0  0.94584  0.64440  0.12624  1.0000
  H   H7254     1.0  0.97154  0.63388  0.11018  1.0000
  S   S1207     1.0  0.85630  0.49608  0.16079  1.0000
  C   C4230     1.0  0.67952  0.49793  0.00580  1.0000
  H   H7255     1.0  0.89339  0.64159  0.08103  1.0000
  S   S1208     1.0  0.56590  0.60677  0.16915  1.0000
  C   C4231     1.0  0.51821  0.48648  0.15510  1.0000
  S   S1209     1.0  0.98152  0.66454  0.16477  1.0000
  H   H7256     1.0  0.85592  0.68364  0.06776  1.0000
  C   C4232     1.0  0.51716  0.50247  0.15836  1.0000
  H   H7257     1.0  0.67076  0.69559  0.20721  1.0000
  H   H7258     1.0  0.94031  0.61100  0.13710  1.0000
  H   H7259     1.0  0.88180  0.67869  0.04957  1.0000
  H   H7260     1.0  0.96201  0.64267  0.15017  1.0000
  H   H7261     1.0  0.90277  0.67128  0.04599  1.0000
  N   N303      1.0  0.66659  0.55096  0.12991  1.0000
  C   C4233     1.0  0.66091  0.55105  0.11584  1.0000
  C   C4234     1.0  0.67478  0.56435  0.12533  1.0000
  C   C4235     1.0  0.65232  0.55378  0.14281  1.0000
  C   C4236     1.0  0.67717  0.53529  0.13438  1.0000
  C   C4237     1.0  0.65112  0.53898  0.11789  1.0000
  C   C4238     1.0  0.69008  0.56279  0.11271  1.0000
  C   C4239     1.0  0.65491  0.55553  0.15812  1.0000
  C   C4240     1.0  0.68805  0.53400  0.14527  1.0000
  H   H7262     1.0  0.65376  0.56276  0.11155  1.0000
  H   H7263     1.0  0.67098  0.54877  0.10599  1.0000
  H   H7264     1.0  0.67770  0.56664  0.13530  1.0000
  H   H7265     1.0  0.66679  0.57544  0.12097  1.0000
  H   H7266     1.0  0.64395  0.56456  0.13869  1.0000
  H   H7267     1.0  0.64595  0.54417  0.14627  1.0000
  H   H7268     1.0  0.67006  0.52628  0.14010  1.0000
  H   H7269     1.0  0.68486  0.53133  0.12375  1.0000
  H   H7270     1.0  0.65758  0.52686  0.12155  1.0000
  H   H7271     1.0  0.63959  0.54126  0.12600  1.0000
  H   H7272     1.0  0.64858  0.53986  0.10645  1.0000
  H   H7273     1.0  0.69873  0.55186  0.11574  1.0000
  H   H7274     1.0  0.61387  0.50232  0.15789  1.0000
  H   H7275     1.0  0.59033  0.66774  0.13945  1.0000
  H   H7276     1.0  0.65861  0.68817  0.20015  1.0000
  H   H7277     1.0  0.58504  0.64072  0.18777  1.0000
  C   C4241     1.0  0.82186  0.66147  0.18974  1.0000
  H   H7278     1.0  0.82945  0.65450  0.18160  1.0000
  S   S1210     1.0  0.67424  0.69272  0.16525  1.0000
  C   C4242     1.0  0.59578  0.52164  0.10069  1.0000
  S   S1211     1.0  0.86549  0.65402  0.15837  1.0000
  H   H7279     1.0  0.89832  0.64746  0.15803  1.0000
  H   H7280     1.0  0.61290  0.63753  0.18397  1.0000
  C   C4243     1.0  0.60547  0.64270  0.15722  1.0000
  H   H7281     1.0  0.63472  0.50534  0.08708  1.0000
  H   H7282     1.0  0.89411  0.67327  0.18369  1.0000
  Fe  Fe603     1.0  0.84415  0.67095  0.15184  1.0000
  Fe  Fe604     1.0  0.87790  0.66177  0.13378  1.0000
  H   H7283     1.0  0.91239  0.64247  0.17916  1.0000
  S   S1212     1.0  0.64179  0.59709  0.13594  1.0000
  S   S1213     1.0  0.97031  0.64932  0.20189  1.0000
  H   H7284     1.0  0.59724  0.64354  0.14994  1.0000
  S   S1214     1.0  0.69332  0.62306  0.19122  1.0000
  S   S1215     1.0  0.85700  0.68036  0.12786  1.0000
  C   C4244     1.0  0.91598  0.65007  0.16812  1.0000
  C   C4245     1.0  0.90794  0.65297  0.15619  1.0000
  C   C4246     1.0  0.80950  0.68667  0.19611  1.0000
  C   C4247     1.0  0.81501  0.57690  0.07143  1.0000
  H   H7285     1.0  0.54726  0.59305  0.15763  1.0000
  H   H7286     1.0  0.62187  0.65292  0.17205  1.0000
  H   H7287     1.0  0.52326  0.60488  0.14680  1.0000
  H   H7288     1.0  0.80946  0.59001  0.11260  1.0000
  S   S1216     1.0  0.90237  0.66671  0.12683  1.0000
  H   H7289     1.0  0.74492  0.66930  0.21760  1.0000
  C   C4248     1.0  0.65899  0.61772  0.15954  1.0000
  H   H7290     1.0  0.60960  0.67361  0.15484  1.0000
  H   H7291     1.0  0.52407  0.64950  0.15290  1.0000
  S   S1217     1.0  0.82873  0.68708  0.16726  1.0000
  N   N304      1.0  0.59903  0.65388  0.16805  1.0000
  Fe  Fe605     1.0  0.96356  0.65073  0.17970  1.0000
  C   C4249     1.0  0.92869  0.65686  0.16588  1.0000
  C   C4250     1.0  0.52174  0.62798  0.14947  1.0000
  C   C4251     1.0  0.54196  0.60531  0.15690  1.0000
  C   C4252     1.0  0.52839  0.61201  0.15079  1.0000
  H   H7292     1.0  0.60824  0.49229  0.08523  1.0000
  S   S1218     1.0  0.93759  0.65345  0.18169  1.0000
  H   H7293     1.0  0.92875  0.67739  0.12861  1.0000
  H   H7294     1.0  0.59373  0.68621  0.13764  1.0000
  N   N305      1.0  0.61306  0.51636  0.10089  1.0000
  H   H7295     1.0  0.94302  0.67215  0.14982  1.0000
  C   C4253     1.0  0.62275  0.72713  0.20081  1.0000
  H   H7296     1.0  0.51562  0.51163  0.14769  1.0000
  H   H7297     1.0  0.98742  0.57283  0.20496  1.0000
  H   H7298     1.0  0.80754  0.69926  0.19286  1.0000
  S   S1219     1.0  0.61109  0.53532  0.15175  1.0000
  C   C4254     1.0  0.66958  0.51581  0.07759  1.0000
  C   C4255     1.0  0.52855  0.63710  0.15452  1.0000
  S   S1220     1.0  0.49647  0.66721  0.16571  1.0000
  H   H7299     1.0  0.69343  0.51967  0.00799  1.0000
  C   C4256     1.0  0.65780  0.50293  0.05995  1.0000
  H   H7300     1.0  0.75860  0.64637  0.18549  1.0000
  H   H7301     1.0  0.52754  0.66420  0.19993  1.0000
  C   C4257     1.0  0.60198  0.50789  0.15664  1.0000
  C   C4258     1.0  0.63524  0.61066  0.17644  1.0000
  H   H7302     1.0  0.89042  0.67259  0.21269  1.0000
  C   C4259     1.0  0.63324  0.60418  0.16504  1.0000
  C   C4260     1.0  0.54857  0.61450  0.16215  1.0000
  H   H7303     1.0  0.86336  0.63112  0.21504  1.0000
  H   H7304     1.0  0.69012  0.49371  0.01091  1.0000
  C   C4261     1.0  0.65314  0.51891  0.05961  1.0000
  H   H7305     1.0  0.80508  0.59151  0.09447  1.0000
  H   H7306     1.0  0.94940  0.60825  0.19830  1.0000
  H   H7307     1.0  0.62639  0.72703  0.18817  1.0000
  C   C4262     1.0  0.62227  0.70352  0.16477  1.0000
  Fe  Fe606     1.0  0.61928  0.58947  0.13877  1.0000
  Fe  Fe607     1.0  0.58472  0.59271  0.15361  1.0000
  C   C4263     1.0  0.63085  0.68812  0.16713  1.0000
  C   C4264     1.0  0.96991  0.63936  0.13932  1.0000
  C   C4265     1.0  0.66783  0.49335  0.06962  1.0000
  H   H7308     1.0  0.73471  0.67472  0.19649  1.0000
  C   C4266     1.0  0.61521  0.50745  0.11693  1.0000
  C   C4267     1.0  0.78623  0.63126  0.19708  1.0000
  H   H7309     1.0  0.65812  0.52443  0.02121  1.0000
  S   S1221     1.0  0.57031  0.72960  0.19468  1.0000
  H   H7310     1.0  0.95454  0.57372  0.20175  1.0000
  H   H7311     1.0  0.66887  0.62300  0.15736  1.0000
  S   S1222     1.0  0.66878  0.65551  0.19685  1.0000
  H   H7312     1.0  0.90030  0.65030  0.09224  1.0000
  H   H7313     1.0  0.88493  0.54899  0.17627  1.0000
  C   C4268     1.0  0.89626  0.65255  0.08128  1.0000
  H   H7314     1.0  0.74394  0.57387  0.00195  1.0000
  C   C4269     1.0  0.88278  0.65263  0.20966  1.0000
  H   H7315     1.0  0.86941  0.64977  0.18924  1.0000
  H   H7316     1.0  0.65325  0.67287  0.16919  1.0000
  C   C4270     1.0  0.57607  0.50585  0.15601  1.0000
  Fe  Fe608     1.0  0.60381  0.56170  0.14615  1.0000
  H   H7317     1.0  0.96992  0.61200  0.10438  1.0000
  H   H7318     1.0  0.96737  0.60129  0.12413  1.0000
  H   H7319     1.0  0.57800  0.54383  0.15038  1.0000
  C   C4271     1.0  0.65849  0.69447  0.20895  1.0000
  C   C4272     1.0  0.97448  0.60891  0.11517  1.0000
  C   C4273     1.0  0.93964  0.62288  0.12970  1.0000
  H   H7320     1.0  0.98007  0.57586  0.18803  1.0000
  H   H7321     1.0  0.79506  0.68638  0.21918  1.0000
  H   H7322     1.0  0.50900  0.69836  0.19649  1.0000
  C   C4274     1.0  0.50934  0.68605  0.19673  1.0000
  N   N306      1.0  0.86727  0.66269  0.20652  1.0000
  C   C4275     1.0  0.97692  0.57830  0.19986  1.0000
  H   H7323     1.0  0.95806  0.59993  0.22089  1.0000
  N   N307      1.0  0.95461  0.57664  0.22456  1.0000
  Fe  Fe609     1.0  0.85923  0.49035  0.18539  1.0000
  H   H7324     1.0  0.63204  0.69940  0.19285  1.0000
  H   H7325     1.0  0.63937  0.49357  0.11107  1.0000
  Fe  Fe610     1.0  0.49675  0.66165  0.14335  1.0000
  H   H7326     1.0  0.87101  0.68627  0.20153  1.0000
  H   H7327     1.0  0.76320  0.57953  0.98148  1.0000
  H   H7328     1.0  0.72844  0.49423  0.08403  1.0000
  C   C4276     1.0  0.63231  0.50147  0.11896  1.0000
  H   H7329     1.0  0.65533  0.68732  0.22074  1.0000
  C   C4277     1.0  0.69440  0.56005  0.97738  1.0000
  C   C4278     1.0  0.75453  0.63971  0.21640  1.0000
  C   C4279     1.0  0.67915  0.48569  0.99727  1.0000
  H   H7330     1.0  0.74158  0.64385  0.21930  1.0000
  H   H7331     1.0  0.65712  0.54491  0.99407  1.0000
  S   S1223     1.0  0.56264  0.49466  0.15714  1.0000
  C   C4280     1.0  0.85675  0.66573  0.22175  1.0000
  C   C4281     1.0  0.92813  0.57062  0.22509  1.0000
  H   H7332     1.0  0.98661  0.60182  0.11249  1.0000
  C   C4282     1.0  0.71899  0.48884  0.08382  1.0000
  H   H7333     1.0  0.70784  0.49762  0.08354  1.0000
  H   H7334     1.0  0.84016  0.68760  0.21434  1.0000
  C   C4283     1.0  0.84006  0.67541  0.22076  1.0000
  H   H7335     1.0  0.70647  0.69152  0.21872  1.0000
  H   H7336     1.0  0.49474  0.69598  0.22225  1.0000
  H   H7337     1.0  0.92089  0.58263  0.22459  1.0000
  C   C4284     1.0  0.91093  0.53439  0.22457  1.0000
  C   C4285     1.0  0.62675  0.69896  0.20538  1.0000
  H   H7338     1.0  0.63237  0.68725  0.21123  1.0000
  C   C4286     1.0  0.83715  0.50916  0.25784  1.0000
  H   H7339     1.0  0.82419  0.62019  0.23947  1.0000
  H   H7340     1.0  0.98330  0.50155  0.31163  1.0000
  H   H7341     1.0  0.90137  0.60146  0.30042  1.0000
  H   H7342     1.0  0.94675  0.55510  0.23552  1.0000
  H   H7343     1.0  0.85261  0.58148  0.38895  1.0000
  H   H7344     1.0  0.84815  0.71207  0.34565  1.0000
  H   H7345     1.0  0.83439  0.51379  0.24612  1.0000
  Fe  Fe611     1.0  0.77803  0.66857  0.24895  1.0000
  Fe  Fe612     1.0  0.75866  0.66692  0.28194  1.0000
  S   S1224     1.0  0.74301  0.69035  0.27561  1.0000
  S   S1225     1.0  0.75778  0.65466  0.30707  1.0000
  Fe  Fe613     1.0  0.74330  0.68280  0.25412  1.0000
  H   H7346     1.0  0.78168  0.71082  0.37620  1.0000
  S   S1226     1.0  0.75690  0.65853  0.26175  1.0000
  S   S1227     1.0  0.78111  0.67470  0.26987  1.0000
  H   H7347     1.0  0.91757  0.62117  0.25611  1.0000
  C   C4287     1.0  0.82173  0.50754  0.26993  1.0000
  H   H7348     1.0  0.83898  0.52998  0.28840  1.0000
  H   H7349     1.0  0.98680  0.58790  0.33640  1.0000
  H   H7350     1.0  0.72520  0.65638  0.25496  1.0000
  C   C4288     1.0  0.97989  0.50449  0.33488  1.0000
  H   H7351     1.0  0.98813  0.49317  0.33783  1.0000
  H   H7352     1.0  0.97100  0.57240  0.25648  1.0000
  Fe  Fe614     1.0  0.78767  0.55993  0.37063  1.0000
  S   S1228     1.0  0.77524  0.55087  0.35795  1.0000
  S   S1229     1.0  0.77664  0.56999  0.39210  1.0000
  Fe  Fe615     1.0  0.81725  0.55847  0.34533  1.0000
  S   S1230     1.0  0.80766  0.54960  0.33024  1.0000
  S   S1231     1.0  0.84168  0.56229  0.33914  1.0000
  Fe  Fe616     1.0  0.78565  0.56719  0.33673  1.0000
  S   S1232     1.0  0.77151  0.58127  0.31880  1.0000
  Fe  Fe617     1.0  0.79821  0.53391  0.35243  1.0000
  S   S1233     1.0  0.80360  0.50813  0.35282  1.0000
  S   S1234     1.0  0.79621  0.57749  0.34982  1.0000
  S   S1235     1.0  0.80970  0.54148  0.36714  1.0000
  Fe  Fe618     1.0  0.82185  0.61072  0.42418  1.0000
  S   S1236     1.0  0.80051  0.62079  0.44060  1.0000
  S   S1237     1.0  0.82702  0.58867  0.41539  1.0000
  Fe  Fe619     1.0  0.83891  0.63579  0.42236  1.0000
  S   S1238     1.0  0.81903  0.64811  0.43856  1.0000
  S   S1239     1.0  0.86222  0.64232  0.41165  1.0000
  Fe  Fe620     1.0  0.81744  0.62411  0.45274  1.0000
  Fe  Fe621     1.0  0.80405  0.64389  0.42489  1.0000
  S   S1240     1.0  0.78474  0.66136  0.41453  1.0000
  S   S1241     1.0  0.83853  0.61209  0.43749  1.0000
  S   S1242     1.0  0.82417  0.63342  0.40760  1.0000
  H   H7353     1.0  0.75123  0.63981  0.24106  1.0000
  H   H7354     1.0  0.85619  0.71406  0.36850  1.0000
  H   H7355     1.0  0.92032  0.56266  0.23231  1.0000
  H   H7356     1.0  0.77489  0.68516  0.38910  1.0000
  H   H7357     1.0  0.96874  0.51762  0.31606  1.0000
  S   S1243     1.0  0.85831  0.71399  0.40058  1.0000
  C   C4289     1.0  0.95712  0.49594  0.30918  1.0000
  H   H7358     1.0  0.92966  0.58106  0.27840  1.0000
  C   C4290     1.0  0.99037  0.59401  0.24644  1.0000
  H   H7359     1.0  0.94403  0.52184  0.34421  1.0000
  H   H7360     1.0  0.94860  0.51076  0.28899  1.0000
  H   H7361     1.0  0.80180  0.51524  0.29565  1.0000
  H   H7362     1.0  0.92857  0.59556  0.26102  1.0000
  C   C4291     1.0  0.94176  0.56791  0.23308  1.0000
  S   S1244     1.0  0.76792  0.72085  0.26512  1.0000
  S   S1245     1.0  0.89101  0.59835  0.25671  1.0000
  Fe  Fe622     1.0  0.86022  0.58079  0.24882  1.0000
  S   S1246     1.0  0.86400  0.57708  0.27286  1.0000
  S   S1247     1.0  0.84277  0.57013  0.24434  1.0000
  Fe  Fe623     1.0  0.86497  0.60244  0.26607  1.0000
  S   S1248     1.0  0.85164  0.61807  0.28263  1.0000
  Fe  Fe624     1.0  0.88963  0.57329  0.26163  1.0000
  S   S1249     1.0  0.90887  0.55384  0.26954  1.0000
  C   C4292     1.0  0.78832  0.58735  0.46659  1.0000
  C   C4293     1.0  0.81703  0.61140  0.24182  1.0000
  C   C4294     1.0  0.94647  0.50059  0.33607  1.0000
  C   C4295     1.0  0.86072  0.58731  0.37896  1.0000
  C   C4296     1.0  0.84701  0.54557  0.23093  1.0000
  H   H7363     1.0  0.81598  0.50072  0.26574  1.0000
  S   S1250     1.0  0.95930  0.58515  0.32518  1.0000
  H   H7364     1.0  0.84281  0.51752  0.25981  1.0000
  H   H7365     1.0  0.84159  0.67061  0.44774  1.0000
  H   H7366     1.0  0.87812  0.50412  0.24945  1.0000
  Fe  Fe625     1.0  0.94867  0.56934  0.31846  1.0000
  S   S1251     1.0  0.92264  0.57155  0.32485  1.0000
  H   H7367     1.0  0.78538  0.66698  0.31846  1.0000
  H   H7368     1.0  0.93710  0.62298  0.25416  1.0000
  H   H7369     1.0  0.92741  0.52108  0.33821  1.0000
  C   C4297     1.0  0.96921  0.52288  0.25696  1.0000
  H   H7370     1.0  0.92962  0.59832  0.29335  1.0000
  C   C4298     1.0  0.90093  0.61325  0.30168  1.0000
  H   H7371     1.0  0.81763  0.60381  0.36794  1.0000
  Fe  Fe626     1.0  0.97988  0.55358  0.30064  1.0000
  C   C4299     1.0  0.96264  0.53611  0.26324  1.0000
  H   H7372     1.0  0.96455  0.54949  0.27834  1.0000
  H   H7373     1.0  0.95152  0.54327  0.26101  1.0000
  C   C4300     1.0  0.91169  0.55627  0.28675  1.0000
  C   C4301     1.0  0.89997  0.56579  0.29555  1.0000
  C   C4302     1.0  0.90297  0.56959  0.30811  1.0000
  C   C4303     1.0  0.91790  0.56426  0.31143  1.0000
  C   C4304     1.0  0.92941  0.55412  0.30306  1.0000
  C   C4305     1.0  0.92614  0.54983  0.29095  1.0000
  H   H7374     1.0  0.88869  0.57029  0.29247  1.0000
  H   H7375     1.0  0.89400  0.57724  0.31475  1.0000
  H   H7376     1.0  0.94097  0.54991  0.30561  1.0000
  H   H7377     1.0  0.93499  0.54212  0.28442  1.0000
  C   C4306     1.0  0.81101  0.62384  0.26960  1.0000
  H   H7378     1.0  0.84551  0.49779  0.25746  1.0000
  H   H7379     1.0  0.91800  0.49934  0.27768  1.0000
  C   C4307     1.0  0.99138  0.51751  0.26892  1.0000
  C   C4308     1.0  0.91843  0.51662  0.25517  1.0000
  H   H7380     1.0  0.83655  0.54575  0.43766  1.0000
  S   S1252     1.0  0.80287  0.72641  0.38188  1.0000
  H   H7381     1.0  0.62895  0.68613  0.23541  1.0000
  H   H7382     1.0  0.81874  0.68642  0.35057  1.0000
  C   C4309     1.0  0.79986  0.72147  0.29584  1.0000
  H   H7383     1.0  0.84870  0.55564  0.37092  1.0000
  S   S1253     1.0  0.98948  0.55501  0.35015  1.0000
  C   C4310     1.0  0.93329  0.62465  0.30012  1.0000
  H   H7384     1.0  0.84620  0.50454  0.28496  1.0000
  H   H7385     1.0  0.87360  0.53339  0.24425  1.0000
  C   C4311     1.0  0.82908  0.56167  0.45336  1.0000
  H   H7386     1.0  0.88522  0.48484  0.25975  1.0000
  H   H7387     1.0  0.91124  0.51945  0.27966  1.0000
  H   H7388     1.0  0.82963  0.59609  0.25854  1.0000
  Fe  Fe627     1.0  0.97303  0.58802  0.30051  1.0000
  H   H7389     1.0  0.86224  0.68853  0.43909  1.0000
  C   C4312     1.0  0.79871  0.68536  0.41180  1.0000
  C   C4313     1.0  0.80216  0.70008  0.40477  1.0000
  H   H7390     1.0  0.80344  0.67834  0.42175  1.0000
  H   H7391     1.0  0.80957  0.70433  0.40928  1.0000
  C   C4314     1.0  0.86123  0.66208  0.40986  1.0000
  C   C4315     1.0  0.84673  0.67237  0.41286  1.0000
  C   C4316     1.0  0.85972  0.69392  0.40568  1.0000
  C   C4317     1.0  0.87430  0.68366  0.40290  1.0000
  C   C4318     1.0  0.87504  0.66771  0.40498  1.0000
  H   H7392     1.0  0.83601  0.66824  0.41623  1.0000
  H   H7393     1.0  0.88493  0.68808  0.39873  1.0000
  H   H7394     1.0  0.88629  0.65977  0.40261  1.0000
  C   C4319     1.0  0.84433  0.57919  0.32491  1.0000
  C   C4320     1.0  0.85945  0.58011  0.31627  1.0000
  C   C4321     1.0  0.86182  0.59293  0.30403  1.0000
  C   C4322     1.0  0.84913  0.60492  0.30056  1.0000
  C   C4323     1.0  0.83417  0.60472  0.31006  1.0000
  C   C4324     1.0  0.83171  0.59169  0.32210  1.0000
  H   H7395     1.0  0.86917  0.57047  0.31854  1.0000
  H   H7396     1.0  0.87338  0.59334  0.29681  1.0000
  H   H7397     1.0  0.82437  0.61411  0.30750  1.0000
  H   H7398     1.0  0.82005  0.59123  0.32892  1.0000
  C   C4325     1.0  0.79048  0.57537  0.39867  1.0000
  C   C4326     1.0  0.78596  0.58801  0.40602  1.0000
  C   C4327     1.0  0.79708  0.59242  0.41108  1.0000
  C   C4328     1.0  0.81261  0.58388  0.40919  1.0000
  C   C4329     1.0  0.81696  0.57103  0.40224  1.0000
  C   C4330     1.0  0.80603  0.56698  0.39671  1.0000
  H   H7399     1.0  0.77392  0.59449  0.40766  1.0000
  H   H7400     1.0  0.79361  0.60231  0.41653  1.0000
  H   H7401     1.0  0.82887  0.56422  0.40099  1.0000
  H   H7402     1.0  0.80958  0.55711  0.39127  1.0000
  H   H7403     1.0  0.83017  0.66251  0.46527  1.0000
  C   C4331     1.0  0.78257  0.68928  0.39344  1.0000
  H   H7404     1.0  0.89434  0.51997  0.23096  1.0000
  H   H7405     1.0  0.81251  0.59046  0.25838  1.0000
  H   H7406     1.0  0.78968  0.59537  0.27747  1.0000
  H   H7407     1.0  0.80718  0.58606  0.44634  1.0000
  H   H7408     1.0  0.61024  0.71562  0.22958  1.0000
  C   C4332     1.0  0.76822  0.49808  0.34069  1.0000
  C   C4333     1.0  0.77685  0.50617  0.34511  1.0000
  C   C4334     1.0  0.79268  0.49980  0.34541  1.0000
  H   H7409     1.0  0.87395  0.66049  0.46427  1.0000
  Fe  Fe628     1.0  0.88487  0.60000  0.23419  1.0000
  H   H7410     1.0  0.75587  0.50284  0.34088  1.0000
  H   H7411     1.0  0.77114  0.51705  0.34875  1.0000
  H   H7412     1.0  0.84630  0.57578  0.46340  1.0000
  H   H7413     1.0  0.92826  0.50879  0.24876  1.0000
  C   C4335     1.0  0.92470  0.59349  0.27385  1.0000
  C   C4336     1.0  0.76197  0.63432  0.30976  1.0000
  C   C4337     1.0  0.77360  0.62521  0.31783  1.0000
  C   C4338     1.0  0.77676  0.60890  0.32045  1.0000
  C   C4339     1.0  0.76788  0.60164  0.31557  1.0000
  C   C4340     1.0  0.75631  0.61078  0.30740  1.0000
  C   C4341     1.0  0.75349  0.62711  0.30433  1.0000
  H   H7414     1.0  0.78037  0.63077  0.32180  1.0000
  H   H7415     1.0  0.78619  0.60198  0.32605  1.0000
  H   H7416     1.0  0.74958  0.60522  0.30337  1.0000
  H   H7417     1.0  0.74450  0.63411  0.29806  1.0000
  H   H7418     1.0  0.92700  0.64207  0.28079  1.0000
  H   H7419     1.0  0.83298  0.61418  0.35963  1.0000
  C   C4342     1.0  0.81526  0.59775  0.28585  1.0000
  C   C4343     1.0  0.87404  0.53176  0.25651  1.0000
  H   H7420     1.0  0.82919  0.60474  0.38027  1.0000
  C   C4344     1.0  0.82851  0.52502  0.29057  1.0000
  H   H7421     1.0  0.81725  0.55709  0.43751  1.0000
  H   H7422     1.0  0.94194  0.73144  0.36417  1.0000
  C   C4345     1.0  0.86972  0.67712  0.44328  1.0000
  C   C4346     1.0  0.80228  0.70835  0.28966  1.0000
  H   H7423     1.0  0.77873  0.68315  0.30397  1.0000
  S   S1254     1.0  0.96639  0.54766  0.32515  1.0000
  H   H7424     1.0  0.94895  0.48823  0.31100  1.0000
  H   H7425     1.0  0.72070  0.61102  0.39329  1.0000
  C   C4347     1.0  0.93219  0.62934  0.28290  1.0000
  C   C4348     1.0  0.92389  0.73253  0.42807  1.0000
  H   H7426     1.0  0.80801  0.63145  0.25869  1.0000
  H   H7427     1.0  0.85941  0.55673  0.38452  1.0000
  C   C4349     1.0  0.85937  0.60375  0.38148  1.0000
  H   H7428     1.0  0.90424  0.72358  0.44355  1.0000
  H   H7429     1.0  0.94851  0.49545  0.34808  1.0000
  C   C4350     1.0  0.94514  0.73074  0.44010  1.0000
  C   C4351     1.0  0.78893  0.67991  0.40612  1.0000
  C   C4352     1.0  0.89082  0.52969  0.25831  1.0000
  H   H7430     1.0  0.95678  0.73226  0.43905  1.0000
  S   S1255     1.0  0.95905  0.51803  0.24594  1.0000
  H   H7431     1.0  0.86876  0.66830  0.43757  1.0000
  C   C4353     1.0  0.84599  0.68826  0.41079  1.0000
  H   H7432     1.0  0.77147  0.63430  0.23181  1.0000
  C   C4354     1.0  0.79124  0.60737  0.27596  1.0000
  S   S1256     1.0  0.85884  0.60653  0.24303  1.0000
  N   N308      1.0  0.74921  0.61241  0.36820  1.0000
  C   C4355     1.0  0.74378  0.59761  0.37038  1.0000
  C   C4356     1.0  0.74389  0.61718  0.38367  1.0000
  C   C4357     1.0  0.76693  0.60879  0.36354  1.0000
  C   C4358     1.0  0.74222  0.62443  0.35553  1.0000
  C   C4359     1.0  0.74902  0.58993  0.35620  1.0000
  C   C4360     1.0  0.72599  0.62136  0.38991  1.0000
  C   C4361     1.0  0.77569  0.61918  0.36710  1.0000
  C   C4362     1.0  0.74495  0.64102  0.35225  1.0000
  H   H7433     1.0  0.74789  0.58863  0.38031  1.0000
  H   H7434     1.0  0.73077  0.59966  0.37336  1.0000
  H   H7435     1.0  0.74829  0.62741  0.38343  1.0000
  H   H7436     1.0  0.74900  0.60768  0.39271  1.0000
  H   H7437     1.0  0.77185  0.59677  0.36944  1.0000
  H   H7438     1.0  0.77093  0.60897  0.35092  1.0000
  H   H7439     1.0  0.74707  0.62078  0.34420  1.0000
  H   H7440     1.0  0.72942  0.62519  0.35736  1.0000
  H   H7441     1.0  0.74521  0.57869  0.35961  1.0000
  H   H7442     1.0  0.74349  0.59713  0.34640  1.0000
  H   H7443     1.0  0.76191  0.58718  0.35209  1.0000
  C   C4363     1.0  0.98443  0.53037  0.27581  1.0000
  H   H7444     1.0  0.71998  0.63071  0.38153  1.0000
  H   H7445     1.0  0.80824  0.49872  0.30949  1.0000
  H   H7446     1.0  0.78831  0.61617  0.36143  1.0000
  H   H7447     1.0  0.77513  0.61686  0.37979  1.0000
  H   H7448     1.0  0.77139  0.63175  0.36266  1.0000
  H   H7449     1.0  0.75637  0.64206  0.34403  1.0000
  H   H7450     1.0  0.74424  0.64494  0.36285  1.0000
  H   H7451     1.0  0.73548  0.64937  0.34681  1.0000
  N   N309      1.0  0.80837  0.60767  0.27212  1.0000
  S   S1257     1.0  0.88593  0.71212  0.42870  1.0000
  H   H7452     1.0  0.85180  0.61344  0.37491  1.0000
  H   H7453     1.0  0.86933  0.68006  0.46578  1.0000
  H   H7454     1.0  0.78885  0.63570  0.28280  1.0000
  C   C4364     1.0  0.97315  0.50518  0.32093  1.0000
  Fe  Fe629     1.0  0.76546  0.69778  0.26245  1.0000
  H   H7455     1.0  0.78001  0.59412  0.45896  1.0000
  H   H7456     1.0  0.81370  0.51925  0.26904  1.0000
  C   C4365     1.0  0.71653  0.67526  0.23729  1.0000
  C   C4366     1.0  0.80737  0.50259  0.29708  1.0000
  H   H7457     1.0  0.90794  0.61208  0.31020  1.0000
  C   C4367     1.0  0.79261  0.70803  0.28017  1.0000
  H   H7458     1.0  0.89580  0.49204  0.24080  1.0000
  C   C4368     1.0  0.82064  0.57945  0.47159  1.0000
  H   H7459     1.0  0.98892  0.50348  0.25469  1.0000
  Fe  Fe630     1.0  0.97829  0.56381  0.32964  1.0000
  H   H7460     1.0  0.71609  0.63661  0.24779  1.0000
  H   H7461     1.0  0.78328  0.48671  0.38764  1.0000
  C   C4369     1.0  0.80163  0.63295  0.28236  1.0000
  H   H7462     1.0  0.80872  0.60172  0.29675  1.0000
  H   H7463     1.0  0.83476  0.69625  0.41277  1.0000
  H   H7464     1.0  0.50339  0.67643  0.22843  1.0000
  H   H7465     1.0  0.72363  0.62579  0.40066  1.0000
  S   S1258     1.0  0.79679  0.65368  0.23401  1.0000
  H   H7466     1.0  0.89851  0.62321  0.27828  1.0000
  C   C4370     1.0  0.75550  0.72776  0.32192  1.0000
  C   C4371     1.0  0.62797  0.69692  0.23914  1.0000
  S   S1259     1.0  0.96094  0.57379  0.29334  1.0000
  H   H7467     1.0  0.91178  0.59526  0.27711  1.0000
  C   C4372     1.0  0.91954  0.51144  0.27246  1.0000
  H   H7468     1.0  0.88526  0.60736  0.33821  1.0000
  H   H7469     1.0  0.73645  0.67656  0.34879  1.0000
  C   C4373     1.0  0.92154  0.72242  0.45584  1.0000
  H   H7470     1.0  0.78882  0.68553  0.31747  1.0000
  H   H7471     1.0  0.80522  0.64424  0.27949  1.0000
  Fe  Fe631     1.0  0.86961  0.72050  0.44951  1.0000
  C   C4374     1.0  0.97007  0.53970  0.27291  1.0000
  H   H7472     1.0  0.83573  0.57920  0.37383  1.0000
  C   C4375     1.0  0.88885  0.49547  0.25186  1.0000
  H   H7473     1.0  0.93602  0.57091  0.24458  1.0000
  H   H7474     1.0  0.76903  0.62114  0.27040  1.0000
  H   H7475     1.0  0.79451  0.69784  0.27556  1.0000
  H   H7476     1.0  0.88209  0.67839  0.43938  1.0000
  H   H7477     1.0  0.94444  0.62804  0.27584  1.0000
  C   C4376     1.0  0.70641  0.65278  0.22895  1.0000
  C   C4377     1.0  0.92469  0.62651  0.26045  1.0000
  H   H7478     1.0  0.89308  0.50060  0.27189  1.0000
  H   H7479     1.0  0.86854  0.54551  0.36991  1.0000
  C   C4378     1.0  0.81703  0.60068  0.25814  1.0000
  H   H7480     1.0  0.81149  0.69831  0.29242  1.0000
  H   H7481     1.0  0.80391  0.62688  0.29400  1.0000
  H   H7482     1.0  0.93688  0.51559  0.30685  1.0000
  H   H7483     1.0  0.86883  0.52181  0.26377  1.0000
  H   H7484     1.0  0.86659  0.54240  0.26053  1.0000
  H   H7485     1.0  0.88850  0.61805  0.30681  1.0000
  H   H7486     1.0  0.82760  0.59878  0.28411  1.0000
  H   H7487     1.0  0.93773  0.61199  0.30418  1.0000
  H   H7488     1.0  0.82254  0.57455  0.27968  1.0000
  C   C4379     1.0  0.71406  0.64858  0.24137  1.0000
  C   C4380     1.0  0.78140  0.61778  0.26415  1.0000
  H   H7489     1.0  0.91445  0.71834  0.46704  1.0000
  H   H7490     1.0  0.80367  0.57775  0.29325  1.0000
  H   H7491     1.0  0.87117  0.60627  0.37917  1.0000
  C   C4381     1.0  0.77542  0.48373  0.33638  1.0000
  C   C4382     1.0  0.90597  0.62397  0.28575  1.0000
  H   H7492     1.0  0.88857  0.58678  0.34073  1.0000
  H   H7493     1.0  0.94373  0.60199  0.27586  1.0000
  H   H7494     1.0  0.82148  0.57430  0.29946  1.0000
  C   C4383     1.0  0.98644  0.60699  0.23477  1.0000
  C   C4384     1.0  0.97568  0.62289  0.25412  1.0000
  N   N310      1.0  0.92316  0.62074  0.27784  1.0000
  N   N311      1.0  0.84388  0.69036  0.36162  1.0000
  C   C4385     1.0  0.97920  0.62146  0.23863  1.0000
  C   C4386     1.0  0.84413  0.68487  0.34745  1.0000
  C   C4387     1.0  0.85967  0.68445  0.36601  1.0000
  C   C4388     1.0  0.83093  0.68588  0.37518  1.0000
  Fe  Fe632     1.0  0.86540  0.72287  0.41734  1.0000
  C   C4389     1.0  0.82868  0.69038  0.34159  1.0000
  C   C4390     1.0  0.86776  0.66721  0.36614  1.0000
  C   C4391     1.0  0.83023  0.66853  0.38064  1.0000
  H   H7495     1.0  0.85125  0.64469  0.44666  1.0000
  C   C4392     1.0  0.84251  0.66333  0.45956  1.0000
  H   H7496     1.0  0.84716  0.67201  0.34930  1.0000
  H   H7497     1.0  0.85358  0.68879  0.33760  1.0000
  H   H7498     1.0  0.86824  0.69127  0.35785  1.0000
  H   H7499     1.0  0.85880  0.68629  0.37775  1.0000
  H   H7500     1.0  0.83153  0.68949  0.38558  1.0000
  H   H7501     1.0  0.81923  0.69250  0.37293  1.0000
  H   H7502     1.0  0.82103  0.54083  0.45372  1.0000
  C   C4393     1.0  0.98362  0.51355  0.25978  1.0000
  C   C4394     1.0  0.83930  0.68732  0.46826  1.0000
  H   H7503     1.0  0.97632  0.63156  0.22974  1.0000
  H   H7504     1.0  0.82563  0.70322  0.33748  1.0000
  H   H7505     1.0  0.83012  0.68534  0.33142  1.0000
  H   H7506     1.0  0.87140  0.66483  0.35428  1.0000
  H   H7507     1.0  0.86066  0.65900  0.37409  1.0000
  H   H7508     1.0  0.87868  0.66456  0.37052  1.0000
  H   H7509     1.0  0.83650  0.66278  0.39025  1.0000
  H   H7510     1.0  0.83475  0.66183  0.37140  1.0000
  H   H7511     1.0  0.81777  0.66759  0.38513  1.0000
  H   H7512     1.0  0.88661  0.59520  0.35704  1.0000
  N   N312      1.0  0.84888  0.67093  0.46843  1.0000
  H   H7513     1.0  0.83942  0.55506  0.45833  1.0000
  H   H7514     1.0  0.90201  0.63616  0.28746  1.0000
  C   C4395     1.0  0.79551  0.49466  0.29475  1.0000
  H   H7515     1.0  0.89430  0.54102  0.25301  1.0000
  C   C4396     1.0  0.79635  0.70915  0.39169  1.0000
  C   C4397     1.0  0.81563  0.58013  0.28952  1.0000
  H   H7516     1.0  0.95742  0.58931  0.24931  1.0000
  H   H7517     1.0  0.92197  0.62891  0.30774  1.0000
  C   C4398     1.0  0.82551  0.55073  0.44527  1.0000
  C   C4399     1.0  0.93618  0.72523  0.45472  1.0000
  C   C4400     1.0  0.94915  0.51184  0.30060  1.0000
  H   H7518     1.0  0.87278  0.58070  0.38023  1.0000
  S   S1260     1.0  0.76441  0.69244  0.24023  1.0000
  H   H7519     1.0  0.62674  0.72118  0.23052  1.0000
  C   C4401     1.0  0.78641  0.70381  0.38612  1.0000
  N   N313      1.0  0.90302  0.51681  0.25176  1.0000
  H   H7520     1.0  0.83293  0.67586  0.23270  1.0000
  H   H7521     1.0  0.78498  0.62893  0.25839  1.0000
  H   H7522     1.0  0.88989  0.52795  0.27098  1.0000
  H   H7523     1.0  0.82371  0.62338  0.26818  1.0000
  S   S1261     1.0  0.78348  0.73078  0.34595  1.0000
  H   H7524     1.0  0.93144  0.51176  0.27314  1.0000
  C   C4402     1.0  0.97936  0.60983  0.26581  1.0000
  H   H7525     1.0  0.73403  0.71599  0.29414  1.0000
  H   H7526     1.0  0.92802  0.65056  0.25511  1.0000
  H   H7527     1.0  0.90986  0.49183  0.25937  1.0000
  H   H7528     1.0  0.92122  0.52838  0.25106  1.0000
  H   H7529     1.0  0.78173  0.61148  0.25526  1.0000
  H   H7530     1.0  0.83970  0.69414  0.45610  1.0000
  H   H7531     1.0  0.78540  0.61027  0.28744  1.0000
  S   S1262     1.0  0.72303  0.68957  0.24193  1.0000
  H   H7532     1.0  0.78419  0.49744  0.30311  1.0000
  H   H7533     1.0  0.94189  0.63044  0.30158  1.0000
  H   H7534     1.0  0.85429  0.60387  0.39399  1.0000
  C   C4403     1.0  0.93083  0.60363  0.28074  1.0000
  C   C4404     1.0  0.94045  0.51832  0.33526  1.0000
  H   H7535     1.0  0.94389  0.52588  0.32383  1.0000
  N   N314      1.0  0.75428  0.69910  0.32461  1.0000
  C   C4405     1.0  0.76441  0.68290  0.32792  1.0000
  C   C4406     1.0  0.74015  0.70020  0.33791  1.0000
  C   C4407     1.0  0.76375  0.71041  0.32429  1.0000
  C   C4408     1.0  0.75000  0.70190  0.30908  1.0000
  C   C4409     1.0  0.78019  0.67970  0.31617  1.0000
  C   C4410     1.0  0.73073  0.68745  0.34163  1.0000
  C   C4411     1.0  0.78069  0.72098  0.27650  1.0000
  C   C4412     1.0  0.73439  0.71344  0.30664  1.0000
  H   H7536     1.0  0.76706  0.68010  0.33970  1.0000
  H   H7537     1.0  0.75816  0.67397  0.32805  1.0000
  H   H7538     1.0  0.73179  0.71161  0.33589  1.0000
  H   H7539     1.0  0.74372  0.69968  0.34879  1.0000
  H   H7540     1.0  0.76812  0.70730  0.33525  1.0000
  H   H7541     1.0  0.77436  0.70977  0.31474  1.0000
  H   H7542     1.0  0.75943  0.70605  0.29943  1.0000
  H   H7543     1.0  0.74930  0.69082  0.30672  1.0000
  H   H7544     1.0  0.81525  0.68508  0.46991  1.0000
  H   H7545     1.0  0.78180  0.57982  0.47644  1.0000
  C   C4413     1.0  0.89895  0.50111  0.25941  1.0000
  H   H7546     1.0  0.61855  0.69655  0.24989  1.0000
  S   S1263     1.0  0.94264  0.72309  0.47169  1.0000
  H   H7547     1.0  0.71880  0.69132  0.34858  1.0000
  H   H7548     1.0  0.79159  0.59596  0.47091  1.0000
  C   C4414     1.0  0.80261  0.57776  0.45697  1.0000
  N   N315      1.0  0.96106  0.49553  0.32427  1.0000
  H   H7549     1.0  0.72413  0.70835  0.31331  1.0000
  C   C4415     1.0  0.84077  0.70797  0.35724  1.0000
  C   C4416     1.0  0.91938  0.64427  0.25465  1.0000
  N   N316      1.0  0.85788  0.58641  0.36377  1.0000
  C   C4417     1.0  0.86610  0.57045  0.36054  1.0000
  C   C4418     1.0  0.86428  0.59818  0.35001  1.0000
  C   C4419     1.0  0.84061  0.58844  0.36467  1.0000
  C   C4420     1.0  0.86018  0.55646  0.37231  1.0000
  C   C4421     1.0  0.88220  0.59666  0.34648  1.0000
  C   C4422     1.0  0.82976  0.60381  0.36830  1.0000
  H   H7550     1.0  0.86544  0.56976  0.34879  1.0000
  H   H7551     1.0  0.87886  0.56809  0.36027  1.0000
  H   H7552     1.0  0.85870  0.61031  0.35120  1.0000
  H   H7553     1.0  0.86137  0.59734  0.33924  1.0000
  H   H7554     1.0  0.83875  0.58723  0.35361  1.0000
  C   C4423     1.0  0.75945  0.63345  0.23225  1.0000
  H   H7555     1.0  0.80516  0.61733  0.23988  1.0000
  H   H7556     1.0  0.82839  0.71300  0.35613  1.0000
  H   H7557     1.0  0.72945  0.68482  0.33098  1.0000
  H   H7558     1.0  0.95576  0.52096  0.29842  1.0000
  C   C4424     1.0  0.83378  0.50727  0.29140  1.0000
  C   C4425     1.0  0.71929  0.65974  0.24541  1.0000
  H   H7559     1.0  0.91877  0.64674  0.24222  1.0000
  C   C4426     1.0  0.90529  0.51951  0.23433  1.0000
  H   H7560     1.0  0.95161  0.57081  0.25837  1.0000
  H   H7561     1.0  0.93662  0.49598  0.33537  1.0000
  H   H7562     1.0  0.91398  0.50947  0.23004  1.0000
  H   H7563     1.0  0.84549  0.63789  0.46746  1.0000
  H   H7564     1.0  0.97006  0.63411  0.25704  1.0000
  C   C4427     1.0  0.98672  0.59538  0.26197  1.0000
  H   H7565     1.0  0.82004  0.59102  0.46335  1.0000
  H   H7566     1.0  0.81637  0.70137  0.47628  1.0000
  H   H7567     1.0  0.83346  0.57124  0.44412  1.0000
  C   C4428     1.0  0.85130  0.64651  0.45815  1.0000
  H   H7568     1.0  0.83446  0.50194  0.30375  1.0000
  S   S1264     1.0  0.98491  0.73061  0.45565  1.0000
  N   N317      1.0  0.82338  0.50011  0.28646  1.0000
  C   C4429     1.0  0.86576  0.67184  0.46114  1.0000
  H   H7569     1.0  0.88948  0.65658  0.22932  1.0000
  H   H7570     1.0  0.98978  0.58527  0.27093  1.0000
  H   H7571     1.0  0.75925  0.62087  0.23634  1.0000
  H   H7572     1.0  0.82265  0.60420  0.23294  1.0000
  H   H7573     1.0  0.96791  0.49148  0.30090  1.0000
  H   H7574     1.0  0.82051  0.52747  0.30166  1.0000
  S   S1265     1.0  0.97460  0.61159  0.28518  1.0000
  H   H7575     1.0  0.79301  0.49904  0.28294  1.0000
  H   H7576     1.0  0.91060  0.68483  0.47469  1.0000
  H   H7577     1.0  0.75338  0.73239  0.31000  1.0000
  H   H7578     1.0  0.93071  0.69502  0.47636  1.0000
  H   H7579     1.0  0.90757  0.64903  0.26120  1.0000
  H   H7580     1.0  0.82258  0.53153  0.28091  1.0000
  H   H7581     1.0  0.86378  0.64387  0.45871  1.0000
  H   H7582     1.0  0.97057  0.50666  0.34526  1.0000
  H   H7583     1.0  0.73296  0.72475  0.30957  1.0000
  S   S1266     1.0  0.88586  0.57462  0.23828  1.0000
  N   N318      1.0  0.81564  0.56842  0.46526  1.0000
  Fe  Fe633     1.0  0.96233  0.49208  0.25039  1.0000
  S   S1267     1.0  0.81142  0.72107  0.30864  1.0000
  H   H7584     1.0  0.74458  0.73025  0.33079  1.0000
  C   C4430     1.0  0.82177  0.68888  0.47628  1.0000
  C   C4431     1.0  0.84354  0.71609  0.36863  1.0000
  H   H7585     1.0  0.83628  0.54320  0.23895  1.0000
  H   H7586     1.0  0.84436  0.69371  0.47372  1.0000
  S   S1268     1.0  0.86893  0.70929  0.47462  1.0000
  C   C4432     1.0  0.79993  0.48570  0.34073  1.0000
  H   H7587     1.0  0.83700  0.71252  0.38070  1.0000
  H   H7588     1.0  0.97146  0.55908  0.23657  1.0000
  H   H7589     1.0  0.98683  0.51360  0.33160  1.0000
  S   S1269     1.0  0.82042  0.49157  0.23640  1.0000
  H   H7590     1.0  0.63910  0.69653  0.24219  1.0000
  H   H7591     1.0  0.94419  0.66779  0.47511  1.0000
  H   H7592     1.0  0.83929  0.72887  0.36496  1.0000
  C   C4433     1.0  0.96103  0.57650  0.25051  1.0000
  H   H7593     1.0  0.79777  0.57011  0.45282  1.0000
  H   H7594     1.0  0.81765  0.72854  0.41885  1.0000
  H   H7595     1.0  0.80299  0.54961  0.47413  1.0000
  H   H7596     1.0  0.98961  0.70654  0.41372  1.0000
  C   C4434     1.0  0.85214  0.55882  0.23040  1.0000
  H   H7597     1.0  0.85572  0.65462  0.23045  1.0000
  C   C4435     1.0  0.83742  0.57478  0.47454  1.0000
  C   C4436     1.0  0.91555  0.72580  0.44250  1.0000
  S   S1270     1.0  0.84844  0.72844  0.43901  1.0000
  H   H7598     1.0  0.80230  0.64819  0.47604  1.0000
  C   C4437     1.0  0.96662  0.57191  0.23454  1.0000
  H   H7599     1.0  0.93950  0.59701  0.23264  1.0000
  H   H7600     1.0  0.97687  0.57731  0.22860  1.0000
  H   H7601     1.0  0.86194  0.67213  0.22706  1.0000
  S   S1271     1.0  0.99321  0.56824  0.30559  1.0000
  C   C4438     1.0  0.62330  0.71200  0.22720  1.0000
  H   H7602     1.0  0.90259  0.54508  0.22749  1.0000
  H   H7603     1.0  0.81997  0.67114  0.70939  1.0000
  H   H7604     1.0  0.81522  0.58642  0.68619  1.0000
  H   H7605     1.0  0.80695  0.66268  0.66238  1.0000
  Fe  Fe634     1.0  0.80138  0.56050  0.68336  1.0000
  S   S1272     1.0  0.82104  0.56825  0.66436  1.0000
  S   S1273     1.0  0.78702  0.57456  0.70131  1.0000
  Fe  Fe635     1.0  0.80652  0.52965  0.67326  1.0000
  S   S1274     1.0  0.82697  0.53487  0.65386  1.0000
  S   S1275     1.0  0.79837  0.50693  0.68050  1.0000
  Fe  Fe636     1.0  0.83410  0.54358  0.67105  1.0000
  S   S1276     1.0  0.85825  0.53786  0.67604  1.0000
  Fe  Fe637     1.0  0.81177  0.55898  0.64924  1.0000
  S   S1277     1.0  0.80642  0.57194  0.62586  1.0000
  S   S1278     1.0  0.81497  0.53628  0.69089  1.0000
  S   S1279     1.0  0.79084  0.55323  0.66775  1.0000
  H   H7606     1.0  0.94845  0.66427  0.49418  1.0000
  H   H7607     1.0  0.82656  0.60514  0.69215  1.0000
  Fe  Fe638     1.0  0.81929  0.67615  0.56494  1.0000
  S   S1280     1.0  0.84307  0.66397  0.56939  1.0000
  S   S1281     1.0  0.80407  0.69649  0.57520  1.0000
  Fe  Fe639     1.0  0.82215  0.65829  0.54018  1.0000
  S   S1282     1.0  0.84633  0.64425  0.54273  1.0000
  S   S1283     1.0  0.80926  0.66278  0.52085  1.0000
  Fe  Fe640     1.0  0.83650  0.64235  0.56851  1.0000
  S   S1284     1.0  0.84562  0.62245  0.58692  1.0000
  Fe  Fe641     1.0  0.85102  0.66669  0.54370  1.0000
  S   S1285     1.0  0.87340  0.67433  0.53108  1.0000
  S   S1286     1.0  0.81172  0.65446  0.56605  1.0000
  S   S1287     1.0  0.82794  0.68084  0.53917  1.0000
  C   C4439     1.0  0.87587  0.68879  0.53881  1.0000
  C   C4440     1.0  0.86707  0.70406  0.53561  1.0000
  H   H7608     1.0  0.91305  0.52569  0.70711  1.0000
  C   C4441     1.0  0.96465  0.49596  0.70702  1.0000
  C   C4442     1.0  0.89125  0.69725  0.55145  1.0000
  C   C4443     1.0  0.88781  0.68538  0.54690  1.0000
  C   C4444     1.0  0.81614  0.62211  0.64033  1.0000
  H   H7609     1.0  0.82422  0.61439  0.63258  1.0000
  H   H7610     1.0  0.89447  0.67353  0.54955  1.0000
  C   C4445     1.0  0.81560  0.62879  0.48988  1.0000
  C   C4446     1.0  0.86080  0.72530  0.48353  1.0000
  C   C4447     1.0  0.80516  0.65434  0.49610  1.0000
  C   C4448     1.0  0.81156  0.64928  0.50943  1.0000
  C   C4449     1.0  0.82012  0.63396  0.51289  1.0000
  C   C4450     1.0  0.82193  0.62369  0.50325  1.0000
  C   C4451     1.0  0.90966  0.70813  0.50678  1.0000
  H   H7611     1.0  0.79847  0.66615  0.49339  1.0000
  H   H7612     1.0  0.82514  0.62998  0.52310  1.0000
  H   H7613     1.0  0.82827  0.61175  0.50618  1.0000
  C   C4452     1.0  0.81809  0.58508  0.61431  1.0000
  C   C4453     1.0  0.83139  0.58589  0.61862  1.0000
  C   C4454     1.0  0.83997  0.59718  0.60981  1.0000
  C   C4455     1.0  0.83516  0.60784  0.59684  1.0000
  C   C4456     1.0  0.82200  0.60692  0.59236  1.0000
  C   C4457     1.0  0.81356  0.59541  0.60102  1.0000
  H   H7614     1.0  0.83503  0.57783  0.62874  1.0000
  H   H7615     1.0  0.85025  0.59780  0.61319  1.0000
  H   H7616     1.0  0.81831  0.61507  0.58230  1.0000
  H   H7617     1.0  0.80330  0.59475  0.59764  1.0000
  C   C4458     1.0  0.79896  0.49617  0.66694  1.0000
  C   C4459     1.0  0.80311  0.50183  0.65085  1.0000
  C   C4460     1.0  0.80465  0.49231  0.64050  1.0000
  C   C4461     1.0  0.86642  0.58856  0.72120  1.0000
  C   C4462     1.0  0.84798  0.66130  0.48478  1.0000
  H   H7618     1.0  0.81643  0.53315  0.49255  1.0000
  H   H7619     1.0  0.80518  0.51350  0.64640  1.0000
  H   H7620     1.0  0.80790  0.49674  0.62809  1.0000
  H   H7621     1.0  0.84155  0.51878  0.71028  1.0000
  C   C4463     1.0  0.86019  0.61116  0.69908  1.0000
  H   H7622     1.0  0.90570  0.50277  0.70606  1.0000
  C   C4464     1.0  0.86941  0.53949  0.71537  1.0000
  C   C4465     1.0  0.87038  0.53678  0.70072  1.0000
  C   C4466     1.0  0.85741  0.54248  0.69372  1.0000
  C   C4467     1.0  0.84358  0.55117  0.70128  1.0000
  H   H7623     1.0  0.77046  0.65615  0.72529  1.0000
  H   H7624     1.0  0.88103  0.52990  0.69500  1.0000
  H   H7625     1.0  0.83354  0.55575  0.69595  1.0000
  H   H7626     1.0  0.97584  0.49379  0.69832  1.0000
  H   H7627     1.0  0.87425  0.58545  0.67335  1.0000
  N   N319      1.0  0.86853  0.59444  0.70380  1.0000
  H   H7628     1.0  0.98686  0.52209  0.71715  1.0000
  H   H7629     1.0  0.91495  0.70238  0.51697  1.0000
  C   C4468     1.0  0.80432  0.69488  0.59469  1.0000
  C   C4469     1.0  0.79561  0.70709  0.60207  1.0000
  H   H7630     1.0  0.77358  0.65406  0.70596  1.0000
  C   C4470     1.0  0.84259  0.55380  0.71594  1.0000
  H   H7631     1.0  0.85499  0.69502  0.60551  1.0000
  H   H7632     1.0  0.84939  0.62871  0.71334  1.0000
  H   H7633     1.0  0.86445  0.61569  0.68643  1.0000
  H   H7634     1.0  0.95562  0.51939  0.69538  1.0000
  H   H7635     1.0  0.81034  0.68691  0.67783  1.0000
  H   H7636     1.0  0.87345  0.59323  0.72619  1.0000
  C   C4471     1.0  0.81553  0.65802  0.66997  1.0000
  H   H7637     1.0  0.82181  0.67151  0.62400  1.0000
  S   S1288     1.0  0.82384  0.72449  0.65294  1.0000
  S   S1289     1.0  0.81481  0.72690  0.69568  1.0000
  C   C4472     1.0  0.82754  0.71089  0.50482  1.0000
  H   H7638     1.0  0.78839  0.72811  0.53965  1.0000
  C   C4473     1.0  0.81616  0.60168  0.69988  1.0000
  C   C4474     1.0  0.80971  0.59112  0.69641  1.0000
  C   C4475     1.0  0.79600  0.58688  0.70607  1.0000
  C   C4476     1.0  0.79193  0.71069  0.52647  1.0000
  H   H7639     1.0  0.98671  0.55969  0.70192  1.0000
  H   H7640     1.0  0.90997  0.48383  0.71802  1.0000
  H   H7641     1.0  0.77937  0.71122  0.53225  1.0000
  C   C4477     1.0  0.80616  0.69392  0.62508  1.0000
  C   C4478     1.0  0.80737  0.64421  0.48622  1.0000
  C   C4479     1.0  0.93004  0.49479  0.70968  1.0000
  H   H7642     1.0  0.80436  0.71258  0.54232  1.0000
  N   N320      1.0  0.84352  0.72748  0.59396  1.0000
  H   H7643     1.0  0.82203  0.54850  0.49715  1.0000
  C   C4480     1.0  0.89497  0.60241  0.69952  1.0000
  C   C4481     1.0  0.86592  0.72629  0.49622  1.0000
  C   C4482     1.0  0.82226  0.67566  0.69663  1.0000
  H   H7644     1.0  0.86406  0.71248  0.58251  1.0000
  C   C4483     1.0  0.78925  0.71482  0.71285  1.0000
  H   H7645     1.0  0.81893  0.63371  0.63487  1.0000
  C   C4484     1.0  0.78859  0.64980  0.64717  1.0000
  H   H7646     1.0  0.83628  0.65845  0.48973  1.0000
  H   H7647     1.0  0.85338  0.69908  0.57231  1.0000
  H   H7648     1.0  0.93799  0.72214  0.55591  1.0000
  H   H7649     1.0  0.85645  0.49720  0.62189  1.0000
  H   H7650     1.0  0.82368  0.66596  0.66707  1.0000
  H   H7651     1.0  0.78497  0.67503  0.71558  1.0000
  H   H7652     1.0  0.78135  0.65670  0.63855  1.0000
  H   H7653     1.0  0.79993  0.56152  0.48712  1.0000
  C   C4485     1.0  0.93971  0.59178  0.71200  1.0000
  H   H7654     1.0  0.82201  0.60411  0.66075  1.0000
  H   H7655     1.0  0.97329  0.54945  0.71709  1.0000
  H   H7656     1.0  0.86662  0.63252  0.69932  1.0000
  H   H7657     1.0  0.87108  0.57571  0.72401  1.0000
  C   C4486     1.0  0.98299  0.55557  0.71462  1.0000
  H   H7658     1.0  0.80061  0.65185  0.64279  1.0000
  H   H7659     1.0  0.87432  0.71673  0.50125  1.0000
  H   H7660     1.0  0.89499  0.66229  0.50291  1.0000
  C   C4487     1.0  0.84887  0.49672  0.64707  1.0000
  H   H7661     1.0  0.85579  0.58030  0.67836  1.0000
  C   C4488     1.0  0.95803  0.71413  0.53029  1.0000
  H   H7662     1.0  0.87210  0.49642  0.63110  1.0000
  C   C4489     1.0  0.85950  0.50106  0.63093  1.0000
  H   H7663     1.0  0.89403  0.60153  0.71203  1.0000
  H   H7664     1.0  0.85729  0.70515  0.61898  1.0000
  H   H7665     1.0  0.89150  0.61473  0.69352  1.0000
  H   H7666     1.0  0.95285  0.52459  0.71977  1.0000
  H   H7667     1.0  0.85095  0.50329  0.65452  1.0000
  H   H7668     1.0  0.83646  0.50191  0.64598  1.0000
  H   H7669     1.0  0.83273  0.49997  0.67626  1.0000
  C   C4490     1.0  0.91217  0.49576  0.71523  1.0000
  C   C4491     1.0  0.84230  0.50603  0.71425  1.0000
  C   C4492     1.0  0.88283  0.71261  0.54781  1.0000
  H   H7670     1.0  0.90032  0.70388  0.48975  1.0000
  H   H7671     1.0  0.83969  0.70367  0.50324  1.0000
  H   H7672     1.0  0.85252  0.65970  0.50734  1.0000
  H   H7673     1.0  0.78831  0.71704  0.59596  1.0000
  H   H7674     1.0  0.78811  0.62773  0.66380  1.0000
  H   H7675     1.0  0.81958  0.70274  0.50856  1.0000
  H   H7676     1.0  0.83089  0.66676  0.69070  1.0000
  H   H7677     1.0  0.84233  0.69435  0.62436  1.0000
  N   N321      1.0  0.79934  0.62212  0.64108  1.0000
  H   H7678     1.0  0.93568  0.48488  0.71799  1.0000
  H   H7679     1.0  0.82634  0.70152  0.71907  1.0000
  C   C4493     1.0  0.93336  0.58055  0.72404  1.0000
  H   H7680     1.0  0.92136  0.51263  0.68296  1.0000
  H   H7681     1.0  0.77556  0.63257  0.65106  1.0000
  C   C4494     1.0  0.92462  0.52324  0.68349  1.0000
  H   H7682     1.0  0.89219  0.66776  0.48344  1.0000
  H   H7683     1.0  0.83261  0.54034  0.48031  1.0000
  C   C4495     1.0  0.79572  0.60326  0.72318  1.0000
  H   H7684     1.0  0.83576  0.70365  0.58574  1.0000
  H   H7685     1.0  0.78983  0.71611  0.62282  1.0000
  N   N322      1.0  0.79740  0.66959  0.69306  1.0000
  C   C4496     1.0  0.77975  0.65338  0.71503  1.0000
  C   C4497     1.0  0.84433  0.70906  0.57618  1.0000
  H   H7686     1.0  0.86052  0.50317  0.69353  1.0000
  H   H7687     1.0  0.90764  0.59852  0.69448  1.0000
  H   H7688     1.0  0.81641  0.64914  0.69417  1.0000
  H   H7689     1.0  0.85791  0.70673  0.52926  1.0000
  H   H7690     1.0  0.86828  0.50033  0.71014  1.0000
  H   H7691     1.0  0.83857  0.71555  0.56635  1.0000
  H   H7692     1.0  0.84934  0.58452  0.70392  1.0000
  H   H7693     1.0  0.80688  0.59722  0.64225  1.0000
  H   H7694     1.0  0.96654  0.71939  0.53262  1.0000
  H   H7695     1.0  0.82955  0.71217  0.52720  1.0000
  S   S1290     1.0  0.78712  0.72341  0.67047  1.0000
  C   C4498     1.0  0.80925  0.60769  0.71331  1.0000
  H   H7696     1.0  0.81491  0.72558  0.55249  1.0000
  H   H7697     1.0  0.79226  0.71432  0.51389  1.0000
  H   H7698     1.0  0.78908  0.68318  0.67228  1.0000
  C   C4499     1.0  0.85143  0.66860  0.49641  1.0000
  C   C4500     1.0  0.82088  0.54404  0.48749  1.0000
  H   H7699     1.0  0.79936  0.64255  0.60222  1.0000
  C   C4501     1.0  0.78900  0.59301  0.71945  1.0000
  H   H7700     1.0  0.85990  0.48546  0.70779  1.0000
  H   H7701     1.0  0.82264  0.64674  0.66718  1.0000
  H   H7702     1.0  0.85626  0.64974  0.48488  1.0000
  H   H7703     1.0  0.95364  0.70578  0.54089  1.0000
  C   C4502     1.0  0.95211  0.50797  0.69891  1.0000
  H   H7704     1.0  0.93597  0.52435  0.67521  1.0000
  H   H7705     1.0  0.81725  0.72823  0.58199  1.0000
  H   H7706     1.0  0.87096  0.49125  0.66382  1.0000
  C   C4503     1.0  0.80366  0.63980  0.61312  1.0000
  H   H7707     1.0  0.83328  0.61867  0.65414  1.0000
  N   N323      1.0  0.93546  0.50943  0.70823  1.0000
  H   H7708     1.0  0.86810  0.57177  0.70107  1.0000
  S   S1291     1.0  0.88787  0.72741  0.55291  1.0000
  C   C4504     1.0  0.94445  0.72658  0.52420  1.0000
  H   H7709     1.0  0.93592  0.59539  0.70110  1.0000
  H   H7710     1.0  0.83871  0.58308  0.48073  1.0000
  H   H7711     1.0  0.95320  0.50457  0.68782  1.0000
  H   H7712     1.0  0.91765  0.71481  0.49764  1.0000
  H   H7713     1.0  0.93333  0.53660  0.72038  1.0000
  H   H7714     1.0  0.92372  0.63507  0.71496  1.0000
  H   H7715     1.0  0.79815  0.69827  0.52903  1.0000
  C   C4505     1.0  0.86134  0.62303  0.70775  1.0000
  H   H7716     1.0  0.77126  0.60923  0.65385  1.0000
  H   H7717     1.0  0.85530  0.72843  0.56985  1.0000
  C   C4506     1.0  0.82128  0.61677  0.65602  1.0000
  S   S1292     1.0  0.91884  0.57310  0.72111  1.0000
  H   H7718     1.0  0.94943  0.73204  0.51210  1.0000
  C   C4507     1.0  0.79622  0.62669  0.62486  1.0000
  C   C4508     1.0  0.93443  0.51125  0.72437  1.0000
  C   C4509     1.0  0.84874  0.70199  0.61445  1.0000
  H   H7719     1.0  0.76325  0.68304  0.70218  1.0000
  C   C4510     1.0  0.88585  0.59200  0.69655  1.0000
  C   C4511     1.0  0.85547  0.54797  0.72305  1.0000
  S   S1293     1.0  0.81750  0.62125  0.71689  1.0000
  H   H7720     1.0  0.77480  0.69774  0.69466  1.0000
  H   H7721     1.0  0.82009  0.67233  0.59721  1.0000
  H   H7722     1.0  0.90059  0.69456  0.55760  1.0000
  H   H7723     1.0  0.80059  0.65075  0.61723  1.0000
  H   H7724     1.0  0.84751  0.61182  0.70047  1.0000
  H   H7725     1.0  0.97803  0.56607  0.71972  1.0000
  H   H7726     1.0  0.86387  0.72776  0.53753  1.0000
  C   C4512     1.0  0.86186  0.58417  0.69808  1.0000
  H   H7727     1.0  0.81662  0.63599  0.60979  1.0000
  H   H7728     1.0  0.92945  0.53429  0.69874  1.0000
  H   H7729     1.0  0.80060  0.65882  0.71650  1.0000
  C   C4513     1.0  0.79093  0.66476  0.71026  1.0000
  H   H7730     1.0  0.82642  0.71839  0.49321  1.0000
  H   H7731     1.0  0.85765  0.51397  0.62738  1.0000
  H   H7732     1.0  0.79783  0.60216  0.66061  1.0000
  C   C4514     1.0  0.80727  0.65526  0.68731  1.0000
  H   H7733     1.0  0.78170  0.58974  0.65318  1.0000
  C   C4515     1.0  0.78443  0.67695  0.68425  1.0000
  H   H7734     1.0  0.78067  0.60355  0.63534  1.0000
  H   H7735     1.0  0.88553  0.68204  0.49500  1.0000
  H   H7736     1.0  0.78398  0.65455  0.65788  1.0000
  C   C4516     1.0  0.80531  0.71383  0.71072  1.0000
  C   C4517     1.0  0.79722  0.60561  0.64810  1.0000
  C   C4518     1.0  0.78173  0.60216  0.64746  1.0000
  H   H7737     1.0  0.82790  0.68566  0.69425  1.0000
  N   N324      1.0  0.91693  0.68247  0.49657  1.0000
  H   H7738     1.0  0.93379  0.49087  0.69847  1.0000
  C   C4519     1.0  0.79856  0.72078  0.53305  1.0000
  C   C4520     1.0  0.90475  0.69676  0.50031  1.0000
  C   C4521     1.0  0.91858  0.66998  0.51112  1.0000
  C   C4522     1.0  0.95068  0.59870  0.71412  1.0000
  C   C4523     1.0  0.92527  0.52358  0.70006  1.0000
  C   C4524     1.0  0.86219  0.58800  0.68049  1.0000
  C   C4525     1.0  0.92752  0.67228  0.52215  1.0000
  H   H7739     1.0  0.86823  0.61814  0.71687  1.0000
  H   H7740     1.0  0.83174  0.56033  0.72181  1.0000
  H   H7741     1.0  0.88798  0.59413  0.68369  1.0000
  H   H7742     1.0  0.78251  0.72385  0.70532  1.0000
  H   H7743     1.0  0.89903  0.71685  0.51069  1.0000
  H   H7744     1.0  0.89431  0.69336  0.50888  1.0000
  H   H7745     1.0  0.90683  0.66849  0.51836  1.0000
  H   H7746     1.0  0.92411  0.65832  0.50829  1.0000
  H   H7747     1.0  0.83298  0.72969  0.53919  1.0000
  H   H7748     1.0  0.83363  0.50376  0.70908  1.0000
  H   H7749     1.0  0.83090  0.72272  0.61791  1.0000
  H   H7750     1.0  0.85611  0.60014  0.67629  1.0000
  H   H7751     1.0  0.89183  0.57963  0.70049  1.0000
  H   H7752     1.0  0.91558  0.53338  0.67932  1.0000
  C   C4526     1.0  0.80703  0.68150  0.69043  1.0000
  H   H7753     1.0  0.96455  0.70728  0.52127  1.0000
  H   H7754     1.0  0.93641  0.69339  0.49359  1.0000
  H   H7755     1.0  0.91925  0.67764  0.53163  1.0000
  H   H7756     1.0  0.93651  0.67924  0.51642  1.0000
  H   H7757     1.0  0.93397  0.66073  0.52758  1.0000
  H   H7758     1.0  0.77941  0.66802  0.68233  1.0000
  H   H7759     1.0  0.80005  0.64658  0.68919  1.0000
  H   H7760     1.0  0.84163  0.67828  0.49964  1.0000
  S   S1294     1.0  0.80874  0.69385  0.64340  1.0000
  H   H7761     1.0  0.79999  0.69138  0.69592  1.0000
  C   C4527     1.0  0.77071  0.68886  0.69163  1.0000
  H   H7762     1.0  0.82743  0.71214  0.60644  1.0000
  H   H7763     1.0  0.96710  0.50029  0.71608  1.0000
  H   H7764     1.0  0.81350  0.62342  0.66475  1.0000
  C   C4528     1.0  0.81438  0.68139  0.61796  1.0000
  H   H7765     1.0  0.78338  0.63010  0.62526  1.0000
  H   H7766     1.0  0.80068  0.61652  0.61923  1.0000
  C   C4529     1.0  0.79653  0.70661  0.61724  1.0000
  Fe  Fe642     1.0  0.80383  0.71759  0.64870  1.0000
  C   C4530     1.0  0.78775  0.63248  0.65128  1.0000
  H   H7767     1.0  0.93598  0.72040  0.52302  1.0000
  C   C4531     1.0  0.81349  0.68189  0.60276  1.0000
  H   H7768     1.0  0.84893  0.48650  0.68415  1.0000
  H   H7769     1.0  0.95527  0.60764  0.70489  1.0000
  H   H7770     1.0  0.78627  0.64115  0.71811  1.0000
  C   C4532     1.0  0.87058  0.71598  0.54010  1.0000
  C   C4533     1.0  0.85874  0.49815  0.70624  1.0000
  H   H7771     1.0  0.76312  0.69511  0.68316  1.0000
  C   C4534     1.0  0.89506  0.67190  0.49241  1.0000
  H   H7772     1.0  0.84015  0.56299  0.48186  1.0000
  C   C4535     1.0  0.83683  0.71647  0.60827  1.0000
  Fe  Fe643     1.0  0.80647  0.73230  0.67348  1.0000
  C   C4536     1.0  0.93226  0.68685  0.48758  1.0000
  C   C4537     1.0  0.91125  0.67622  0.48596  1.0000
  H   H7773     1.0  0.87922  0.53452  0.72093  1.0000
  N   N325      1.0  0.80962  0.73051  0.52179  1.0000
  C   C4538     1.0  0.85234  0.71958  0.58062  1.0000
  H   H7774     1.0  0.86582  0.72468  0.60004  1.0000
  H   H7775     1.0  0.92171  0.72232  0.54865  1.0000
  H   H7776     1.0  0.83438  0.72781  0.51192  1.0000
  C   C4539     1.0  0.92879  0.73001  0.54975  1.0000
  C   C4540     1.0  0.80926  0.55604  0.47824  1.0000
  H   H7777     1.0  0.95682  0.67791  0.47813  1.0000
  H   H7778     1.0  0.81244  0.58175  0.48268  1.0000
  C   C4541     1.0  0.94604  0.67324  0.48367  1.0000
  H   H7779     1.0  0.81991  0.68250  0.48859  1.0000
  H   H7780     1.0  0.86248  0.67279  0.49198  1.0000
  C   C4542     1.0  0.81393  0.70226  0.72065  1.0000
  H   H7781     1.0  0.82037  0.53269  0.72341  1.0000
  H   H7782     1.0  0.99262  0.53417  0.69880  1.0000
  H   H7783     1.0  0.96127  0.48465  0.71243  1.0000
  H   H7784     1.0  0.91956  0.66548  0.48294  1.0000
  C   C4543     1.0  0.82558  0.72048  0.51694  1.0000
  C   C4544     1.0  0.83781  0.48759  0.68092  1.0000
  H   H7785     1.0  0.80282  0.73288  0.50002  1.0000
  H   H7786     1.0  0.82941  0.48390  0.69186  1.0000
  S   S1295     1.0  0.81762  0.61546  0.47836  1.0000
  C   C4545     1.0  0.78182  0.70428  0.72494  1.0000
  H   H7787     1.0  0.90701  0.50055  0.72583  1.0000
  C   C4546     1.0  0.94029  0.52520  0.72537  1.0000
  H   H7788     1.0  0.76936  0.70516  0.72665  1.0000
  H   H7789     1.0  0.91373  0.73272  0.57232  1.0000
  H   H7790     1.0  0.93804  0.63037  0.72641  1.0000
  Fe  Fe644     1.0  0.78833  0.62059  0.94173  1.0000
  S   S1296     1.0  0.79628  0.60115  0.92892  1.0000
  Fe  Fe645     1.0  0.75994  0.63500  0.92675  1.0000
  S   S1297     1.0  0.76535  0.61638  0.91344  1.0000
  S   S1298     1.0  0.73876  0.65463  0.92486  1.0000
  Fe  Fe646     1.0  0.77101  0.60011  0.93536  1.0000
  S   S1299     1.0  0.76374  0.57764  0.94732  1.0000
  Fe  Fe647     1.0  0.79008  0.61939  0.90828  1.0000
  S   S1300     1.0  0.80400  0.62240  0.88359  1.0000
  S   S1301     1.0  0.76323  0.61846  0.94938  1.0000
  S   S1302     1.0  0.78441  0.63916  0.92034  1.0000
  C   C4547     1.0  0.71712  0.62324  0.95975  1.0000
  Fe  Fe648     1.0  0.68227  0.62730  0.85818  1.0000
  S   S1303     1.0  0.68838  0.64644  0.83774  1.0000
  S   S1304     1.0  0.67835  0.60458  0.85669  1.0000
  Fe  Fe649     1.0  0.68407  0.64401  0.88161  1.0000
  S   S1305     1.0  0.68981  0.66496  0.86347  1.0000
  S   S1306     1.0  0.68164  0.64178  0.90716  1.0000
  Fe  Fe650     1.0  0.67157  0.66227  0.85283  1.0000
  S   S1307     1.0  0.65485  0.68219  0.84123  1.0000
  Fe  Fe651     1.0  0.70614  0.64757  0.84994  1.0000
  S   S1308     1.0  0.73013  0.65243  0.83859  1.0000
  S   S1309     1.0  0.66402  0.64296  0.87237  1.0000
  S   S1310     1.0  0.70187  0.62678  0.86901  1.0000
  Fe  Fe652     1.0  0.88525  0.63890  0.82857  1.0000
  S   S1311     1.0  0.88446  0.61375  0.83781  1.0000
  S   S1312     1.0  0.86590  0.65464  0.81690  1.0000
  Fe  Fe653     1.0  0.91490  0.63508  0.84048  1.0000
  S   S1313     1.0  0.91594  0.60970  0.85106  1.0000
  S   S1314     1.0  0.93405  0.64719  0.83921  1.0000
  Fe  Fe654     1.0  0.91047  0.60910  0.82891  1.0000
  S   S1315     1.0  0.92474  0.59123  0.81508  1.0000
  Fe  Fe655     1.0  0.88983  0.61694  0.85901  1.0000
  S   S1316     1.0  0.87636  0.60672  0.88240  1.0000
  S   S1317     1.0  0.91092  0.63407  0.81762  1.0000
  S   S1318     1.0  0.88903  0.64255  0.85046  1.0000
  H   H7791     1.0  0.73299  0.66882  0.75463  1.0000
  C   C4548     1.0  0.91680  0.62123  0.73820  1.0000
  Fe  Fe656     1.0  0.79409  0.62344  0.77503  1.0000
  S   S1319     1.0  0.81762  0.61186  0.76253  1.0000
  S   S1320     1.0  0.77750  0.61038  0.79392  1.0000
  Fe  Fe657     1.0  0.79655  0.65533  0.75496  1.0000
  S   S1321     1.0  0.82039  0.64675  0.74107  1.0000
  Fe  Fe658     1.0  0.81059  0.62697  0.74063  1.0000
  C   C4549     1.0  0.54094  0.73186  0.85775  1.0000
  Fe  Fe659     1.0  0.82565  0.63245  0.76398  1.0000
  S   S1322     1.0  0.85001  0.62672  0.76854  1.0000
  S   S1323     1.0  0.78632  0.63658  0.75289  1.0000
  S   S1324     1.0  0.80258  0.64298  0.77814  1.0000
  S   S1325     1.0  0.68495  0.56511  0.96173  1.0000
  C   C4550     1.0  0.99017  0.68359  0.79199  1.0000
  H   H7792     1.0  0.73654  0.70174  0.75360  1.0000
  H   H7793     1.0  0.96658  0.57040  0.81027  1.0000
  H   H7794     1.0  0.70519  0.63040  0.96304  1.0000
  H   H7795     1.0  0.84443  0.60436  0.73017  1.0000
  C   C4551     1.0  0.84342  0.61653  0.92755  1.0000
  H   H7796     1.0  0.75166  0.55049  0.95365  1.0000
  Fe  Fe660     1.0  0.59419  0.55960  0.89466  1.0000
  S   S1326     1.0  0.60240  0.55879  0.86930  1.0000
  S   S1327     1.0  0.60657  0.54224  0.91255  1.0000
  Fe  Fe661     1.0  0.56704  0.58756  0.88925  1.0000
  S   S1328     1.0  0.57295  0.58844  0.86372  1.0000
  S   S1329     1.0  0.54826  0.60569  0.90041  1.0000
  Fe  Fe662     1.0  0.57665  0.56230  0.87043  1.0000
  S   S1330     1.0  0.56458  0.54910  0.86146  1.0000
  Fe  Fe663     1.0  0.59794  0.58502  0.86547  1.0000
  S   S1331     1.0  0.61083  0.60369  0.85005  1.0000
  S   S1332     1.0  0.56874  0.56174  0.89602  1.0000
  S   S1333     1.0  0.59180  0.58535  0.89078  1.0000
  Fe  Fe664     1.0  0.72174  0.54066  0.91792  1.0000
  S   S1334     1.0  0.70142  0.56108  0.91867  1.0000
  S   S1335     1.0  0.74464  0.54655  0.90408  1.0000
  Fe  Fe665     1.0  0.70154  0.51793  0.93768  1.0000
  N   N326      1.0  0.84451  0.63337  0.92382  1.0000
  H   H7797     1.0  0.84848  0.51461  0.75898  1.0000
  Fe  Fe666     1.0  0.68854  0.54535  0.91490  1.0000
  S   S1336     1.0  0.67496  0.55381  0.89623  1.0000
  H   H7798     1.0  0.78175  0.65480  0.83877  1.0000
  S   S1337     1.0  0.70945  0.52577  0.91191  1.0000
  H   H7799     1.0  0.77706  0.67824  0.87408  1.0000
  C   C4552     1.0  0.79053  0.69247  0.73463  1.0000
  H   H7800     1.0  0.78011  0.63365  0.85930  1.0000
  H   H7801     1.0  0.51726  0.48627  0.86478  1.0000
  Fe  Fe667     1.0  0.88838  0.55251  0.77553  1.0000
  C   C4553     1.0  0.93838  0.57587  0.73811  1.0000
  S   S1338     1.0  0.88070  0.55821  0.79913  1.0000
  H   H7802     1.0  0.89605  0.50605  0.82607  1.0000
  H   H7803     1.0  0.82114  0.63145  0.90917  1.0000
  H   H7804     1.0  0.66255  0.51869  0.86861  1.0000
  H   H7805     1.0  0.83272  0.50569  0.76176  1.0000
  S   S1339     1.0  0.91349  0.54458  0.76378  1.0000
  H   H7806     1.0  0.73801  0.66506  0.88845  1.0000
  C   C4554     1.0  0.76801  0.65666  0.88140  1.0000
  C   C4555     1.0  0.80660  0.69141  0.73243  1.0000
  S   S1340     1.0  0.97082  0.50522  0.74625  1.0000
  S   S1341     1.0  0.89917  0.53921  0.73680  1.0000
  H   H7807     1.0  0.76237  0.64993  0.89271  1.0000
  H   H7808     1.0  0.82510  0.64671  0.89267  1.0000
  H   H7809     1.0  0.92375  0.60984  0.73558  1.0000
  C   C4556     1.0  0.58086  0.64081  0.85893  1.0000
  H   H7810     1.0  0.58288  0.65146  0.86079  1.0000
  S   S1342     1.0  0.71606  0.53073  0.94355  1.0000
  H   H7811     1.0  0.94068  0.52685  0.81681  1.0000
  H   H7812     1.0  0.84468  0.65236  0.90333  1.0000
  H   H7813     1.0  0.67353  0.50898  0.93751  1.0000
  C   C4557     1.0  0.62548  0.54548  0.90859  1.0000
  C   C4558     1.0  0.63099  0.55508  0.89451  1.0000
  C   C4559     1.0  0.64630  0.55724  0.89084  1.0000
  C   C4560     1.0  0.65608  0.55020  0.90134  1.0000
  C   C4561     1.0  0.65061  0.54065  0.91555  1.0000
  C   C4562     1.0  0.63527  0.53826  0.91918  1.0000
  H   H7814     1.0  0.62353  0.56081  0.88633  1.0000
  H   H7815     1.0  0.65053  0.56452  0.87988  1.0000
  H   H7816     1.0  0.65817  0.53498  0.92364  1.0000
  H   H7817     1.0  0.63101  0.53082  0.93011  1.0000
  H   H7818     1.0  0.94659  0.67390  0.80017  1.0000
  C   C4563     1.0  0.59258  0.50626  0.85877  1.0000
  C   C4564     1.0  0.58752  0.52218  0.85922  1.0000
  C   C4565     1.0  0.57146  0.52886  0.86268  1.0000
  C   C4566     1.0  0.56057  0.51943  0.86626  1.0000
  C   C4567     1.0  0.56567  0.50341  0.86641  1.0000
  H   H7819     1.0  0.92875  0.54595  0.81284  1.0000
  H   H7820     1.0  0.59597  0.52942  0.85622  1.0000
  H   H7821     1.0  0.54815  0.52455  0.86893  1.0000
  C   C4568     1.0  0.53029  0.51380  0.82283  1.0000
  C   C4569     1.0  0.51525  0.64126  0.87121  1.0000
  C   C4570     1.0  0.51580  0.64336  0.88558  1.0000
  C   C4571     1.0  0.52566  0.63215  0.89465  1.0000
  C   C4572     1.0  0.53497  0.61876  0.88944  1.0000
  C   C4573     1.0  0.53394  0.61638  0.87534  1.0000
  C   C4574     1.0  0.52417  0.62765  0.86621  1.0000
  H   H7822     1.0  0.53677  0.51583  0.81049  1.0000
  H   H7823     1.0  0.52627  0.63397  0.90564  1.0000
  H   H7824     1.0  0.54074  0.60591  0.87142  1.0000
  H   H7825     1.0  0.52368  0.62585  0.85519  1.0000
  H   H7826     1.0  0.70564  0.66563  0.93356  1.0000
  H   H7827     1.0  0.52872  0.49470  0.87179  1.0000
  H   H7828     1.0  0.76446  0.68168  0.85469  1.0000
  H   H7829     1.0  0.87435  0.63185  0.90058  1.0000
  H   H7830     1.0  0.83036  0.65511  0.92973  1.0000
  C   C4575     1.0  0.94963  0.58262  0.74014  1.0000
  C   C4576     1.0  0.91272  0.58173  0.81080  1.0000
  C   C4577     1.0  0.89865  0.57937  0.82116  1.0000
  C   C4578     1.0  0.88894  0.57202  0.81752  1.0000
  C   C4579     1.0  0.89310  0.56735  0.80336  1.0000
  C   C4580     1.0  0.90719  0.56969  0.79298  1.0000
  C   C4581     1.0  0.91716  0.57659  0.79685  1.0000
  H   H7831     1.0  0.89546  0.58281  0.83219  1.0000
  H   H7832     1.0  0.87826  0.56987  0.82575  1.0000
  H   H7833     1.0  0.91052  0.56610  0.78205  1.0000
  H   H7834     1.0  0.92826  0.57804  0.78900  1.0000
  C   C4582     1.0  0.86129  0.64681  0.80364  1.0000
  C   C4583     1.0  0.87146  0.63387  0.79834  1.0000
  C   C4584     1.0  0.86778  0.62786  0.78759  1.0000
  C   C4585     1.0  0.85383  0.63454  0.78227  1.0000
  C   C4586     1.0  0.84348  0.64729  0.78779  1.0000
  C   C4587     1.0  0.84728  0.65349  0.79837  1.0000
  H   H7835     1.0  0.88219  0.62855  0.80247  1.0000
  H   H7836     1.0  0.87559  0.61776  0.78369  1.0000
  H   H7837     1.0  0.83273  0.65255  0.78368  1.0000
  H   H7838     1.0  0.83939  0.66350  0.80248  1.0000
  C   C4588     1.0  0.94856  0.63828  0.85035  1.0000
  C   C4589     1.0  0.94828  0.62402  0.86103  1.0000
  C   C4590     1.0  0.96039  0.61710  0.86924  1.0000
  C   C4591     1.0  0.97297  0.62426  0.86665  1.0000
  C   C4592     1.0  0.84106  0.48412  0.73755  1.0000
  C   C4593     1.0  0.96086  0.64566  0.84821  1.0000
  H   H7839     1.0  0.93864  0.61844  0.86315  1.0000
  H   H7840     1.0  0.96005  0.60616  0.87760  1.0000
  H   H7841     1.0  0.94274  0.61798  0.82335  1.0000
  H   H7842     1.0  0.96083  0.65695  0.84050  1.0000
  C   C4594     1.0  0.74335  0.63984  0.82716  1.0000
  C   C4595     1.0  0.75870  0.64201  0.82110  1.0000
  C   C4596     1.0  0.76927  0.63290  0.81101  1.0000
  C   C4597     1.0  0.76461  0.62138  0.80714  1.0000
  C   C4598     1.0  0.74939  0.61883  0.81364  1.0000
  C   C4599     1.0  0.73869  0.62819  0.82351  1.0000
  H   H7843     1.0  0.76234  0.65101  0.82392  1.0000
  H   H7844     1.0  0.78103  0.63476  0.80630  1.0000
  H   H7845     1.0  0.74573  0.60998  0.81058  1.0000
  H   H7846     1.0  0.72674  0.62672  0.82796  1.0000
  C   C4600     1.0  0.65942  0.60457  0.85511  1.0000
  C   C4601     1.0  0.65554  0.59035  0.85664  1.0000
  C   C4602     1.0  0.64045  0.58990  0.85577  1.0000
  C   C4603     1.0  0.62930  0.60376  0.85281  1.0000
  C   C4604     1.0  0.63327  0.61804  0.85104  1.0000
  C   C4605     1.0  0.64819  0.61844  0.85242  1.0000
  H   H7847     1.0  0.66430  0.57964  0.85846  1.0000
  H   H7848     1.0  0.63760  0.57887  0.85685  1.0000
  H   H7849     1.0  0.62481  0.62882  0.84850  1.0000
  H   H7850     1.0  0.65114  0.62949  0.85101  1.0000
  C   C4606     1.0  0.63247  0.72417  0.86355  1.0000
  C   C4607     1.0  0.64159  0.71092  0.87145  1.0000
  C   C4608     1.0  0.64922  0.69816  0.86440  1.0000
  C   C4609     1.0  0.64772  0.69869  0.84945  1.0000
  C   C4610     1.0  0.63911  0.71216  0.84139  1.0000
  C   C4611     1.0  0.63159  0.72490  0.84838  1.0000
  H   H7851     1.0  0.64236  0.71032  0.88319  1.0000
  H   H7852     1.0  0.65582  0.68775  0.87071  1.0000
  H   H7853     1.0  0.63803  0.71266  0.82978  1.0000
  C   C4612     1.0  0.97909  0.60283  0.82881  1.0000
  H   H7854     1.0  0.99096  0.67088  0.76039  1.0000
  H   H7855     1.0  0.95645  0.68752  0.80182  1.0000
  S   S1343     1.0  0.88136  0.56854  0.75402  1.0000
  C   C4613     1.0  0.51982  0.71835  0.86272  1.0000
  C   C4614     1.0  0.53586  0.71809  0.86004  1.0000
  H   H7856     1.0  0.51602  0.70769  0.86441  1.0000
  H   H7857     1.0  0.54432  0.70719  0.85965  1.0000
  C   C4615     1.0  0.82425  0.61724  0.88268  1.0000
  C   C4616     1.0  0.83049  0.60527  0.89404  1.0000
  C   C4617     1.0  0.84662  0.60170  0.89359  1.0000
  C   C4618     1.0  0.85651  0.61026  0.88194  1.0000
  C   C4619     1.0  0.85031  0.62206  0.87041  1.0000
  C   C4620     1.0  0.83420  0.62549  0.87074  1.0000
  H   H7858     1.0  0.82293  0.59863  0.90308  1.0000
  H   H7859     1.0  0.85143  0.59236  0.90234  1.0000
  H   H7860     1.0  0.85786  0.62880  0.86142  1.0000
  H   H7861     1.0  0.82943  0.63480  0.86195  1.0000
  C   C4621     1.0  0.76011  0.56831  0.93480  1.0000
  C   C4622     1.0  0.75363  0.55517  0.94122  1.0000
  C   C4623     1.0  0.74948  0.54816  0.93163  1.0000
  C   C4624     1.0  0.75165  0.55431  0.91562  1.0000
  C   C4625     1.0  0.75861  0.56718  0.90908  1.0000
  C   C4626     1.0  0.76282  0.57422  0.91869  1.0000
  C   C4627     1.0  0.76496  0.66956  0.85408  1.0000
  H   H7862     1.0  0.74486  0.53781  0.93664  1.0000
  H   H7863     1.0  0.76046  0.57189  0.89667  1.0000
  H   H7864     1.0  0.76810  0.58419  0.91365  1.0000
  C   C4628     1.0  0.72320  0.65109  0.91936  1.0000
  C   C4629     1.0  0.72587  0.64137  0.90902  1.0000
  C   C4630     1.0  0.71318  0.63898  0.90466  1.0000
  C   C4631     1.0  0.69776  0.64575  0.91121  1.0000
  C   C4632     1.0  0.69512  0.65518  0.92178  1.0000
  C   C4633     1.0  0.70780  0.65813  0.92555  1.0000
  H   H7865     1.0  0.73769  0.63583  0.90430  1.0000
  H   H7866     1.0  0.71528  0.63156  0.89660  1.0000
  H   H7867     1.0  0.68323  0.66040  0.92690  1.0000
  H   H7868     1.0  0.50722  0.63213  0.82851  1.0000
  H   H7869     1.0  0.90546  0.62284  0.73492  1.0000
  H   H7870     1.0  0.55815  0.49386  0.82058  1.0000
  H   H7871     1.0  0.84143  0.58652  0.72775  1.0000
  C   C4634     1.0  0.64979  0.50049  0.90627  1.0000
  H   H7872     1.0  0.84950  0.58643  0.74331  1.0000
  H   H7873     1.0  0.64033  0.56973  0.93846  1.0000
  H   H7874     1.0  0.81642  0.50309  0.74943  1.0000
  C   C4635     1.0  0.95250  0.61792  0.81299  1.0000
  N   N327      1.0  0.65482  0.50145  0.88898  1.0000
  H   H7875     1.0  0.74523  0.64425  0.76205  1.0000
  H   H7876     1.0  0.88972  0.52444  0.81332  1.0000
  H   H7877     1.0  0.92050  0.64538  0.73005  1.0000
  H   H7878     1.0  0.59282  0.50458  0.89113  1.0000
  H   H7879     1.0  0.71848  0.68034  0.87281  1.0000
  H   H7880     1.0  0.97349  0.69004  0.81337  1.0000
  H   H7881     1.0  0.56668  0.49878  0.93302  1.0000
  C   C4636     1.0  0.84943  0.59178  0.73086  1.0000
  H   H7882     1.0  0.54389  0.72329  0.90856  1.0000
  H   H7883     1.0  0.53728  0.51579  0.82996  1.0000
  C   C4637     1.0  0.96498  0.53981  0.76812  1.0000
  C   C4638     1.0  0.84186  0.64058  0.90752  1.0000
  H   H7884     1.0  0.51513  0.72977  0.91265  1.0000
  S   S1344     1.0  0.50424  0.65582  0.85890  1.0000
  H   H7885     1.0  0.67444  0.51664  0.89789  1.0000
  H   H7886     1.0  0.63316  0.49105  0.92624  1.0000
  H   H7887     1.0  0.97040  0.67556  0.77949  1.0000
  H   H7888     1.0  0.98256  0.64440  0.85433  1.0000
  C   C4639     1.0  0.54068  0.48801  0.84972  1.0000
  H   H7889     1.0  0.65156  0.52659  0.88504  1.0000
  C   C4640     1.0  0.94475  0.49286  0.78956  1.0000
  C   C4641     1.0  0.76926  0.63113  0.86760  1.0000
  C   C4642     1.0  0.68187  0.61858  0.95736  1.0000
  H   H7890     1.0  0.96269  0.56289  0.83110  1.0000
  C   C4643     1.0  0.70569  0.60146  0.93563  1.0000
  C   C4644     1.0  0.71839  0.61529  0.94646  1.0000
  H   H7891     1.0  0.78151  0.64550  0.96384  1.0000
  H   H7892     1.0  0.84817  0.52010  0.73293  1.0000
  C   C4645     1.0  0.98996  0.59538  0.84040  1.0000
  Fe  Fe668     1.0  0.87531  0.54785  0.75030  1.0000
  H   H7893     1.0  0.69861  0.61286  0.93059  1.0000
  H   H7894     1.0  0.68602  0.50831  0.88131  1.0000
  H   H7895     1.0  0.50887  0.65374  0.88961  1.0000
  H   H7896     1.0  0.57001  0.52063  0.91621  1.0000
  H   H7897     1.0  0.65133  0.62582  0.93056  1.0000
  C   C4646     1.0  0.78726  0.64051  0.97353  1.0000
  H   H7898     1.0  0.91054  0.53105  0.81666  1.0000
  C   C4647     1.0  0.97338  0.53258  0.77987  1.0000
  C   C4648     1.0  0.52644  0.49744  0.82805  1.0000
  C   C4649     1.0  0.79851  0.62652  0.97373  1.0000
  C   C4650     1.0  0.84520  0.50512  0.75599  1.0000
  H   H7899     1.0  0.95532  0.59487  0.81023  1.0000
  C   C4651     1.0  0.62689  0.51547  0.88470  1.0000
  H   H7900     1.0  0.85216  0.49375  0.76110  1.0000
  H   H7901     1.0  0.63707  0.49127  0.88592  1.0000
  H   H7902     1.0  0.88570  0.61032  0.75830  1.0000
  C   C4652     1.0  0.69486  0.60453  0.96237  1.0000
  N   N328      1.0  0.83513  0.59649  0.82343  1.0000
  C   C4653     1.0  0.84799  0.60411  0.82317  1.0000
  C   C4654     1.0  0.84253  0.58430  0.81375  1.0000
  C   C4655     1.0  0.82940  0.58871  0.84012  1.0000
  C   C4656     1.0  0.82218  0.60895  0.81716  1.0000
  C   C4657     1.0  0.84358  0.61604  0.83360  1.0000
  C   C4658     1.0  0.84897  0.59056  0.79633  1.0000
  C   C4659     1.0  0.81668  0.57940  0.84330  1.0000
  C   C4660     1.0  0.81039  0.60358  0.81148  1.0000
  H   H7903     1.0  0.85839  0.59523  0.82652  1.0000
  H   H7904     1.0  0.85230  0.61045  0.81125  1.0000
  H   H7905     1.0  0.83444  0.57705  0.81425  1.0000
  H   H7906     1.0  0.85240  0.57575  0.81849  1.0000
  H   H7907     1.0  0.83946  0.58065  0.84497  1.0000
  H   H7908     1.0  0.82423  0.59747  0.84753  1.0000
  H   H7909     1.0  0.81519  0.61585  0.82604  1.0000
  H   H7910     1.0  0.82727  0.61758  0.80712  1.0000
  H   H7911     1.0  0.84244  0.61015  0.84606  1.0000
  H   H7912     1.0  0.85319  0.62233  0.83073  1.0000
  H   H7913     1.0  0.83285  0.62504  0.83176  1.0000
  H   H7914     1.0  0.84016  0.59977  0.79079  1.0000
  H   H7915     1.0  0.85978  0.59485  0.79442  1.0000
  H   H7916     1.0  0.85230  0.58091  0.79007  1.0000
  H   H7917     1.0  0.81415  0.57396  0.85593  1.0000
  H   H7918     1.0  0.82044  0.56972  0.83711  1.0000
  H   H7919     1.0  0.80547  0.58710  0.84078  1.0000
  H   H7920     1.0  0.79822  0.60852  0.81718  1.0000
  H   H7921     1.0  0.81149  0.59089  0.81374  1.0000
  H   H7922     1.0  0.81132  0.60827  0.79879  1.0000
  C   C4661     1.0  0.86047  0.63524  0.92389  1.0000
  H   H7923     1.0  0.98729  0.57139  0.83134  1.0000
  C   C4662     1.0  0.71964  0.59720  0.92227  1.0000
  H   H7924     1.0  0.66000  0.49945  0.91123  1.0000
  H   H7925     1.0  0.59756  0.69623  0.89900  1.0000
  H   H7926     1.0  0.56544  0.63532  0.88225  1.0000
  H   H7927     1.0  0.81334  0.68242  0.73999  1.0000
  N   N329      1.0  0.56904  0.64444  0.84894  1.0000
  S   S1345     1.0  0.70187  0.49290  0.94918  1.0000
  S   S1346     1.0  0.97296  0.58937  0.77481  1.0000
  C   C4663     1.0  0.96404  0.53128  0.75796  1.0000
  H   H7928     1.0  0.50387  0.70427  0.92441  1.0000
  C   C4664     1.0  0.67578  0.51728  0.88534  1.0000
  H   H7929     1.0  0.58225  0.71338  0.89515  1.0000
  H   H7930     1.0  0.75763  0.67134  0.84555  1.0000
  C   C4665     1.0  0.58169  0.50442  0.90001  1.0000
  H   H7931     1.0  0.71397  0.62484  0.93725  1.0000
  H   H7932     1.0  0.73139  0.58484  0.94682  1.0000
  H   H7933     1.0  0.82038  0.63952  0.93619  1.0000
  C   C4666     1.0  0.98024  0.50836  0.77101  1.0000
  H   H7934     1.0  0.68978  0.59401  0.96585  1.0000
  C   C4667     1.0  0.83193  0.64233  0.93475  1.0000
  H   H7935     1.0  0.58432  0.67462  0.82067  1.0000
  C   C4668     1.0  0.89108  0.49078  0.77527  1.0000
  H   H7936     1.0  0.65403  0.56975  0.94917  1.0000
  H   H7937     1.0  0.98738  0.51120  0.79049  1.0000
  C   C4669     1.0  0.97314  0.63859  0.85611  1.0000
  H   H7938     1.0  0.62945  0.52717  0.87916  1.0000
  H   H7939     1.0  0.85019  0.61091  0.91767  1.0000
  H   H7940     1.0  0.63388  0.61212  0.92540  1.0000
  H   H7941     1.0  0.59383  0.66293  0.83591  1.0000
  C   C4670     1.0  0.82103  0.50854  0.73713  1.0000
  H   H7942     1.0  0.83831  0.60391  0.95191  1.0000
  S   S1347     1.0  0.97471  0.54335  0.79243  1.0000
  C   C4671     1.0  0.75534  0.64536  0.86772  1.0000
  C   C4672     1.0  0.57460  0.65432  0.83319  1.0000
  H   H7943     1.0  0.77956  0.64897  0.87804  1.0000
  H   H7944     1.0  0.56110  0.66743  0.86632  1.0000
  H   H7945     1.0  0.57465  0.67568  0.84021  1.0000
  C   C4673     1.0  0.57665  0.52062  0.90411  1.0000
  C   C4674     1.0  0.72030  0.58677  0.95560  1.0000
  C   C4675     1.0  0.65783  0.49321  0.94681  1.0000
  H   H7946     1.0  0.86087  0.64783  0.92057  1.0000
  C   C4676     1.0  0.56872  0.49030  0.92562  1.0000
  H   H7947     1.0  0.81384  0.50601  0.73043  1.0000
  H   H7948     1.0  0.60715  0.49332  0.91155  1.0000
  C   C4677     1.0  0.65558  0.61359  0.92905  1.0000
  H   H7949     1.0  0.83545  0.62782  0.95783  1.0000
  H   H7950     1.0  0.75052  0.63135  0.77908  1.0000
  H   H7951     1.0  0.95388  0.49310  0.77862  1.0000
  H   H7952     1.0  0.85674  0.60972  0.94663  1.0000
  C   C4678     1.0  0.56810  0.62910  0.84645  1.0000
  H   H7953     1.0  0.58602  0.62902  0.88166  1.0000
  C   C4679     1.0  0.55884  0.63005  0.83425  1.0000
  S   S1348     1.0  0.80406  0.61684  0.95827  1.0000
  C   C4680     1.0  0.84867  0.60574  0.94232  1.0000
  C   C4681     1.0  0.55368  0.49330  0.91955  1.0000
  H   H7954     1.0  0.54767  0.64372  0.86688  1.0000
  H   H7955     1.0  0.60498  0.50128  0.85550  1.0000
  H   H7956     1.0  0.54453  0.65503  0.84886  1.0000
  C   C4682     1.0  0.74289  0.64270  0.77486  1.0000
  H   H7957     1.0  0.98408  0.69214  0.78308  1.0000
  C   C4683     1.0  0.58167  0.49684  0.86235  1.0000
  S   S1349     1.0  0.78110  0.67908  0.74932  1.0000
  H   H7958     1.0  0.72041  0.61501  0.97027  1.0000
  C   C4684     1.0  0.82513  0.64257  0.90527  1.0000
  C   C4685     1.0  0.74236  0.67003  0.87594  1.0000
  H   H7959     1.0  0.78733  0.67236  0.83835  1.0000
  H   H7960     1.0  0.56477  0.65962  0.82700  1.0000
  H   H7961     1.0  0.54835  0.49650  0.84655  1.0000
  C   C4686     1.0  0.49580  0.63079  0.83659  1.0000
  C   C4687     1.0  0.98017  0.57780  0.82260  1.0000
  H   H7962     1.0  0.59256  0.63499  0.85286  1.0000
  H   H7963     1.0  0.77175  0.62620  0.87938  1.0000
  H   H7964     1.0  0.55720  0.49626  0.86937  1.0000
  H   H7965     1.0  0.56477  0.63497  0.82228  1.0000
  H   H7966     1.0  0.95178  0.57058  0.85961  1.0000
  H   H7967     1.0  0.88193  0.65258  0.75769  1.0000
  C   C4688     1.0  0.72897  0.67221  0.86767  1.0000
  H   H7968     1.0  0.85512  0.59416  0.93979  1.0000
  H   H7969     1.0  0.56251  0.62203  0.85746  1.0000
  C   C4689     1.0  0.55102  0.66712  0.86202  1.0000
  C   C4690     1.0  0.89475  0.51180  0.81402  1.0000
  H   H7970     1.0  0.62169  0.51481  0.89727  1.0000
  H   H7971     1.0  0.66692  0.54171  0.97471  1.0000
  H   H7972     1.0  0.73329  0.69486  0.73866  1.0000
  H   H7973     1.0  0.54090  0.66796  0.87212  1.0000
  C   C4691     1.0  0.98613  0.64122  0.81373  1.0000
  H   H7974     1.0  0.72520  0.63140  0.95556  1.0000
  H   H7975     1.0  0.54659  0.63672  0.83686  1.0000
  H   H7976     1.0  0.54859  0.67753  0.85259  1.0000
  N   N330      1.0  0.53830  0.48455  0.83545  1.0000
  H   H7977     1.0  0.86310  0.63126  0.93563  1.0000
  H   H7978     1.0  0.88796  0.49827  0.78344  1.0000
  H   H7979     1.0  0.76610  0.62183  0.86421  1.0000
  H   H7980     1.0  0.57695  0.61837  0.87457  1.0000
  C   C4692     1.0  0.67188  0.49785  0.94484  1.0000
  H   H7981     1.0  0.98214  0.66314  0.81930  1.0000
  H   H7982     1.0  0.67861  0.52877  0.87908  1.0000
  H   H7983     1.0  0.67575  0.61572  0.94991  1.0000
  H   H7984     1.0  0.51443  0.49824  0.83564  1.0000
  N   N331      1.0  0.92432  0.51189  0.80557  1.0000
  H   H7985     1.0  0.88171  0.63474  0.75386  1.0000
  C   C4693     1.0  0.91029  0.50899  0.80192  1.0000
  C   C4694     1.0  0.93821  0.50961  0.79218  1.0000
  C   C4695     1.0  0.50878  0.73243  0.86296  1.0000
  H   H7986     1.0  0.95335  0.57919  0.75107  1.0000
  H   H7987     1.0  0.90167  0.59744  0.74805  1.0000
  H   H7988     1.0  0.84441  0.64467  0.95133  1.0000
  H   H7989     1.0  0.75130  0.64742  0.85681  1.0000
  H   H7990     1.0  0.78868  0.57117  0.96489  1.0000
  H   H7991     1.0  0.64183  0.51152  0.90895  1.0000
  H   H7992     1.0  0.90811  0.51664  0.79059  1.0000
  H   H7993     1.0  0.93534  0.51723  0.78106  1.0000
  H   H7994     1.0  0.94835  0.51314  0.79370  1.0000
  C   C4696     1.0  0.81673  0.52639  0.73555  1.0000
  H   H7995     1.0  0.74576  0.64130  0.87725  1.0000
  C   C4697     1.0  0.88934  0.64278  0.75220  1.0000
  N   N332      1.0  0.70988  0.60223  0.95024  1.0000
  C   C4698     1.0  0.78181  0.66269  0.84603  1.0000
  H   H7996     1.0  0.55479  0.48532  0.91197  1.0000
  N   N333      1.0  0.83820  0.50154  0.73179  1.0000
  H   H7997     1.0  0.57338  0.50355  0.89355  1.0000
  C   C4699     1.0  0.93379  0.53504  0.80846  1.0000
  H   H7998     1.0  0.88600  0.50705  0.81139  1.0000
  H   H7999     1.0  0.72530  0.66114  0.86945  1.0000
  N   N334      1.0  0.96962  0.59279  0.82648  1.0000
  H   H8000     1.0  0.64859  0.50096  0.94127  1.0000
  H   H8001     1.0  0.97204  0.57075  0.85366  1.0000
  C   C4700     1.0  0.95627  0.59020  0.84029  1.0000
  C   C4701     1.0  0.58218  0.66761  0.83277  1.0000
  C   C4702     1.0  0.96022  0.57839  0.85516  1.0000
  H   H8002     1.0  0.97221  0.60274  0.80170  1.0000
  H   H8003     1.0  0.67675  0.48553  0.89285  1.0000
  S   S1350     1.0  0.91822  0.50133  0.76373  1.0000
  H   H8004     1.0  0.65372  0.60596  0.94085  1.0000
  H   H8005     1.0  0.95018  0.60136  0.84392  1.0000
  H   H8006     1.0  0.94702  0.58664  0.83704  1.0000
  H   H8007     1.0  0.74344  0.68196  0.87558  1.0000
  H   H8008     1.0  0.54379  0.49113  0.92960  1.0000
  C   C4703     1.0  0.95742  0.67497  0.80281  1.0000
  H   H8009     1.0  0.98613  0.49621  0.77219  1.0000
  H   H8010     1.0  0.95894  0.58461  0.86444  1.0000
  C   C4704     1.0  0.87446  0.62675  0.91305  1.0000
  N   N335      1.0  0.73357  0.57993  0.85722  1.0000
  C   C4705     1.0  0.73674  0.59588  0.85500  1.0000
  C   C4706     1.0  0.73311  0.57828  0.84141  1.0000
  C   C4707     1.0  0.74716  0.56806  0.86294  1.0000
  C   C4708     1.0  0.71833  0.57895  0.86901  1.0000
  C   C4709     1.0  0.73966  0.59963  0.86927  1.0000
  C   C4710     1.0  0.71923  0.58910  0.83444  1.0000
  C   C4711     1.0  0.74779  0.55077  0.86414  1.0000
  C   C4712     1.0  0.71038  0.56562  0.87015  1.0000
  H   H8011     1.0  0.74714  0.59768  0.84535  1.0000
  H   H8012     1.0  0.72676  0.60519  0.85150  1.0000
  H   H8013     1.0  0.73274  0.56633  0.84135  1.0000
  H   H8014     1.0  0.74416  0.58033  0.83284  1.0000
  H   H8015     1.0  0.75850  0.57052  0.85531  1.0000
  H   H8016     1.0  0.74733  0.56883  0.87479  1.0000
  H   H8017     1.0  0.71994  0.57788  0.88091  1.0000
  H   H8018     1.0  0.70944  0.59003  0.86683  1.0000
  H   H8019     1.0  0.74015  0.61214  0.86651  1.0000
  H   H8020     1.0  0.73012  0.59785  0.87972  1.0000
  H   H8021     1.0  0.75113  0.59284  0.87200  1.0000
  H   H8022     1.0  0.71933  0.60159  0.83223  1.0000
  H   H8023     1.0  0.72003  0.58661  0.82301  1.0000
  H   H8024     1.0  0.70780  0.58700  0.84187  1.0000
  H   H8025     1.0  0.73764  0.54676  0.87264  1.0000
  H   H8026     1.0  0.75829  0.54364  0.86872  1.0000
  H   H8027     1.0  0.74924  0.54798  0.85274  1.0000
  H   H8028     1.0  0.71011  0.55757  0.88175  1.0000
  H   H8029     1.0  0.71585  0.55855  0.86128  1.0000
  H   H8030     1.0  0.69796  0.57053  0.86912  1.0000
  N   N336      1.0  0.65188  0.59563  0.91323  1.0000
  C   C4713     1.0  0.63809  0.59136  0.91049  1.0000
  C   C4714     1.0  0.65891  0.58225  0.92497  1.0000
  C   C4715     1.0  0.66378  0.59727  0.89800  1.0000
  C   C4716     1.0  0.64625  0.61083  0.91865  1.0000
  C   C4717     1.0  0.63046  0.60244  0.89721  1.0000
  H   H8031     1.0  0.94173  0.53814  0.79704  1.0000
  C   C4718     1.0  0.67922  0.60100  0.89815  1.0000
  C   C4719     1.0  0.92521  0.63385  0.72690  1.0000
  H   H8032     1.0  0.64155  0.57950  0.90797  1.0000
  H   H8033     1.0  0.62848  0.59080  0.92111  1.0000
  H   H8034     1.0  0.66861  0.58482  0.92831  1.0000
  H   H8035     1.0  0.66442  0.57181  0.91982  1.0000
  H   H8036     1.0  0.66682  0.58652  0.89335  1.0000
  H   H8037     1.0  0.65889  0.60681  0.88893  1.0000
  H   H8038     1.0  0.64602  0.62090  0.90848  1.0000
  C   C4720     1.0  0.66054  0.51639  0.88154  1.0000
  H   H8039     1.0  0.61912  0.59958  0.89798  1.0000
  H   H8040     1.0  0.62806  0.61485  0.89780  1.0000
  H   H8041     1.0  0.63784  0.60074  0.88568  1.0000
  H   H8042     1.0  0.76060  0.67795  0.89083  1.0000
  H   H8043     1.0  0.82377  0.64678  0.95803  1.0000
  C   C4721     1.0  0.97182  0.56608  0.82067  1.0000
  H   H8044     1.0  0.68498  0.59322  0.90750  1.0000
  H   H8045     1.0  0.67741  0.61337  0.89862  1.0000
  H   H8046     1.0  0.68761  0.59944  0.88703  1.0000
  H   H8047     1.0  0.53844  0.71885  0.89329  1.0000
  C   C4722     1.0  0.92812  0.50186  0.82077  1.0000
  C   C4723     1.0  0.83436  0.64004  0.95132  1.0000
  N   N337      1.0  0.91442  0.62072  0.75526  1.0000
  C   C4724     1.0  0.93020  0.61935  0.75857  1.0000
  H   H8048     1.0  0.89280  0.59109  0.76793  1.0000
  C   C4725     1.0  0.90860  0.60621  0.76480  1.0000
  C   C4726     1.0  0.90352  0.63529  0.75994  1.0000
  C   C4727     1.0  0.93032  0.61744  0.77581  1.0000
  H   H8049     1.0  0.78973  0.65655  0.85411  1.0000
  C   C4728     1.0  0.89651  0.60129  0.75923  1.0000
  C   C4729     1.0  0.64144  0.50218  0.88184  1.0000
  H   H8050     1.0  0.93891  0.60928  0.75445  1.0000
  H   H8051     1.0  0.93512  0.62979  0.75217  1.0000
  C   C4730     1.0  0.96276  0.60146  0.81240  1.0000
  H   H8052     1.0  0.78515  0.59140  0.96433  1.0000
  H   H8053     1.0  0.91861  0.59586  0.76517  1.0000
  H   H8054     1.0  0.90360  0.60708  0.77717  1.0000
  H   H8055     1.0  0.89886  0.63315  0.77275  1.0000
  H   H8056     1.0  0.91003  0.64470  0.75744  1.0000
  H   H8057     1.0  0.94232  0.61717  0.77675  1.0000
  H   H8058     1.0  0.92224  0.62722  0.78087  1.0000
  H   H8059     1.0  0.92743  0.60629  0.78292  1.0000
  N   N338      1.0  0.98761  0.66743  0.79394  1.0000
  H   H8060     1.0  0.73203  0.67733  0.85505  1.0000
  Fe  Fe669     1.0  0.69476  0.55020  0.94394  1.0000
  Fe  Fe670     1.0  0.98435  0.56387  0.77740  1.0000
  C   C4731     1.0  0.97180  0.51560  0.75929  1.0000
  H   H8061     1.0  0.58704  0.52563  0.90217  1.0000
  H   H8062     1.0  0.91228  0.49708  0.80010  1.0000
  H   H8063     1.0  0.82180  0.53004  0.74334  1.0000
  S   S1351     1.0  0.85343  0.55076  0.74183  1.0000
  H   H8064     1.0  0.58369  0.64691  0.82567  1.0000
  H   H8065     1.0  0.77965  0.66670  0.89273  1.0000
  C   C4732     1.0  0.90556  0.48972  0.76470  1.0000
  Fe  Fe671     1.0  0.90454  0.52591  0.75988  1.0000
  H   H8066     1.0  0.72516  0.58457  0.92475  1.0000
  H   H8067     1.0  0.81651  0.65148  0.91122  1.0000
  C   C4733     1.0  0.98086  0.51681  0.78142  1.0000
  H   H8068     1.0  0.88558  0.62805  0.91486  1.0000
  H   H8069     1.0  0.61774  0.51446  0.87934  1.0000
  C   C4734     1.0  0.98556  0.69049  0.80665  1.0000
  H   H8070     1.0  0.95951  0.62625  0.81248  1.0000
  H   H8071     1.0  0.51920  0.52283  0.82403  1.0000
  H   H8072     1.0  0.95742  0.53691  0.74897  1.0000
  H   H8073     1.0  0.87495  0.61407  0.91553  1.0000
  H   H8074     1.0  0.55825  0.61803  0.83438  1.0000
  H   H8075     1.0  0.71486  0.54478  0.96694  1.0000
  H   H8076     1.0  0.55040  0.50556  0.91325  1.0000
  H   H8077     1.0  0.94715  0.62235  0.80264  1.0000
  H   H8078     1.0  0.60197  0.71493  0.89140  1.0000
  S   S1352     1.0  0.87995  0.53269  0.77310  1.0000
  H   H8079     1.0  0.98672  0.60725  0.81753  1.0000
  S   S1353     1.0  0.67958  0.53655  0.94031  1.0000
  C   C4735     1.0  0.77137  0.67088  0.88476  1.0000
  H   H8080     1.0  0.84985  0.63357  0.89910  1.0000
  H   H8081     1.0  0.94039  0.50150  0.82109  1.0000
  H   H8082     1.0  0.71527  0.59962  0.91146  1.0000
  N   N339      1.0  0.73721  0.67186  0.77575  1.0000
  C   C4736     1.0  0.73860  0.67616  0.75833  1.0000
  C   C4737     1.0  0.74713  0.65566  0.77964  1.0000
  C   C4738     1.0  0.74336  0.68347  0.78018  1.0000
  C   C4739     1.0  0.72010  0.67258  0.78338  1.0000
  C   C4740     1.0  0.73118  0.69321  0.75149  1.0000
  C   C4741     1.0  0.75121  0.67764  0.79431  1.0000
  C   C4742     1.0  0.71613  0.66689  0.80116  1.0000
  H   H8083     1.0  0.75115  0.67387  0.75215  1.0000
  H   H8084     1.0  0.74668  0.65175  0.79230  1.0000
  H   H8085     1.0  0.75972  0.65562  0.77409  1.0000
  H   H8086     1.0  0.75258  0.68799  0.77048  1.0000
  H   H8087     1.0  0.73391  0.69393  0.78223  1.0000
  H   H8088     1.0  0.71313  0.68473  0.78095  1.0000
  H   H8089     1.0  0.71507  0.66575  0.77840  1.0000
  H   H8090     1.0  0.69818  0.59284  0.93835  1.0000
  H   H8091     1.0  0.67503  0.49116  0.87306  1.0000
  H   H8092     1.0  0.71829  0.69606  0.75586  1.0000
  H   H8093     1.0  0.73060  0.64161  0.78021  1.0000
  H   H8094     1.0  0.74388  0.67187  0.80491  1.0000
  H   H8095     1.0  0.75357  0.68773  0.79709  1.0000
  H   H8096     1.0  0.76275  0.66956  0.79156  1.0000
  H   H8097     1.0  0.72170  0.65448  0.80494  1.0000
  H   H8098     1.0  0.70325  0.66780  0.80513  1.0000
  H   H8099     1.0  0.71911  0.67424  0.80720  1.0000
  C   C4743     1.0  0.55285  0.65201  0.85669  1.0000
  N   N340      1.0  0.75805  0.66025  0.86961  1.0000
  H   H8100     1.0  0.56870  0.52857  0.89656  1.0000
  H   H8101     1.0  0.52508  0.49485  0.81739  1.0000
  H   H8102     1.0  0.59265  0.50241  0.92546  1.0000
  H   H8103     1.0  0.58008  0.62195  0.84287  1.0000
  C   C4744     1.0  0.57686  0.63032  0.87523  1.0000
  C   C4745     1.0  0.92042  0.52880  0.80662  1.0000
  H   H8104     1.0  0.80377  0.53027  0.73894  1.0000
  H   H8105     1.0  0.83116  0.61563  0.92873  1.0000
  N   N341      1.0  0.59738  0.69096  0.87057  1.0000
  C   C4746     1.0  0.59338  0.69375  0.85492  1.0000
  C   C4747     1.0  0.58562  0.68252  0.88248  1.0000
  C   C4748     1.0  0.61353  0.68049  0.86975  1.0000
  C   C4749     1.0  0.59705  0.70644  0.87365  1.0000
  C   C4750     1.0  0.60421  0.70199  0.84074  1.0000
  C   C4751     1.0  0.56829  0.69135  0.88397  1.0000
  C   C4752     1.0  0.62026  0.67587  0.88447  1.0000
  C   C4753     1.0  0.59451  0.70740  0.89083  1.0000
  H   H8106     1.0  0.59321  0.68256  0.85244  1.0000
  H   H8107     1.0  0.58141  0.70114  0.85481  1.0000
  H   H8108     1.0  0.58806  0.67938  0.89426  1.0000
  H   H8109     1.0  0.58647  0.67110  0.87980  1.0000
  H   H8110     1.0  0.61390  0.66952  0.86645  1.0000
  H   H8111     1.0  0.62228  0.68610  0.86052  1.0000
  H   H8112     1.0  0.60806  0.71032  0.86718  1.0000
  H   H8113     1.0  0.58753  0.71560  0.86897  1.0000
  H   H8114     1.0  0.61601  0.69443  0.83780  1.0000
  H   H8115     1.0  0.59900  0.70482  0.83038  1.0000
  H   H8116     1.0  0.60530  0.71321  0.84230  1.0000
  H   H8117     1.0  0.56662  0.70372  0.88433  1.0000
  H   H8118     1.0  0.56352  0.69083  0.87427  1.0000
  H   H8119     1.0  0.56108  0.68572  0.89489  1.0000
  H   H8120     1.0  0.63193  0.66785  0.88220  1.0000
  H   H8121     1.0  0.61293  0.66954  0.89470  1.0000
  H   H8122     1.0  0.62243  0.68611  0.88710  1.0000
  Fe  Fe672     1.0  0.98162  0.59028  0.74926  1.0000
  H   H8123     1.0  0.73112  0.61132  0.94152  1.0000
  H   H8124     1.0  0.86101  0.50187  0.73459  1.0000
  C   C4754     1.0  0.64200  0.48697  0.91628  1.0000
  Fe  Fe673     1.0  0.90575  0.55874  0.74195  1.0000
  H   H8125     1.0  0.97121  0.61332  0.83288  1.0000
  H   H8126     1.0  0.63929  0.58707  0.94489  1.0000
  H   H8127     1.0  0.71470  0.57710  0.95656  1.0000
  H   H8128     1.0  0.93357  0.56716  0.74744  1.0000
  H   H8129     1.0  0.74338  0.48669  0.92657  1.0000
  H   H8130     1.0  0.72864  0.60413  0.91984  1.0000
  H   H8131     1.0  0.66830  0.61202  0.92402  1.0000
  H   H8132     1.0  0.92052  0.50718  0.83065  1.0000
  H   H8133     1.0  0.73385  0.59141  0.96967  1.0000
  H   H8134     1.0  0.95906  0.55195  0.76700  1.0000
  H   H8135     1.0  0.95746  0.66854  0.81496  1.0000
  S   S1354     1.0  0.98819  0.61530  0.87686  1.0000
  C   C4755     1.0  0.64733  0.57706  0.94022  1.0000
  H   H8136     1.0  0.91623  0.53650  0.79616  1.0000
  H   H8137     1.0  0.49781  0.62894  0.84841  1.0000
  H   H8138     1.0  0.71578  0.50639  0.97130  1.0000
  C   C4756     1.0  0.66828  0.48803  0.88524  1.0000
  C   C4757     1.0  0.84846  0.50758  0.73811  1.0000
  C   C4758     1.0  0.97177  0.66826  0.79115  1.0000
  H   H8139     1.0  0.89297  0.64778  0.73962  1.0000
  H   H8140     1.0  0.91530  0.48343  0.83397  1.0000
  H   H8141     1.0  0.68645  0.62916  0.95098  1.0000
  H   H8142     1.0  0.97063  0.65648  0.79103  1.0000
  C   C4759     1.0  0.52560  0.49410  0.86110  1.0000
  C   C4760     1.0  0.68386  0.48785  0.95198  1.0000
  N   N342      1.0  0.58373  0.49062  0.91336  1.0000
  H   H8143     1.0  0.51967  0.50606  0.85609  1.0000
  H   H8144     1.0  0.64557  0.50336  0.86899  1.0000
  C   C4761     1.0  0.53853  0.72859  0.89828  1.0000
  H   H8145     1.0  0.97338  0.64208  0.81561  1.0000
  H   H8146     1.0  0.98953  0.63459  0.82484  1.0000
  H   H8147     1.0  0.79031  0.60786  0.73356  1.0000
  C   C4762     1.0  0.98976  0.65753  0.80973  1.0000
  H   H8148     1.0  0.98352  0.59139  0.85237  1.0000
  H   H8149     1.0  0.98642  0.70292  0.80311  1.0000
  H   H8150     1.0  0.92216  0.51247  0.73109  1.0000
  H   H8151     1.0  0.98060  0.55517  0.81890  1.0000
  S   S1355     1.0  0.96824  0.60411  0.73091  1.0000
  H   H8152     1.0  0.72749  0.49113  0.91711  1.0000
  H   H8153     1.0  0.62793  0.73280  0.92115  1.0000
  H   H8154     1.0  0.93907  0.52499  0.73784  1.0000
  H   H8155     1.0  0.98895  0.58036  0.81159  1.0000
  H   H8156     1.0  0.99259  0.63424  0.80493  1.0000
  H   H8157     1.0  0.94101  0.50054  0.73110  1.0000
  C   C4763     1.0  0.78745  0.57970  0.97197  1.0000
  H   H8158     1.0  0.68834  0.50901  0.97326  1.0000
  C   C4764     1.0  0.72534  0.58427  0.97099  1.0000
  H   H8159     1.0  0.95059  0.48526  0.79901  1.0000
  C   C4765     1.0  0.59630  0.49176  0.92054  1.0000
  H   H8160     1.0  0.67293  0.62136  0.96784  1.0000
  H   H8161     1.0  0.93584  0.48763  0.78803  1.0000
  C   C4766     1.0  0.92618  0.48479  0.82495  1.0000
  H   H8162     1.0  0.79893  0.57753  0.97508  1.0000
  H   H8163     1.0  0.69692  0.60582  0.97329  1.0000
  H   H8164     1.0  0.99051  0.54100  0.73470  1.0000
  H   H8165     1.0  0.69112  0.52683  0.97468  1.0000
  S   S1356     1.0  0.56114  0.73082  0.85479  1.0000
  C   C4767     1.0  0.95558  0.59421  0.72819  1.0000
  H   H8166     1.0  0.73179  0.57198  0.97397  1.0000
  S   S1357     1.0  0.99069  0.56462  0.75190  1.0000
  H   H8167     1.0  0.77840  0.58975  0.72698  1.0000
  C   C4768     1.0  0.53550  0.85781  0.14670  1.0000
  Fe  Fe674     1.0  0.53080  0.84850  0.09810  1.0000
  S   S1358     1.0  0.52140  0.87400  0.09733  1.0000
  S   S1359     1.0  0.52601  0.83220  0.12145  1.0000
  Fe  Fe675     1.0  0.54495  0.85369  0.06325  1.0000
  S   S1360     1.0  0.53717  0.87965  0.05968  1.0000
  S   S1361     1.0  0.55776  0.83985  0.04483  1.0000
  Fe  Fe676     1.0  0.54475  0.87686  0.08188  1.0000
  S   S1362     1.0  0.56045  0.89034  0.08544  1.0000
  Fe  Fe677     1.0  0.51457  0.87449  0.07546  1.0000
  H   H8168     1.0  0.56412  0.89517  0.04973  1.0000
  S   S1363     1.0  0.55465  0.85121  0.08402  1.0000
  S   S1364     1.0  0.52189  0.84863  0.07755  1.0000
  Fe  Fe678     1.0  0.54602  0.93578  0.15081  1.0000
  S   S1365     1.0  0.57166  0.93612  0.14477  1.0000
  S   S1366     1.0  0.53121  0.92847  0.13903  1.0000
  Fe  Fe679     1.0  0.54029  0.94677  0.18086  1.0000
  S   S1367     1.0  0.56543  0.94740  0.17795  1.0000
  S   S1368     1.0  0.52049  0.95533  0.19948  1.0000
  Fe  Fe680     1.0  0.56415  0.95865  0.15316  1.0000
  H   H8169     1.0  0.56463  0.89241  0.03075  1.0000
  Fe  Fe681     1.0  0.57070  0.92492  0.17011  1.0000
  S   S1369     1.0  0.58819  0.90304  0.17722  1.0000
  S   S1370     1.0  0.53858  0.95940  0.15663  1.0000
  S   S1371     1.0  0.54556  0.92319  0.17562  1.0000
  H   H8170     1.0  0.51887  0.87206  0.02978  1.0000
  S   S1372     1.0  0.57147  0.98155  0.14153  1.0000
  C   C4769     1.0  0.51508  0.74607  0.05073  1.0000
  C   C4770     1.0  0.56245  0.84166  0.14712  1.0000
  H   H8171     1.0  0.59248  0.85250  0.03495  1.0000
  H   H8172     1.0  0.52633  0.88339  0.14319  1.0000
  H   H8173     1.0  0.51200  0.87216  0.14680  1.0000
  S   S1373     1.0  0.52971  0.74628  0.18124  1.0000
  H   H8174     1.0  0.50774  0.82832  0.06265  1.0000
  C   C4771     1.0  0.58494  0.87320  0.21919  1.0000
  H   H8175     1.0  0.60077  0.79938  0.19568  1.0000
  C   C4772     1.0  0.55594  0.85876  0.12299  1.0000
  C   C4773     1.0  0.58727  0.86521  0.03214  1.0000
  H   H8176     1.0  0.52245  0.84759  0.04362  1.0000
  H   H8177     1.0  0.55339  0.76589  0.11777  1.0000
  C   C4774     1.0  0.62318  0.88502  0.21696  1.0000
  H   H8178     1.0  0.58995  0.85024  0.07746  1.0000
  H   H8179     1.0  0.50588  0.74998  0.10694  1.0000
  H   H8180     1.0  0.65249  0.78266  0.20244  1.0000
  H   H8181     1.0  0.50757  0.81852  0.01135  1.0000
  H   H8182     1.0  0.54516  0.90705  0.20976  1.0000
  H   H8183     1.0  0.59078  0.87673  0.06338  1.0000
  C   C4775     1.0  0.59411  0.85202  0.06463  1.0000
  H   H8184     1.0  0.53605  0.78064  0.14599  1.0000
  C   C4776     1.0  0.63975  0.78357  0.20720  1.0000
  H   H8185     1.0  0.50326  0.79669  0.12865  1.0000
  C   C4777     1.0  0.57334  0.85722  0.11435  1.0000
  H   H8186     1.0  0.52468  0.87491  0.12816  1.0000
  H   H8187     1.0  0.63278  0.87256  0.03947  1.0000
  H   H8188     1.0  0.58095  0.84606  0.11896  1.0000
  H   H8189     1.0  0.53243  0.85605  0.15956  1.0000
  H   H8190     1.0  0.52713  0.74108  0.12136  1.0000
  C   C4778     1.0  0.52162  0.76521  0.12362  1.0000
  N   N343      1.0  0.59360  0.87400  0.03985  1.0000
  C   C4779     1.0  0.52500  0.74752  0.13066  1.0000
  H   H8191     1.0  0.56731  0.91024  0.03288  1.0000
  S   S1374     1.0  0.56077  0.76780  0.18454  1.0000
  C   C4780     1.0  0.55768  0.87057  0.14312  1.0000
  H   H8192     1.0  0.55020  0.78627  0.11854  1.0000
  C   C4781     1.0  0.52115  0.79707  0.10815  1.0000
  H   H8193     1.0  0.49569  0.93880  0.20089  1.0000
  H   H8194     1.0  0.50218  0.77419  0.01793  1.0000
  H   H8195     1.0  0.60273  0.86889  0.00860  1.0000
  H   H8196     1.0  0.53559  0.74345  0.13569  1.0000
  C   C4782     1.0  0.56996  0.89739  0.03724  1.0000
  H   H8197     1.0  0.59369  0.77533  0.19491  1.0000
  C   C4783     1.0  0.58798  0.86926  0.05722  1.0000
  H   H8198     1.0  0.61533  0.87515  0.02265  1.0000
  H   H8199     1.0  0.57416  0.96218  0.21776  1.0000
  H   H8200     1.0  0.63511  0.78053  0.19865  1.0000
  N   N344      1.0  0.52113  0.77569  0.13398  1.0000
  H   H8201     1.0  0.61591  0.85734  0.03651  1.0000
  H   H8202     1.0  0.61703  0.88900  0.04197  1.0000
  C   C4784     1.0  0.52536  0.94942  0.21768  1.0000
  C   C4785     1.0  0.49699  0.75215  0.03315  1.0000
  C   C4786     1.0  0.61128  0.87015  0.03521  1.0000
  C   C4787     1.0  0.55373  0.87238  0.16006  1.0000
  H   H8203     1.0  0.56026  0.86236  0.16742  1.0000
  H   H8204     1.0  0.55351  0.96608  0.20196  1.0000
  H   H8205     1.0  0.54767  0.93451  0.21021  1.0000
  H   H8206     1.0  0.58258  0.97700  0.20227  1.0000
  C   C4788     1.0  0.55576  0.83330  0.16380  1.0000
  H   H8207     1.0  0.50460  0.73687  0.17514  1.0000
  H   H8208     1.0  0.57801  0.86719  0.11439  1.0000
  H   H8209     1.0  0.51210  0.76017  0.15521  1.0000
  C   C4789     1.0  0.57967  0.90553  0.20775  1.0000
  C   C4790     1.0  0.58481  0.89554  0.19736  1.0000
  C   C4791     1.0  0.58766  0.87938  0.20309  1.0000
  C   C4792     1.0  0.54144  0.89580  0.21496  1.0000
  H   H8210     1.0  0.55747  0.88290  0.16029  1.0000
  H   H8211     1.0  0.57775  0.91801  0.20337  1.0000
  H   H8212     1.0  0.59170  0.87163  0.19507  1.0000
  H   H8213     1.0  0.57417  0.85753  0.10197  1.0000
  H   H8214     1.0  0.51019  0.76821  0.12001  1.0000
  N   N345      1.0  0.49843  0.75307  0.04888  1.0000
  C   C4793     1.0  0.50878  0.77229  0.14859  1.0000
  H   H8215     1.0  0.53373  0.79273  0.10349  1.0000
  C   C4794     1.0  0.59656  0.79168  0.20644  1.0000
  C   C4795     1.0  0.51296  0.82621  0.01481  1.0000
  H   H8216     1.0  0.49969  0.84206  0.97796  1.0000
  H   H8217     1.0  0.49613  0.94708  0.15092  1.0000
  Fe  Fe682     1.0  0.57851  0.74984  0.19670  1.0000
  C   C4796     1.0  0.54261  0.81940  0.12752  1.0000
  C   C4797     1.0  0.54114  0.81089  0.14292  1.0000
  C   C4798     1.0  0.55425  0.80049  0.14797  1.0000
  C   C4799     1.0  0.56890  0.79876  0.13769  1.0000
  C   C4800     1.0  0.57040  0.80741  0.12236  1.0000
  C   C4801     1.0  0.55723  0.81752  0.11723  1.0000
  H   H8218     1.0  0.52985  0.81227  0.15095  1.0000
  H   H8219     1.0  0.55303  0.79394  0.15985  1.0000
  H   H8220     1.0  0.58169  0.80597  0.11433  1.0000
  H   H8221     1.0  0.55840  0.82356  0.10524  1.0000
  C   C4802     1.0  0.55240  0.90092  0.10038  1.0000
  C   C4803     1.0  0.53620  0.90449  0.10622  1.0000
  C   C4804     1.0  0.52993  0.91287  0.11810  1.0000
  C   C4805     1.0  0.53978  0.91775  0.12429  1.0000
  C   C4806     1.0  0.55603  0.91405  0.11860  1.0000
  C   C4807     1.0  0.56231  0.90571  0.10661  1.0000
  H   H8222     1.0  0.52841  0.90118  0.10131  1.0000
  H   H8223     1.0  0.51736  0.91578  0.12236  1.0000
  H   H8224     1.0  0.56373  0.91778  0.12329  1.0000
  H   H8225     1.0  0.57486  0.90301  0.10215  1.0000
  S   S1375     1.0  0.58542  0.78580  0.14367  1.0000
  H   H8226     1.0  0.58936  0.84406  0.06087  1.0000
  C   C4808     1.0  0.59260  0.77805  0.20599  1.0000
  Fe  Fe683     1.0  0.55445  0.74744  0.18033  1.0000
  H   H8227     1.0  0.56155  0.77138  0.13049  1.0000
  H   H8228     1.0  0.51450  0.81548  0.04903  1.0000
  H   H8229     1.0  0.51933  0.75802  0.01833  1.0000
  H   H8230     1.0  0.51762  0.91969  0.21854  1.0000
  H   H8231     1.0  0.55238  0.88186  0.13610  1.0000
  C   C4809     1.0  0.55780  0.86234  0.99361  1.0000
  C   C4810     1.0  0.55320  0.87168  0.00462  1.0000
  C   C4811     1.0  0.55238  0.86485  0.02049  1.0000
  C   C4812     1.0  0.55680  0.84867  0.02533  1.0000
  C   C4813     1.0  0.56116  0.83932  0.01435  1.0000
  C   C4814     1.0  0.56139  0.84612  0.99855  1.0000
  H   H8232     1.0  0.55039  0.88424  0.00083  1.0000
  H   H8233     1.0  0.54887  0.87216  0.02884  1.0000
  H   H8234     1.0  0.56457  0.82679  0.01803  1.0000
  N   N346      1.0  0.55280  0.85725  0.14036  1.0000
  H   H8235     1.0  0.61765  0.87102  0.05663  1.0000
  H   H8236     1.0  0.59269  0.97262  0.16257  1.0000
  C   C4815     1.0  0.58791  0.89137  0.03480  1.0000
  H   H8237     1.0  0.57058  0.86952  0.13908  1.0000
  H   H8238     1.0  0.54096  0.87425  0.16517  1.0000
  H   H8239     1.0  0.51340  0.73525  0.07568  1.0000
  H   H8240     1.0  0.53055  0.76704  0.11263  1.0000
  H   H8241     1.0  0.57446  0.84269  0.14682  1.0000
  H   H8242     1.0  0.58586  0.86204  0.00994  1.0000
  N   N347      1.0  0.50550  0.84701  0.03130  1.0000
  S   S1376     1.0  0.57189  0.74663  0.15772  1.0000
  Fe  Fe684     1.0  0.57953  0.76556  0.16292  1.0000
  C   C4816     1.0  0.50655  0.76146  0.01879  1.0000
  H   H8243     1.0  0.56427  0.83298  0.13994  1.0000
  H   H8244     1.0  0.51788  0.83395  0.00394  1.0000
  H   H8245     1.0  0.55250  0.84068  0.17241  1.0000
  H   H8246     1.0  0.52808  0.82024  0.05681  1.0000
  H   H8247     1.0  0.53225  0.84805  0.14409  1.0000
  H   H8248     1.0  0.54544  0.82888  0.16411  1.0000
  C   C4817     1.0  0.62624  0.74203  0.20268  1.0000
  H   H8249     1.0  0.59306  0.89550  0.02227  1.0000
  H   H8250     1.0  0.64057  0.76027  0.22109  1.0000
  C   C4818     1.0  0.53656  0.77257  0.13869  1.0000
  H   H8251     1.0  0.51442  0.77714  0.03515  1.0000
  H   H8252     1.0  0.54968  0.87025  0.11725  1.0000
  H   H8253     1.0  0.56479  0.82293  0.16759  1.0000
  C   C4819     1.0  0.52422  0.87303  0.14072  1.0000
  H   H8254     1.0  0.55136  0.84992  0.12032  1.0000
  H   H8255     1.0  0.49741  0.77320  0.14560  1.0000
  H   H8256     1.0  0.57497  0.87118  0.06038  1.0000
  H   H8257     1.0  0.63894  0.74195  0.19944  1.0000
  H   H8258     1.0  0.50925  0.78161  0.05424  1.0000
  H   H8259     1.0  0.50473  0.91659  0.19282  1.0000
  H   H8260     1.0  0.61298  0.89106  0.21149  1.0000
  H   H8261     1.0  0.63105  0.89325  0.21380  1.0000
  H   H8262     1.0  0.55089  0.88676  0.20988  1.0000
  H   H8263     1.0  0.56504  0.83886  0.99009  1.0000
  H   H8264     1.0  0.62054  0.75222  0.19469  1.0000
  C   C4820     1.0  0.61993  0.87611  0.04396  1.0000
  H   H8265     1.0  0.49824  0.79233  0.04005  1.0000
  H   H8266     1.0  0.50482  0.75911  0.00817  1.0000
  H   H8267     1.0  0.49560  0.86181  0.04823  1.0000
  H   H8268     1.0  0.51473  0.74409  0.13952  1.0000
  H   H8269     1.0  0.53906  0.76074  0.14623  1.0000
  H   H8270     1.0  0.50589  0.95064  0.17555  1.0000
  H   H8271     1.0  0.52061  0.80025  0.13080  1.0000
  H   H8272     1.0  0.60707  0.84853  0.06233  1.0000
  C   C4821     1.0  0.63596  0.77237  0.22303  1.0000
  C   C4822     1.0  0.55917  0.97577  0.20099  1.0000
  C   C4823     1.0  0.55108  0.77416  0.12540  1.0000
  H   H8273     1.0  0.63363  0.79578  0.20771  1.0000
  C   C4824     1.0  0.51629  0.79265  0.12610  1.0000
  H   H8274     1.0  0.51407  0.79284  0.10270  1.0000
  H   H8275     1.0  0.50333  0.79717  0.98072  1.0000
  H   H8276     1.0  0.51867  0.80999  0.10433  1.0000
  C   C4825     1.0  0.53950  0.93901  0.21986  1.0000
  H   H8277     1.0  0.62902  0.87473  0.21169  1.0000
  C   C4826     1.0  0.57518  0.96832  0.20539  1.0000
  C   C4827     1.0  0.51923  0.83916  0.03897  1.0000
  H   H8278     1.0  0.52702  0.98219  0.20767  1.0000
  H   H8279     1.0  0.52259  0.81857  0.02042  1.0000
  C   C4828     1.0  0.50460  0.78040  0.04472  1.0000
  C   C4829     1.0  0.51697  0.82503  0.05259  1.0000
  H   H8280     1.0  0.57445  0.86613  0.03682  1.0000
  H   H8281     1.0  0.58352  0.88196  0.01015  1.0000
  H   H8282     1.0  0.52991  0.83516  0.03036  1.0000
  H   H8283     1.0  0.56199  0.98121  0.18839  1.0000
  C   C4830     1.0  0.59013  0.87001  0.01422  1.0000
  H   H8284     1.0  0.52244  0.85462  0.01050  1.0000
  C   C4831     1.0  0.49486  0.74835  0.10610  1.0000
  C   C4832     1.0  0.50549  0.78274  0.16034  1.0000
  S   S1377     1.0  0.59786  0.74910  0.17534  1.0000
  H   H8285     1.0  0.51559  0.78045  0.16585  1.0000
  H   H8286     1.0  0.58159  0.95940  0.19839  1.0000
  H   H8287     1.0  0.53088  0.89658  0.21087  1.0000
  H   H8288     1.0  0.59187  0.89771  0.04125  1.0000
  C   C4833     1.0  0.50304  0.91962  0.18073  1.0000
  H   H8289     1.0  0.51227  0.92554  0.17271  1.0000
  H   H8290     1.0  0.50471  0.90844  0.17729  1.0000
  H   H8291     1.0  0.53087  0.74225  0.06619  1.0000
  H   H8292     1.0  0.52353  0.75248  0.04201  1.0000
  C   C4834     1.0  0.51065  0.85929  0.01735  1.0000
  H   H8293     1.0  0.51886  0.73406  0.04847  1.0000
  H   H8294     1.0  0.50002  0.88152  0.02496  1.0000
  H   H8295     1.0  0.51286  0.75590  0.07107  1.0000
  H   H8296     1.0  0.50879  0.95906  0.14908  1.0000
  H   H8297     1.0  0.50282  0.86271  0.00897  1.0000
  C   C4835     1.0  0.50023  0.83551  0.02595  1.0000
  H   H8298     1.0  0.50019  0.73979  0.03198  1.0000
  C   C4836     1.0  0.51804  0.74492  0.06688  1.0000
  H   H8299     1.0  0.49506  0.82705  0.03603  1.0000
  H   H8300     1.0  0.49547  0.77983  0.16992  1.0000
  C   C4837     1.0  0.51180  0.87440  0.02096  1.0000
  H   H8301     1.0  0.51758  0.88162  0.01015  1.0000
  H   H8302     1.0  0.50226  0.79533  0.15511  1.0000
  H   H8303     1.0  0.62297  0.77419  0.22587  1.0000
  H   H8304     1.0  0.62110  0.74417  0.21457  1.0000
  S   S1378     1.0  0.58328  0.75031  0.21952  1.0000
  C   C4838     1.0  0.58743  0.76790  0.21985  1.0000
  C   C4839     1.0  0.59500  0.79545  0.22071  1.0000
  S   S1379     1.0  0.60098  0.81214  0.22081  1.0000
  C   C4840     1.0  0.49670  0.95734  0.15468  1.0000
  H   H8305     1.0  0.58671  0.86072  0.22351  1.0000
  H   H8306     1.0  0.51234  0.88696  0.22669  1.0000
  C   C4841     1.0  0.57754  0.89931  0.22382  1.0000
  H   H8307     1.0  0.66396  0.77918  0.22152  1.0000
  H   H8308     1.0  0.50041  0.91115  0.22467  1.0000
  H   H8309     1.0  0.64694  0.86456  0.22627  1.0000
  H   H8310     1.0  0.64974  0.80207  0.21945  1.0000
  C   C4842     1.0  0.49418  0.95512  0.17245  1.0000
  Fe  Fe685     1.0  0.58412  0.84978  0.25544  1.0000
  Fe  Fe686     1.0  0.57655  0.81982  0.27617  1.0000
  S   S1380     1.0  0.59964  0.80519  0.26649  1.0000
  S   S1381     1.0  0.55858  0.80925  0.29527  1.0000
  Fe  Fe687     1.0  0.60993  0.82434  0.26791  1.0000
  S   S1382     1.0  0.63338  0.81982  0.27433  1.0000
  Fe  Fe688     1.0  0.59529  0.81999  0.24341  1.0000
  H   H8311     1.0  0.51494  0.86634  0.42054  1.0000
  S   S1383     1.0  0.58716  0.83770  0.27959  1.0000
  S   S1384     1.0  0.57133  0.83321  0.25298  1.0000
  C   C4843     1.0  0.69521  0.95033  0.47215  1.0000
  C   C4844     1.0  0.51334  0.90732  0.24322  1.0000
  C   C4845     1.0  0.80209  0.86065  0.35687  1.0000
  H   H8312     1.0  0.67978  0.77172  0.24001  1.0000
  Fe  Fe689     1.0  0.51269  0.83956  0.38941  1.0000
  S   S1385     1.0  0.51640  0.82694  0.37042  1.0000
  S   S1386     1.0  0.52959  0.83540  0.40490  1.0000
  H   H8313     1.0  0.97616  0.78833  0.38679  1.0000
  C   C4846     1.0  0.63720  0.76164  0.25027  1.0000
  H   H8314     1.0  0.64052  0.76283  0.26064  1.0000
  H   H8315     1.0  0.76347  0.73449  0.32300  1.0000
  H   H8316     1.0  0.51269  0.85262  0.28543  1.0000
  C   C4847     1.0  0.50619  0.88965  0.39601  1.0000
  S   S1387     1.0  0.51548  0.86051  0.33162  1.0000
  H   H8317     1.0  0.65173  0.86079  0.43640  1.0000
  C   C4848     1.0  0.63411  0.78986  0.24033  1.0000
  C   C4849     1.0  0.53211  0.93933  0.24736  1.0000
  H   H8318     1.0  0.63525  0.85169  0.23941  1.0000
  C   C4850     1.0  0.66711  0.77195  0.24497  1.0000
  C   C4851     1.0  0.85995  0.78952  0.46161  1.0000
  S   S1388     1.0  0.87552  0.74396  0.44295  1.0000
  H   H8319     1.0  0.50090  0.81990  0.32702  1.0000
  H   H8320     1.0  0.74732  0.79114  0.26781  1.0000
  H   H8321     1.0  0.83978  0.95200  0.31752  1.0000
  Fe  Fe690     1.0  0.85558  0.75135  0.43099  1.0000
  S   S1389     1.0  0.83697  0.77249  0.43520  1.0000
  H   H8322     1.0  0.94916  0.74323  0.37171  1.0000
  S   S1390     1.0  0.87087  0.74652  0.40830  1.0000
  C   C4852     1.0  0.83820  0.92714  0.35337  1.0000
  Fe  Fe691     1.0  0.57569  0.88933  0.41529  1.0000
  S   S1391     1.0  0.59317  0.87076  0.42709  1.0000
  S   S1392     1.0  0.56790  0.88693  0.39478  1.0000
  Fe  Fe692     1.0  0.57483  0.91243  0.43413  1.0000
  S   S1393     1.0  0.59253  0.89603  0.44729  1.0000
  S   S1394     1.0  0.56170  0.93547  0.44008  1.0000
  Fe  Fe693     1.0  0.60517  0.88998  0.42428  1.0000
  S   S1395     1.0  0.63123  0.88762  0.41605  1.0000
  Fe  Fe694     1.0  0.57905  0.87831  0.44916  1.0000
  S   S1396     1.0  0.58881  0.90824  0.41077  1.0000
  S   S1397     1.0  0.56023  0.89504  0.43764  1.0000
  H   H8323     1.0  0.90466  0.76568  0.34959  1.0000
  S   S1398     1.0  0.63345  0.96370  0.42327  1.0000
  C   C4853     1.0  0.51545  0.88157  0.23813  1.0000
  H   H8324     1.0  0.51253  0.76403  0.39146  1.0000
  S   S1399     1.0  0.97010  0.84985  0.37042  1.0000
  H   H8325     1.0  0.50545  0.78370  0.33585  1.0000
  S   S1400     1.0  0.64734  0.95766  0.46120  1.0000
  Fe  Fe695     1.0  0.95941  0.73876  0.46525  1.0000
  C   C4854     1.0  0.53444  0.77174  0.34287  1.0000
  Fe  Fe696     1.0  0.87148  0.83157  0.37337  1.0000
  S   S1401     1.0  0.88930  0.81065  0.36706  1.0000
  S   S1402     1.0  0.85976  0.83405  0.39779  1.0000
  Fe  Fe697     1.0  0.87127  0.84776  0.34018  1.0000
  S   S1403     1.0  0.85834  0.86888  0.32555  1.0000
  Fe  Fe698     1.0  0.87561  0.81248  0.34938  1.0000
  S   S1404     1.0  0.87239  0.79029  0.34520  1.0000
  Fe  Fe699     1.0  0.90191  0.82787  0.34904  1.0000
  S   S1405     1.0  0.92865  0.82186  0.34379  1.0000
  S   S1406     1.0  0.85654  0.83192  0.35743  1.0000
  S   S1407     1.0  0.88495  0.84887  0.35674  1.0000
  N   N348      1.0  0.88876  0.77980  0.46495  1.0000
  C   C4855     1.0  0.78799  0.73445  0.29211  1.0000
  C   C4856     1.0  0.58958  0.78543  0.23458  1.0000
  Fe  Fe700     1.0  0.80100  0.76771  0.33394  1.0000
  S   S1408     1.0  0.78265  0.76307  0.35575  1.0000
  S   S1409     1.0  0.80867  0.79042  0.32906  1.0000
  Fe  Fe701     1.0  0.79664  0.73850  0.35874  1.0000
  H   H8326     1.0  0.58650  0.86752  0.37105  1.0000
  Fe  Fe702     1.0  0.77110  0.75590  0.34103  1.0000
  S   S1410     1.0  0.74510  0.76161  0.34265  1.0000
  S   S1411     1.0  0.81597  0.74355  0.33793  1.0000
  S   S1412     1.0  0.78814  0.76261  0.31874  1.0000
  Fe  Fe703     1.0  0.66190  0.85823  0.32433  1.0000
  S   S1413     1.0  0.67418  0.83430  0.33496  1.0000
  S   S1414     1.0  0.64034  0.86300  0.31444  1.0000
  Fe  Fe704     1.0  0.67966  0.87463  0.33678  1.0000
  S   S1415     1.0  0.69302  0.85209  0.34858  1.0000
  S   S1416     1.0  0.68155  0.89718  0.34090  1.0000
  Fe  Fe705     1.0  0.69579  0.84438  0.32659  1.0000
  S   S1417     1.0  0.72035  0.83272  0.31640  1.0000
  Fe  Fe706     1.0  0.67036  0.84428  0.35582  1.0000
  S   S1418     1.0  0.66017  0.83299  0.38023  1.0000
  S   S1419     1.0  0.68387  0.86767  0.31405  1.0000
  S   S1420     1.0  0.65664  0.86749  0.34590  1.0000
  Fe  Fe707     1.0  0.77910  0.91660  0.36148  1.0000
  S   S1421     1.0  0.80188  0.90543  0.36906  1.0000
  S   S1422     1.0  0.75138  0.90603  0.32624  1.0000
  S   S1423     1.0  0.76086  0.90316  0.36476  1.0000
  H   H8327     1.0  0.97841  0.82958  0.34837  1.0000
  Fe  Fe708     1.0  0.51139  0.93190  0.28235  1.0000
  Fe  Fe709     1.0  0.80146  0.73791  0.32471  1.0000
  N   N349      1.0  0.52466  0.77312  0.35886  1.0000
  C   C4857     1.0  0.53968  0.89207  0.23283  1.0000
  C   C4858     1.0  0.74660  0.77031  0.29846  1.0000
  C   C4859     1.0  0.52466  0.86478  0.23728  1.0000
  H   H8328     1.0  0.52580  0.90109  0.38311  1.0000
  H   H8329     1.0  0.54609  0.79799  0.35011  1.0000
  H   H8330     1.0  0.67209  0.98183  0.47151  1.0000
  H   H8331     1.0  0.51395  0.88121  0.26699  1.0000
  H   H8332     1.0  0.63424  0.78936  0.25261  1.0000
  H   H8333     1.0  0.90712  0.74305  0.37121  1.0000
  H   H8334     1.0  0.73611  0.76834  0.30784  1.0000
  H   H8335     1.0  0.75951  0.78049  0.30753  1.0000
  N   N350      1.0  0.75893  0.79422  0.28428  1.0000
  H   H8336     1.0  0.85520  0.93960  0.32623  1.0000
  H   H8337     1.0  0.57423  0.90692  0.23185  1.0000
  H   H8338     1.0  0.75250  0.80930  0.26312  1.0000
  C   C4860     1.0  0.53123  0.75955  0.37074  1.0000
  N   N351      1.0  0.83238  0.94161  0.34197  1.0000
  S   S1424     1.0  0.99259  0.75469  0.41270  1.0000
  H   H8339     1.0  0.85400  0.76743  0.38385  1.0000
  H   H8340     1.0  0.66189  0.84287  0.24241  1.0000
  C   C4861     1.0  0.96577  0.83237  0.35218  1.0000
  C   C4862     1.0  0.70083  0.90013  0.33587  1.0000
  C   C4863     1.0  0.70406  0.91165  0.34114  1.0000
  C   C4864     1.0  0.71950  0.91357  0.33813  1.0000
  C   C4865     1.0  0.73183  0.90410  0.32968  1.0000
  C   C4866     1.0  0.72858  0.89273  0.32417  1.0000
  C   C4867     1.0  0.71313  0.89066  0.32735  1.0000
  H   H8341     1.0  0.69467  0.91899  0.34777  1.0000
  H   H8342     1.0  0.72178  0.92253  0.34215  1.0000
  H   H8343     1.0  0.73803  0.88538  0.31758  1.0000
  H   H8344     1.0  0.71075  0.88171  0.32325  1.0000
  C   C4868     1.0  0.73740  0.78177  0.33837  1.0000
  C   C4869     1.0  0.72171  0.78735  0.33705  1.0000
  C   C4870     1.0  0.71608  0.80326  0.33125  1.0000
  C   C4871     1.0  0.72620  0.81355  0.32655  1.0000
  C   C4872     1.0  0.74168  0.80808  0.32854  1.0000
  C   C4873     1.0  0.74722  0.79223  0.33465  1.0000
  H   H8345     1.0  0.71407  0.77928  0.33998  1.0000
  H   H8346     1.0  0.70413  0.80742  0.32969  1.0000
  H   H8347     1.0  0.74950  0.81604  0.32501  1.0000
  H   H8348     1.0  0.75929  0.78801  0.33580  1.0000
  C   C4874     1.0  0.84305  0.87968  0.33741  1.0000
  C   C4875     1.0  0.84209  0.87644  0.35344  1.0000
  C   C4876     1.0  0.82947  0.88457  0.36298  1.0000
  C   C4877     1.0  0.81750  0.89564  0.35664  1.0000
  H   H8349     1.0  0.85108  0.86766  0.35853  1.0000
  H   H8350     1.0  0.82887  0.88203  0.37538  1.0000
  C   C4878     1.0  0.85489  0.79055  0.34016  1.0000
  C   C4879     1.0  0.84277  0.80386  0.33955  1.0000
  C   C4880     1.0  0.82873  0.80369  0.33599  1.0000
  C   C4881     1.0  0.82659  0.79014  0.33327  1.0000
  C   C4882     1.0  0.83870  0.77678  0.33392  1.0000
  C   C4883     1.0  0.85288  0.77707  0.33714  1.0000
  H   H8351     1.0  0.84432  0.81424  0.34179  1.0000
  H   H8352     1.0  0.81942  0.81401  0.33547  1.0000
  H   H8353     1.0  0.83726  0.76633  0.33166  1.0000
  H   H8354     1.0  0.86229  0.76677  0.33740  1.0000
  C   C4884     1.0  0.93994  0.82989  0.35123  1.0000
  C   C4885     1.0  0.93294  0.83964  0.36179  1.0000
  C   C4886     1.0  0.94233  0.84575  0.36747  1.0000
  C   C4887     1.0  0.61406  0.93621  0.45984  1.0000
  C   C4888     1.0  0.95639  0.82621  0.34654  1.0000
  H   H8355     1.0  0.92029  0.84255  0.36549  1.0000
  H   H8356     1.0  0.64889  0.87553  0.26289  1.0000
  H   H8357     1.0  0.50675  0.91436  0.38447  1.0000
  H   H8358     1.0  0.96189  0.81871  0.33835  1.0000
  C   C4889     1.0  0.67894  0.94763  0.38739  1.0000
  C   C4890     1.0  0.70685  0.92696  0.39336  1.0000
  C   C4891     1.0  0.70372  0.93076  0.37850  1.0000
  C   C4892     1.0  0.68976  0.94103  0.37552  1.0000
  H   H8359     1.0  0.78742  0.80142  0.26335  1.0000
  C   C4893     1.0  0.77858  0.73426  0.28232  1.0000
  C   C4894     1.0  0.69387  0.95360  0.45664  1.0000
  C   C4895     1.0  0.67923  0.95571  0.45314  1.0000
  S   S1425     1.0  0.50259  0.94766  0.29901  1.0000
  H   H8360     1.0  0.51816  0.85932  0.23237  1.0000
  H   H8361     1.0  0.70234  0.98255  0.39649  1.0000
  H   H8362     1.0  0.88795  0.75508  0.37357  1.0000
  S   S1426     1.0  0.72539  0.91637  0.39642  1.0000
  C   C4896     1.0  0.64001  0.87187  0.40688  1.0000
  C   C4897     1.0  0.65269  0.87307  0.39414  1.0000
  C   C4898     1.0  0.65911  0.86097  0.38612  1.0000
  C   C4899     1.0  0.65332  0.84736  0.39121  1.0000
  C   C4900     1.0  0.64121  0.84578  0.40445  1.0000
  C   C4901     1.0  0.63440  0.85813  0.41213  1.0000
  H   H8363     1.0  0.65725  0.88353  0.39006  1.0000
  H   H8364     1.0  0.66844  0.86226  0.37587  1.0000
  H   H8365     1.0  0.63676  0.83522  0.40843  1.0000
  H   H8366     1.0  0.62493  0.85694  0.42219  1.0000
  C   C4902     1.0  0.57098  0.95116  0.43501  1.0000
  C   C4903     1.0  0.56215  0.96532  0.43877  1.0000
  S   S1427     1.0  0.75618  0.97363  0.34268  1.0000
  H   H8367     1.0  0.98783  0.81297  0.43285  1.0000
  C   C4904     1.0  0.59367  0.96286  0.42363  1.0000
  C   C4905     1.0  0.58681  0.94987  0.42747  1.0000
  H   H8368     1.0  0.61057  0.87093  0.23669  1.0000
  C   C4906     1.0  0.51322  0.90244  0.38333  1.0000
  H   H8369     1.0  0.60570  0.96201  0.41742  1.0000
  H   H8370     1.0  0.59365  0.93895  0.42450  1.0000
  C   C4907     1.0  0.84372  0.78947  0.42535  1.0000
  C   C4908     1.0  0.83442  0.80394  0.42781  1.0000
  C   C4909     1.0  0.83959  0.81764  0.41963  1.0000
  C   C4910     1.0  0.85389  0.81686  0.40875  1.0000
  C   C4911     1.0  0.86328  0.80235  0.40651  1.0000
  C   C4912     1.0  0.85827  0.78865  0.41490  1.0000
  H   H8371     1.0  0.82323  0.80457  0.43601  1.0000
  H   H8372     1.0  0.83237  0.82885  0.42145  1.0000
  H   H8373     1.0  0.87452  0.80166  0.39849  1.0000
  H   H8374     1.0  0.86563  0.77751  0.41318  1.0000
  H   H8375     1.0  0.93812  0.79060  0.36695  1.0000
  H   H8376     1.0  0.63191  0.91950  0.44796  1.0000
  H   H8377     1.0  0.91965  0.77034  0.44898  1.0000
  C   C4913     1.0  0.71672  0.87208  0.36457  1.0000
  C   C4914     1.0  0.95877  0.84218  0.36268  1.0000
  H   H8378     1.0  0.74109  0.79223  0.30570  1.0000
  H   H8379     1.0  0.93681  0.85336  0.37556  1.0000
  H   H8380     1.0  0.83205  0.89361  0.31856  1.0000
  H   H8381     1.0  0.80923  0.90749  0.33560  1.0000
  N   N352      1.0  0.50370  0.89051  0.41279  1.0000
  C   C4915     1.0  0.51841  0.95040  0.24495  1.0000
  H   H8382     1.0  0.53367  0.87187  0.25980  1.0000
  H   H8383     1.0  0.61544  0.91223  0.36936  1.0000
  C   C4916     1.0  0.89985  0.78340  0.47242  1.0000
  H   H8384     1.0  0.95215  0.82858  0.45361  1.0000
  H   H8385     1.0  0.53088  0.78227  0.33396  1.0000
  S   S1428     1.0  0.50482  0.86309  0.37494  1.0000
  H   H8386     1.0  0.82929  0.96673  0.33757  1.0000
  H   H8387     1.0  0.81265  0.87613  0.32460  1.0000
  H   H8388     1.0  0.52244  0.75748  0.33608  1.0000
  H   H8389     1.0  0.80921  0.86910  0.35596  1.0000
  H   H8390     1.0  0.79395  0.78299  0.25794  1.0000
  C   C4917     1.0  0.90033  0.75460  0.37346  1.0000
  C   C4918     1.0  0.66593  0.95445  0.46515  1.0000
  H   H8391     1.0  0.79857  0.83822  0.37283  1.0000
  H   H8392     1.0  0.62149  0.79288  0.23997  1.0000
  H   H8393     1.0  0.51056  0.95532  0.25446  1.0000
  H   H8394     1.0  0.85986  0.76136  0.36592  1.0000
  Fe  Fe710     1.0  0.49425  0.92746  0.31621  1.0000
  C   C4919     1.0  0.50785  0.77268  0.36020  1.0000
  C   C4920     1.0  0.62397  0.86256  0.46033  1.0000
  H   H8395     1.0  0.73055  0.81757  0.28584  1.0000
  H   H8396     1.0  0.50573  0.90458  0.43629  1.0000
  H   H8397     1.0  0.49921  0.84157  0.28605  1.0000
  H   H8398     1.0  0.50056  0.77463  0.37172  1.0000
  C   C4921     1.0  0.54087  0.84931  0.40165  1.0000
  C   C4922     1.0  0.54737  0.84984  0.41367  1.0000
  C   C4923     1.0  0.55575  0.86131  0.41169  1.0000
  C   C4924     1.0  0.55785  0.87216  0.39757  1.0000
  C   C4925     1.0  0.55165  0.87142  0.38543  1.0000
  C   C4926     1.0  0.54319  0.86002  0.38745  1.0000
  H   H8399     1.0  0.54567  0.84153  0.42467  1.0000
  H   H8400     1.0  0.56050  0.86180  0.42112  1.0000
  H   H8401     1.0  0.55325  0.87980  0.37448  1.0000
  H   H8402     1.0  0.53837  0.85958  0.37807  1.0000
  H   H8403     1.0  0.74327  0.77139  0.28742  1.0000
  H   H8404     1.0  0.61756  0.75301  0.26691  1.0000
  C   C4927     1.0  0.80541  0.84718  0.37083  1.0000
  C   C4928     1.0  0.75142  0.78487  0.29940  1.0000
  H   H8405     1.0  0.50395  0.88080  0.24632  1.0000
  H   H8406     1.0  0.72097  0.95489  0.38091  1.0000
  H   H8407     1.0  0.80341  0.73879  0.40758  1.0000
  H   H8408     1.0  0.93114  0.75159  0.34641  1.0000
  H   H8409     1.0  0.79904  0.98133  0.39162  1.0000
  C   C4929     1.0  0.49946  0.78470  0.34794  1.0000
  H   H8410     1.0  0.89438  0.79339  0.44128  1.0000
  C   C4930     1.0  0.72912  0.85888  0.35766  1.0000
  S   S1429     1.0  0.57618  0.87578  0.24972  1.0000
  N   N353      1.0  0.63277  0.84602  0.46533  1.0000
  C   C4931     1.0  0.71485  0.98150  0.35740  1.0000
  H   H8411     1.0  0.80860  0.96676  0.32957  1.0000
  H   H8412     1.0  0.61832  0.82672  0.45362  1.0000
  C   C4932     1.0  0.83302  0.95612  0.34633  1.0000
  C   C4933     1.0  0.90464  0.79920  0.46528  1.0000
  H   H8413     1.0  0.92907  0.74108  0.37873  1.0000
  H   H8414     1.0  0.58824  0.78831  0.24563  1.0000
  C   C4934     1.0  0.63495  0.83054  0.28700  1.0000
  C   C4935     1.0  0.62190  0.84088  0.29356  1.0000
  C   C4936     1.0  0.62369  0.85052  0.30222  1.0000
  C   C4937     1.0  0.63848  0.84971  0.30468  1.0000
  C   C4938     1.0  0.65145  0.83892  0.29872  1.0000
  C   C4939     1.0  0.64968  0.82939  0.28987  1.0000
  H   H8415     1.0  0.61049  0.84177  0.29164  1.0000
  H   H8416     1.0  0.61360  0.85876  0.30691  1.0000
  H   H8417     1.0  0.66290  0.83819  0.30060  1.0000
  H   H8418     1.0  0.65982  0.82135  0.28494  1.0000
  C   C4940     1.0  0.54599  0.82362  0.30489  1.0000
  C   C4941     1.0  0.53654  0.81921  0.31953  1.0000
  C   C4942     1.0  0.52704  0.83054  0.32775  1.0000
  C   C4943     1.0  0.52689  0.84630  0.32127  1.0000
  C   C4944     1.0  0.53588  0.85077  0.30638  1.0000
  C   C4945     1.0  0.54549  0.83943  0.29820  1.0000
  H   H8419     1.0  0.53683  0.80704  0.32458  1.0000
  H   H8420     1.0  0.51976  0.82710  0.33901  1.0000
  H   H8421     1.0  0.53552  0.86298  0.30127  1.0000
  H   H8422     1.0  0.55250  0.84292  0.28673  1.0000
  S   S1430     1.0  0.95639  0.76023  0.44646  1.0000
  H   H8423     1.0  0.55352  0.92569  0.23661  1.0000
  H   H8424     1.0  0.81402  0.93086  0.34154  1.0000
  H   H8425     1.0  0.61137  0.89239  0.26659  1.0000
  H   H8426     1.0  0.90044  0.75572  0.38515  1.0000
  C   C4946     1.0  0.93447  0.75627  0.35476  1.0000
  H   H8427     1.0  0.59434  0.85825  0.39496  1.0000
  H   H8428     1.0  0.61249  0.86484  0.46865  1.0000
  H   H8429     1.0  0.91022  0.75931  0.44212  1.0000
  C   C4947     1.0  0.84920  0.95699  0.34795  1.0000
  H   H8430     1.0  0.66645  0.76170  0.25483  1.0000
  S   S1431     1.0  0.50525  0.91090  0.30016  1.0000
  H   H8431     1.0  0.61232  0.96598  0.47098  1.0000
  H   H8432     1.0  0.62862  0.88568  0.44967  1.0000
  C   C4948     1.0  0.53160  0.89238  0.26758  1.0000
  H   H8433     1.0  0.60125  0.88341  0.37345  1.0000
  S   S1432     1.0  0.88940  0.82830  0.33074  1.0000
  H   H8434     1.0  0.91292  0.78352  0.37706  1.0000
  H   H8435     1.0  0.91635  0.79502  0.34949  1.0000
  C   C4949     1.0  0.57984  0.88320  0.22955  1.0000
  C   C4950     1.0  0.62107  0.83569  0.47255  1.0000
  H   H8436     1.0  0.66408  0.84280  0.43282  1.0000
  C   C4951     1.0  0.52502  0.78846  0.36171  1.0000
  H   H8437     1.0  0.78717  0.98177  0.42411  1.0000
  N   N354      1.0  0.54769  0.90048  0.31555  1.0000
  C   C4952     1.0  0.53686  0.91574  0.31847  1.0000
  C   C4953     1.0  0.53889  0.88780  0.32439  1.0000
  C   C4954     1.0  0.55096  0.90107  0.29834  1.0000
  C   C4955     1.0  0.56264  0.89861  0.32073  1.0000
  C   C4956     1.0  0.54269  0.93070  0.30926  1.0000
  C   C4957     1.0  0.53340  0.88666  0.34212  1.0000
  C   C4958     1.0  0.56165  0.88655  0.29261  1.0000
  C   C4959     1.0  0.57229  0.88178  0.32511  1.0000
  H   H8438     1.0  0.52526  0.91696  0.31592  1.0000
  H   H8439     1.0  0.53432  0.91618  0.33097  1.0000
  H   H8440     1.0  0.54569  0.87610  0.32267  1.0000
  H   H8441     1.0  0.52821  0.88947  0.31984  1.0000
  H   H8442     1.0  0.53976  0.90348  0.29448  1.0000
  H   H8443     1.0  0.55675  0.91082  0.29142  1.0000
  H   H8444     1.0  0.57057  0.90551  0.31164  1.0000
  H   H8445     1.0  0.55992  0.90357  0.33126  1.0000
  H   H8446     1.0  0.54204  0.93332  0.29684  1.0000
  H   H8447     1.0  0.53477  0.94074  0.31406  1.0000
  H   H8448     1.0  0.55471  0.93023  0.31020  1.0000
  H   H8449     1.0  0.54248  0.88771  0.34747  1.0000
  H   H8450     1.0  0.52257  0.89565  0.34480  1.0000
  H   H8451     1.0  0.53032  0.87518  0.34781  1.0000
  H   H8452     1.0  0.55711  0.87584  0.29829  1.0000
  H   H8453     1.0  0.57384  0.88486  0.29384  1.0000
  H   H8454     1.0  0.56228  0.88839  0.27996  1.0000
  H   H8455     1.0  0.58498  0.88193  0.32153  1.0000
  H   H8456     1.0  0.57067  0.87319  0.31960  1.0000
  H   H8457     1.0  0.56994  0.87749  0.33794  1.0000
  H   H8458     1.0  0.72553  0.85735  0.34761  1.0000
  H   H8459     1.0  0.73079  0.84734  0.36563  1.0000
  H   H8460     1.0  0.60619  0.84594  0.45511  1.0000
  Fe  Fe711     1.0  0.98818  0.74438  0.47087  1.0000
  C   C4960     1.0  0.81554  0.94230  0.34216  1.0000
  H   H8461     1.0  0.50957  0.83720  0.30171  1.0000
  H   H8462     1.0  0.53649  0.86446  0.22955  1.0000
  C   C4961     1.0  0.58272  0.92644  0.47068  1.0000
  H   H8463     1.0  0.54090  0.96840  0.22841  1.0000
  H   H8464     1.0  0.54428  0.90093  0.23541  1.0000
  H   H8465     1.0  0.83354  0.93555  0.37501  1.0000
  H   H8466     1.0  0.65591  0.89196  0.25055  1.0000
  H   H8467     1.0  0.52829  0.74865  0.37036  1.0000
  H   H8468     1.0  0.98786  0.86798  0.43435  1.0000
  C   C4962     1.0  0.84252  0.92731  0.31923  1.0000
  H   H8469     1.0  0.49784  0.79672  0.34932  1.0000
  H   H8470     1.0  0.58752  0.83395  0.41018  1.0000
  H   H8471     1.0  0.54697  0.77134  0.34222  1.0000
  H   H8472     1.0  0.61616  0.85896  0.26187  1.0000
  C   C4963     1.0  0.53427  0.75735  0.33732  1.0000
  H   H8473     1.0  0.59385  0.97882  0.47042  1.0000
  H   H8474     1.0  0.53359  0.88492  0.27898  1.0000
  H   H8475     1.0  0.59723  0.88355  0.26364  1.0000
  N   N355      1.0  0.96556  0.80971  0.40851  1.0000
  C   C4964     1.0  0.97089  0.81684  0.41867  1.0000
  C   C4965     1.0  0.95098  0.82092  0.40413  1.0000
  C   C4966     1.0  0.97835  0.80847  0.39407  1.0000
  C   C4967     1.0  0.96275  0.79385  0.41744  1.0000
  C   C4968     1.0  0.81266  0.74030  0.41243  1.0000
  C   C4969     1.0  0.93679  0.82348  0.41779  1.0000
  C   C4970     1.0  0.97569  0.80096  0.38216  1.0000
  C   C4971     1.0  0.95217  0.78682  0.41180  1.0000
  H   H8476     1.0  0.97176  0.82914  0.41297  1.0000
  H   H8477     1.0  0.96214  0.81737  0.42983  1.0000
  H   H8478     1.0  0.94689  0.81760  0.39545  1.0000
  H   H8479     1.0  0.95356  0.83259  0.39812  1.0000
  C   C4972     1.0  0.61133  0.83442  0.46173  1.0000
  C   C4973     1.0  0.97234  0.79710  0.47546  1.0000
  H   H8480     1.0  0.97412  0.78526  0.41766  1.0000
  H   H8481     1.0  0.95730  0.79413  0.42987  1.0000
  H   H8482     1.0  0.96472  0.80684  0.37807  1.0000
  H   H8483     1.0  0.52289  0.90306  0.27008  1.0000
  H   H8484     1.0  0.51952  0.91479  0.24599  1.0000
  H   H8485     1.0  0.92629  0.83023  0.41303  1.0000
  H   H8486     1.0  0.93398  0.81241  0.42532  1.0000
  H   H8487     1.0  0.93865  0.83049  0.42500  1.0000
  C   C4974     1.0  0.58602  0.77156  0.23414  1.0000
  C   C4975     1.0  0.70559  0.97699  0.38632  1.0000
  Fe  Fe712     1.0  0.50646  0.85036  0.35677  1.0000
  H   H8488     1.0  0.95812  0.77464  0.41079  1.0000
  H   H8489     1.0  0.94925  0.79296  0.40045  1.0000
  H   H8490     1.0  0.94107  0.78607  0.42062  1.0000
  N   N356      1.0  0.80544  0.85614  0.34143  1.0000
  C   C4976     1.0  0.82267  0.84843  0.33779  1.0000
  C   C4977     1.0  0.80243  0.87048  0.32870  1.0000
  C   C4978     1.0  0.79619  0.84458  0.34194  1.0000
  C   C4979     1.0  0.82970  0.84597  0.32100  1.0000
  C   C4980     1.0  0.78822  0.88367  0.33277  1.0000
  C   C4981     1.0  0.77816  0.84953  0.34643  1.0000
  H   H8491     1.0  0.82508  0.83678  0.34564  1.0000
  H   H8492     1.0  0.80117  0.86728  0.31829  1.0000
  H   H8493     1.0  0.79880  0.84166  0.33035  1.0000
  H   H8494     1.0  0.79995  0.83309  0.34961  1.0000
  H   H8495     1.0  0.82349  0.83906  0.31755  1.0000
  H   H8496     1.0  0.83011  0.85717  0.31239  1.0000
  H   H8497     1.0  0.84209  0.83941  0.32027  1.0000
  H   H8498     1.0  0.80186  0.85197  0.38151  1.0000
  H   H8499     1.0  0.79009  0.88950  0.34103  1.0000
  H   H8500     1.0  0.77705  0.87976  0.33746  1.0000
  H   H8501     1.0  0.78682  0.89276  0.32201  1.0000
  H   H8502     1.0  0.77327  0.85624  0.33606  1.0000
  H   H8503     1.0  0.77385  0.85628  0.35566  1.0000
  H   H8504     1.0  0.77322  0.83892  0.35141  1.0000
  H   H8505     1.0  0.75628  0.75989  0.30008  1.0000
  H   H8506     1.0  0.50411  0.96348  0.22840  1.0000
  N   N357      1.0  0.63800  0.93125  0.37936  1.0000
  C   C4982     1.0  0.63943  0.93078  0.39559  1.0000
  C   C4983     1.0  0.62780  0.94686  0.37391  1.0000
  C   C4984     1.0  0.65423  0.92962  0.36892  1.0000
  C   C4985     1.0  0.63085  0.91784  0.38047  1.0000
  C   C4986     1.0  0.65285  0.91816  0.40180  1.0000
  C   C4987     1.0  0.61080  0.94985  0.38349  1.0000
  C   C4988     1.0  0.65546  0.93503  0.35119  1.0000
  C   C4989     1.0  0.62622  0.91698  0.36579  1.0000
  H   H8507     1.0  0.64113  0.94212  0.39637  1.0000
  H   H8508     1.0  0.62842  0.92900  0.40430  1.0000
  H   H8509     1.0  0.62692  0.94878  0.36169  1.0000
  H   H8510     1.0  0.63321  0.95643  0.37391  1.0000
  H   H8511     1.0  0.66105  0.93652  0.37163  1.0000
  H   H8512     1.0  0.66091  0.91729  0.37106  1.0000
  H   H8513     1.0  0.63902  0.90660  0.38374  1.0000
  H   H8514     1.0  0.62037  0.91724  0.39024  1.0000
  H   H8515     1.0  0.65341  0.90658  0.39998  1.0000
  H   H8516     1.0  0.66434  0.92139  0.39636  1.0000
  H   H8517     1.0  0.65099  0.91717  0.41452  1.0000
  H   H8518     1.0  0.60445  0.96165  0.37848  1.0000
  H   H8519     1.0  0.60430  0.94139  0.38309  1.0000
  H   H8520     1.0  0.61033  0.94968  0.39573  1.0000
  H   H8521     1.0  0.64930  0.92901  0.34666  1.0000
  H   H8522     1.0  0.66801  0.93220  0.34524  1.0000
  H   H8523     1.0  0.65152  0.94786  0.34765  1.0000
  H   H8524     1.0  0.72889  0.96406  0.39135  1.0000
  H   H8525     1.0  0.62314  0.92833  0.35790  1.0000
  C   C4990     1.0  0.52550  0.76129  0.38782  1.0000
  H   H8526     1.0  0.52988  0.75011  0.39555  1.0000
  C   C4991     1.0  0.65672  0.84881  0.44227  1.0000
  H   H8527     1.0  0.65102  0.84915  0.25970  1.0000
  H   H8528     1.0  0.60489  0.97093  0.45355  1.0000
  C   C4992     1.0  0.78013  0.97229  0.35627  1.0000
  H   H8529     1.0  0.72535  0.97178  0.35787  1.0000
  S   S1433     1.0  0.60771  0.83785  0.24389  1.0000
  H   H8530     1.0  0.82457  0.95773  0.35744  1.0000
  N   N358      1.0  0.82221  0.76283  0.39031  1.0000
  C   C4993     1.0  0.83472  0.76434  0.37548  1.0000
  C   C4994     1.0  0.80679  0.76602  0.38558  1.0000
  C   C4995     1.0  0.82595  0.74628  0.39949  1.0000
  C   C4996     1.0  0.82272  0.77429  0.39918  1.0000
  C   C4997     1.0  0.85181  0.75980  0.37751  1.0000
  C   C4998     1.0  0.80140  0.78265  0.37627  1.0000
  H   H8531     1.0  0.61205  0.77278  0.25712  1.0000
  C   C4999     1.0  0.80894  0.77744  0.41303  1.0000
  H   H8532     1.0  0.83393  0.75712  0.36781  1.0000
  H   H8533     1.0  0.83308  0.77655  0.36860  1.0000
  H   H8534     1.0  0.79704  0.76384  0.39569  1.0000
  H   H8535     1.0  0.80735  0.75774  0.37841  1.0000
  H   H8536     1.0  0.69394  0.97106  0.36427  1.0000
  H   H8537     1.0  0.83588  0.74453  0.40513  1.0000
  H   H8538     1.0  0.83349  0.77038  0.40403  1.0000
  H   H8539     1.0  0.82413  0.78576  0.39132  1.0000
  H   H8540     1.0  0.85522  0.74736  0.38317  1.0000
  H   H8541     1.0  0.49373  0.86461  0.40851  1.0000
  H   H8542     1.0  0.90966  0.74963  0.46809  1.0000
  H   H8543     1.0  0.78935  0.78402  0.37472  1.0000
  H   H8544     1.0  0.80099  0.79172  0.38234  1.0000
  H   H8545     1.0  0.80889  0.78474  0.36442  1.0000
  H   H8546     1.0  0.69938  0.98075  0.46246  1.0000
  S   S1434     1.0  0.66377  0.97936  0.41749  1.0000
  H   H8547     1.0  0.51755  0.88484  0.44000  1.0000
  H   H8548     1.0  0.81147  0.76950  0.42406  1.0000
  H   H8549     1.0  0.79749  0.77674  0.41168  1.0000
  H   H8550     1.0  0.80736  0.78957  0.41427  1.0000
  H   H8551     1.0  0.82991  0.85528  0.33999  1.0000
  H   H8552     1.0  0.62101  0.88435  0.37228  1.0000
  C   C5000     1.0  0.68155  0.94303  0.40251  1.0000
  H   H8553     1.0  0.78979  0.86692  0.36029  1.0000
  Fe  Fe713     1.0  0.75612  0.91844  0.34207  1.0000
  H   H8554     1.0  0.53021  0.77032  0.38992  1.0000
  C   C5001     1.0  0.93862  0.74249  0.36830  1.0000
  C   C5002     1.0  0.81839  0.89889  0.34060  1.0000
  C   C5003     1.0  0.83130  0.89108  0.33097  1.0000
  C   C5004     1.0  0.65942  0.77112  0.23223  1.0000
  C   C5005     1.0  0.80844  0.95479  0.32924  1.0000
  H   H8555     1.0  0.74057  0.86237  0.35261  1.0000
  H   H8556     1.0  0.81811  0.84174  0.36958  1.0000
  C   C5006     1.0  0.69547  0.93257  0.40553  1.0000
  H   H8557     1.0  0.67301  0.94771  0.41185  1.0000
  H   H8558     1.0  0.55023  0.77966  0.36340  1.0000
  Fe  Fe714     1.0  0.74401  0.92244  0.37513  1.0000
  H   H8559     1.0  0.72107  0.88289  0.35847  1.0000
  H   H8560     1.0  0.66191  0.78280  0.24940  1.0000
  H   H8561     1.0  0.70570  0.87346  0.36076  1.0000
  C   C5007     1.0  0.89469  0.78106  0.44766  1.0000
  H   H8562     1.0  0.64606  0.88911  0.23148  1.0000
  S   S1435     1.0  0.53507  0.93102  0.26625  1.0000
  H   H8563     1.0  0.69779  0.92949  0.41710  1.0000
  H   H8564     1.0  0.87506  0.80365  0.46160  1.0000
  H   H8565     1.0  0.61931  0.84500  0.34356  1.0000
  H   H8566     1.0  0.53875  0.74631  0.34512  1.0000
  H   H8567     1.0  0.70689  0.84262  0.37712  1.0000
  H   H8568     1.0  0.50034  0.87441  0.43532  1.0000
  H   H8569     1.0  0.90947  0.78596  0.33022  1.0000
  H   H8570     1.0  0.58965  0.92481  0.45901  1.0000
  C   C5008     1.0  0.93806  0.77842  0.37353  1.0000
  C   C5009     1.0  0.61239  0.87677  0.37698  1.0000
  C   C5010     1.0  0.60789  0.88127  0.26829  1.0000
  H   H8571     1.0  0.74335  0.87695  0.36948  1.0000
  H   H8572     1.0  0.54046  0.79657  0.37085  1.0000
  C   C5011     1.0  0.62392  0.91954  0.45960  1.0000
  H   H8573     1.0  0.57417  0.85401  0.36261  1.0000
  S   S1436     1.0  0.77626  0.93015  0.33759  1.0000
  C   C5012     1.0  0.76979  0.98148  0.34679  1.0000
  H   H8574     1.0  0.81424  0.95258  0.31748  1.0000
  H   H8575     1.0  0.50263  0.90663  0.25268  1.0000
  C   C5013     1.0  0.88540  0.76386  0.47293  1.0000
  H   H8576     1.0  0.55481  0.97586  0.23230  1.0000
  H   H8577     1.0  0.68918  0.89382  0.37090  1.0000
  C   C5014     1.0  0.74078  0.87323  0.38234  1.0000
  H   H8578     1.0  0.84781  0.91587  0.32594  1.0000
  H   H8579     1.0  0.91033  0.80041  0.45275  1.0000
  C   C5015     1.0  0.92443  0.78433  0.34615  1.0000
  H   H8580     1.0  0.62823  0.89912  0.24176  1.0000
  H   H8581     1.0  0.67832  0.95810  0.44118  1.0000
  H   H8582     1.0  0.73356  0.85178  0.38659  1.0000
  H   H8583     1.0  0.88663  0.77745  0.44281  1.0000
  H   H8584     1.0  0.73744  0.88367  0.38748  1.0000
  N   N359      1.0  0.71342  0.87057  0.38196  1.0000
  H   H8585     1.0  0.77318  0.79658  0.30817  1.0000
  H   H8586     1.0  0.80306  0.96629  0.40793  1.0000
  S   S1437     1.0  0.66262  0.96210  0.38300  1.0000
  H   H8587     1.0  0.60747  0.93977  0.45037  1.0000
  H   H8588     1.0  0.76584  0.81654  0.27663  1.0000
  C   C5016     1.0  0.73099  0.80819  0.28012  1.0000
  H   H8589     1.0  0.75182  0.86608  0.38583  1.0000
  C   C5017     1.0  0.62702  0.83805  0.35168  1.0000
  H   H8590     1.0  0.63192  0.82640  0.34876  1.0000
  C   C5018     1.0  0.96067  0.82179  0.46050  1.0000
  C   C5019     1.0  0.61720  0.88013  0.23473  1.0000
  H   H8591     1.0  0.77054  0.77396  0.27432  1.0000
  H   H8592     1.0  0.71477  0.89475  0.37839  1.0000
  C   C5020     1.0  0.72794  0.86365  0.38856  1.0000
  C   C5021     1.0  0.78332  0.79171  0.26184  1.0000
  H   H8593     1.0  0.78610  0.74463  0.29674  1.0000
  C   C5022     1.0  0.64125  0.86103  0.23872  1.0000
  H   H8594     1.0  0.60036  0.86593  0.35335  1.0000
  H   H8595     1.0  0.62727  0.83052  0.37608  1.0000
  H   H8596     1.0  0.62102  0.86426  0.44886  1.0000
  C   C5023     1.0  0.64373  0.83996  0.45156  1.0000
  H   H8597     1.0  0.92129  0.76400  0.38401  1.0000
  H   H8598     1.0  0.77675  0.79596  0.25238  1.0000
  C   C5024     1.0  0.51652  0.89639  0.43184  1.0000
  H   H8599     1.0  0.69034  0.86597  0.38567  1.0000
  H   H8600     1.0  0.72456  0.79954  0.28854  1.0000
  H   H8601     1.0  0.61136  0.82719  0.37108  1.0000
  H   H8602     1.0  0.63717  0.84344  0.34953  1.0000
  H   H8603     1.0  0.60450  0.87664  0.28101  1.0000
  H   H8604     1.0  0.81756  0.92853  0.37306  1.0000
  Fe  Fe715     1.0  0.75869  0.94756  0.35051  1.0000
  H   H8605     1.0  0.92633  0.79400  0.32138  1.0000
  C   C5025     1.0  0.70691  0.88669  0.38539  1.0000
  H   H8606     1.0  0.86237  0.79180  0.44872  1.0000
  C   C5026     1.0  0.70562  0.84378  0.38916  1.0000
  H   H8607     1.0  0.80775  0.94457  0.35339  1.0000
  C   C5027     1.0  0.77353  0.78377  0.27707  1.0000
  H   H8608     1.0  0.75209  0.81448  0.29454  1.0000
  C   C5028     1.0  0.74796  0.80042  0.27317  1.0000
  H   H8609     1.0  0.62253  0.94398  0.45612  1.0000
  H   H8610     1.0  0.79591  0.95449  0.33105  1.0000
  C   C5029     1.0  0.77589  0.80413  0.29649  1.0000
  C   C5030     1.0  0.58684  0.84838  0.36123  1.0000
  H   H8611     1.0  0.62740  0.88064  0.46992  1.0000
  C   C5031     1.0  0.61824  0.83611  0.36890  1.0000
  H   H8612     1.0  0.61069  0.87423  0.38984  1.0000
  H   H8613     1.0  0.83061  0.92716  0.31847  1.0000
  H   H8614     1.0  0.52569  0.85740  0.24896  1.0000
  C   C5032     1.0  0.52539  0.88345  0.25938  1.0000
  H   H8615     1.0  0.85408  0.94709  0.35666  1.0000
  C   C5033     1.0  0.64122  0.80396  0.23032  1.0000
  C   C5034     1.0  0.70122  0.86100  0.39028  1.0000
  C   C5035     1.0  0.69044  0.89483  0.38223  1.0000
  C   C5036     1.0  0.65496  0.85334  0.24703  1.0000
  H   H8616     1.0  0.79940  0.97145  0.36608  1.0000
  H   H8617     1.0  0.77718  0.81516  0.29839  1.0000
  H   H8618     1.0  0.78744  0.79880  0.28995  1.0000
  C   C5037     1.0  0.76266  0.80793  0.28758  1.0000
  H   H8619     1.0  0.72448  0.81361  0.27063  1.0000
  H   H8620     1.0  0.78789  0.96633  0.39928  1.0000
  H   H8621     1.0  0.85717  0.77787  0.46662  1.0000
  C   C5038     1.0  0.54287  0.93403  0.23473  1.0000
  C   C5039     1.0  0.60161  0.96826  0.46648  1.0000
  H   H8622     1.0  0.60828  0.89040  0.23819  1.0000
  H   H8623     1.0  0.63573  0.90911  0.35918  1.0000
  H   H8624     1.0  0.54992  0.96633  0.44464  1.0000
  C   C5040     1.0  0.59101  0.83566  0.39730  1.0000
  C   C5041     1.0  0.59549  0.85893  0.36486  1.0000
  H   H8625     1.0  0.71207  0.92576  0.36931  1.0000
  H   H8626     1.0  0.93646  0.78632  0.34403  1.0000
  H   H8627     1.0  0.54295  0.89537  0.26088  1.0000
  H   H8628     1.0  0.64949  0.82749  0.45529  1.0000
  H   H8629     1.0  0.66309  0.86121  0.24462  1.0000
  H   H8630     1.0  0.64670  0.80819  0.23736  1.0000
  H   H8631     1.0  0.70414  0.95465  0.44733  1.0000
  H   H8632     1.0  0.71620  0.83712  0.39372  1.0000
  H   H8633     1.0  0.72481  0.86216  0.40147  1.0000
  H   H8634     1.0  0.89695  0.77881  0.36235  1.0000
  H   H8635     1.0  0.68829  0.90741  0.38198  1.0000
  S   S1438     1.0  0.73834  0.93725  0.35260  1.0000
  H   H8636     1.0  0.57992  0.84018  0.39310  1.0000
  C   C5042     1.0  0.92209  0.78409  0.33017  1.0000
  Fe  Fe716     1.0  0.64483  0.97178  0.43746  1.0000
  H   H8637     1.0  0.83488  0.91517  0.37771  1.0000
  H   H8638     1.0  0.78134  0.77799  0.28546  1.0000
  S   S1439     1.0  0.76263  0.93462  0.37420  1.0000
  C   C5043     1.0  0.71805  0.96189  0.38987  1.0000
  H   H8639     1.0  0.52847  0.88663  0.41173  1.0000
  H   H8640     1.0  0.58752  0.83659  0.36874  1.0000
  H   H8641     1.0  0.59102  0.84742  0.34886  1.0000
  H   H8642     1.0  0.70635  0.88644  0.39778  1.0000
  H   H8643     1.0  0.70794  0.96556  0.34812  1.0000
  H   H8644     1.0  0.68122  0.89013  0.39169  1.0000
  H   H8645     1.0  0.69580  0.83816  0.39634  1.0000
  H   H8646     1.0  0.92879  0.77324  0.32623  1.0000
  H   H8647     1.0  0.85112  0.92496  0.35208  1.0000
  C   C5044     1.0  0.54140  0.79066  0.36143  1.0000
  C   C5045     1.0  0.64515  0.88723  0.25579  1.0000
  H   H8648     1.0  0.49502  0.88950  0.39334  1.0000
  S   S1440     1.0  0.94937  0.79655  0.46183  1.0000
  H   H8649     1.0  0.91340  0.79996  0.47130  1.0000
  H   H8650     1.0  0.49696  0.86310  0.30752  1.0000
  H   H8651     1.0  0.98541  0.80193  0.37171  1.0000
  H   H8652     1.0  0.85777  0.95785  0.33663  1.0000
  C   C5046     1.0  0.98675  0.80839  0.42325  1.0000
  C   C5047     1.0  0.91105  0.77117  0.44215  1.0000
  H   H8653     1.0  0.69772  0.86130  0.40288  1.0000
  N   N360      1.0  0.92205  0.77018  0.35904  1.0000
  H   H8654     1.0  0.77963  0.96025  0.36143  1.0000
  H   H8655     1.0  0.51266  0.90120  0.37178  1.0000
  H   H8656     1.0  0.51943  0.90642  0.40749  1.0000
  C   C5048     1.0  0.87346  0.79166  0.46750  1.0000
  H   H8657     1.0  0.80737  0.74771  0.42102  1.0000
  N   N361      1.0  0.60833  0.85093  0.37376  1.0000
  C   C5049     1.0  0.62124  0.86903  0.26101  1.0000
  C   C5050     1.0  0.93889  0.73464  0.42678  1.0000
  C   C5051     1.0  0.92285  0.77381  0.37388  1.0000
  H   H8658     1.0  0.69493  0.97322  0.38654  1.0000
  C   C5052     1.0  0.96148  0.80580  0.46635  1.0000
  H   H8659     1.0  0.94873  0.77048  0.36852  1.0000
  H   H8660     1.0  0.93863  0.77796  0.38562  1.0000
  H   H8661     1.0  0.62991  0.85568  0.37522  1.0000
  H   H8662     1.0  0.62352  0.86576  0.35779  1.0000
  H   H8663     1.0  0.61134  0.84322  0.39752  1.0000
  H   H8664     1.0  0.59696  0.82404  0.39475  1.0000
  H   H8665     1.0  0.91610  0.77678  0.43008  1.0000
  H   H8666     1.0  0.97023  0.84138  0.45910  1.0000
  C   C5053     1.0  0.84271  0.94089  0.32605  1.0000
  S   S1441     1.0  0.91494  0.73940  0.41210  1.0000
  C   C5054     1.0  0.51743  0.89513  0.41516  1.0000
  C   C5055     1.0  0.50351  0.84653  0.29340  1.0000
  N   N362      1.0  0.52358  0.89124  0.24291  1.0000
  Fe  Fe717     1.0  0.98236  0.75322  0.43825  1.0000
  C   C5056     1.0  0.61923  0.86181  0.37054  1.0000
  C   C5057     1.0  0.60166  0.84748  0.39107  1.0000
  H   H8667     1.0  0.54215  0.75746  0.32561  1.0000
  H   H8668     1.0  0.68764  0.94429  0.36386  1.0000
  H   H8669     1.0  0.98940  0.88019  0.44560  1.0000
  H   H8670     1.0  0.62947  0.86441  0.26893  1.0000
  C   C5058     1.0  0.70222  0.97559  0.35382  1.0000
  C   C5059     1.0  0.90582  0.76795  0.36049  1.0000
  N   N363      1.0  0.62948  0.87462  0.24447  1.0000
  H   H8671     1.0  0.52663  0.90103  0.43176  1.0000
  H   H8672     1.0  0.58193  0.76378  0.24489  1.0000
  C   C5060     1.0  0.98159  0.82033  0.47289  1.0000
  C   C5061     1.0  0.83048  0.92683  0.37070  1.0000
  Fe  Fe718     1.0  0.96190  0.77173  0.46217  1.0000
  C   C5062     1.0  0.51491  0.95526  0.23017  1.0000
  H   H8673     1.0  0.84981  0.92853  0.30720  1.0000
  H   H8674     1.0  0.94572  0.75993  0.34857  1.0000
  C   C5063     1.0  0.63198  0.87583  0.45925  1.0000
  H   H8675     1.0  0.54429  0.75693  0.36808  1.0000
  H   H8676     1.0  0.52033  0.79832  0.35279  1.0000
  H   H8677     1.0  0.71323  0.95456  0.40110  1.0000
  H   H8678     1.0  0.83628  0.91666  0.35092  1.0000
  H   H8679     1.0  0.51432  0.87850  0.39388  1.0000
  H   H8680     1.0  0.82989  0.73795  0.39158  1.0000
  H   H8681     1.0  0.50687  0.76095  0.35979  1.0000
  H   H8682     1.0  0.76943  0.74430  0.27943  1.0000
  Fe  Fe719     1.0  0.65074  0.97372  0.40299  1.0000
  H   H8683     1.0  0.49753  0.92292  0.40871  1.0000
  H   H8684     1.0  0.66465  0.84898  0.44944  1.0000
  C   C5064     1.0  0.61958  0.76128  0.25549  1.0000
  H   H8685     1.0  0.65110  0.85122  0.47302  1.0000
  H   H8686     1.0  0.63717  0.84021  0.44288  1.0000
  Fe  Fe720     1.0  0.89021  0.73632  0.42126  1.0000
  C   C5065     1.0  0.97094  0.82901  0.46352  1.0000
  C   C5066     1.0  0.56897  0.97822  0.43489  1.0000
  H   H8687     1.0  0.77175  0.97682  0.41941  1.0000
  H   H8688     1.0  0.61568  0.75698  0.24730  1.0000
  H   H8689     1.0  0.63752  0.89502  0.26361  1.0000
  H   H8690     1.0  0.66445  0.75937  0.22945  1.0000
  S   S1442     1.0  0.57381  0.86013  0.47085  1.0000
  H   H8691     1.0  0.84553  0.73701  0.46756  1.0000
  H   H8692     1.0  0.91100  0.77451  0.47220  1.0000
  C   C5067     1.0  0.58474  0.97706  0.42733  1.0000
  C   C5068     1.0  0.50777  0.91678  0.22823  1.0000
  H   H8693     1.0  0.57321  0.93706  0.46943  1.0000
  H   H8694     1.0  0.89465  0.80919  0.46714  1.0000
  H   H8695     1.0  0.54822  0.88093  0.23583  1.0000
  H   H8696     1.0  0.98071  0.82016  0.38792  1.0000
  H   H8697     1.0  0.98955  0.80130  0.39711  1.0000
  C   C5069     1.0  0.63714  0.88790  0.24263  1.0000
  H   H8698     1.0  0.63139  0.91551  0.46830  1.0000
  H   H8699     1.0  0.51691  0.79074  0.37283  1.0000
  S   S1443     1.0  0.98772  0.76656  0.45262  1.0000
  H   H8700     1.0  0.64367  0.74984  0.24822  1.0000
  H   H8701     1.0  0.84912  0.79814  0.46525  1.0000
  S   S1444     1.0  0.49729  0.92471  0.34033  1.0000
  C   C5070     1.0  0.50320  0.87434  0.42271  1.0000
  H   H8702     1.0  0.88027  0.75958  0.46562  1.0000
  H   H8703     1.0  0.98775  0.79568  0.42754  1.0000
  N   N364      1.0  0.64173  0.77418  0.23625  1.0000
  H   H8704     1.0  0.84784  0.96778  0.35199  1.0000
  H   H8705     1.0  0.61648  0.91116  0.46141  1.0000
  C   C5071     1.0  0.54439  0.97949  0.22707  1.0000
  H   H8706     1.0  0.58610  0.95609  0.46375  1.0000
  H   H8707     1.0  0.60134  0.82904  0.46893  1.0000
  H   H8708     1.0  0.50023  0.92812  0.23052  1.0000
  C   C5072     1.0  0.79341  0.97413  0.40241  1.0000
  H   H8709     1.0  0.98826  0.86019  0.45452  1.0000
  H   H8710     1.0  0.64493  0.87283  0.45668  1.0000
  H   H8711     1.0  0.57687  0.91645  0.47591  1.0000
  C   C5073     1.0  0.79140  0.97861  0.35880  1.0000
  H   H8712     1.0  0.94551  0.73962  0.41560  1.0000
  C   C5074     1.0  0.59297  0.95469  0.47259  1.0000
  C   C5075     1.0  0.99322  0.86807  0.44377  1.0000
  H   H8713     1.0  0.76287  0.98203  0.39601  1.0000
  S   S1445     1.0  0.71333  0.94902  0.47629  1.0000
  N   N365      1.0  0.60324  0.93855  0.47518  1.0000
  H   H8714     1.0  0.63161  0.81381  0.22682  1.0000
  Fe  Fe721     1.0  0.78098  0.96459  0.58486  1.0000
  S   S1446     1.0  0.76505  0.96141  0.60854  1.0000
  H   H8715     1.0  0.99198  0.83509  0.56683  1.0000
  Fe  Fe722     1.0  0.81037  0.94941  0.59773  1.0000
  S   S1447     1.0  0.79680  0.94533  0.62244  1.0000
  S   S1448     1.0  0.83647  0.94051  0.59060  1.0000
  Fe  Fe723     1.0  0.78055  0.93761  0.61304  1.0000
  S   S1449     1.0  0.77374  0.91457  0.62486  1.0000
  Fe  Fe724     1.0  0.78273  0.96957  0.61553  1.0000
  S   S1450     1.0  0.79507  0.94008  0.58877  1.0000
  H   H8716     1.0  0.81187  0.74748  0.49998  1.0000
  Fe  Fe725     1.0  0.70307  0.88250  0.63184  1.0000
  S   S1451     1.0  0.70088  0.86401  0.65386  1.0000
  S   S1452     1.0  0.70548  0.90720  0.62866  1.0000
  Fe  Fe726     1.0  0.69955  0.86201  0.61220  1.0000
  S   S1453     1.0  0.69772  0.84147  0.63229  1.0000
  S   S1454     1.0  0.69756  0.86465  0.58751  1.0000
  Fe  Fe727     1.0  0.68168  0.85917  0.64590  1.0000
  S   S1455     1.0  0.65681  0.85667  0.65773  1.0000
  Fe  Fe728     1.0  0.71709  0.84782  0.63861  1.0000
  S   S1456     1.0  0.74006  0.83314  0.64459  1.0000
  S   S1457     1.0  0.68244  0.87920  0.62530  1.0000
  S   S1458     1.0  0.72037  0.86677  0.61715  1.0000
  C   C5076     1.0  0.60434  0.94222  0.50187  1.0000
  Fe  Fe729     1.0  0.78069  0.74728  0.65556  1.0000
  S   S1459     1.0  0.79584  0.74069  0.63343  1.0000
  S   S1460     1.0  0.75542  0.75959  0.65617  1.0000
  Fe  Fe730     1.0  0.98982  0.82197  0.50395  1.0000
  H   H8717     1.0  0.68481  0.87171  0.53976  1.0000
  Fe  Fe731     1.0  0.81441  0.74812  0.63963  1.0000
  S   S1461     1.0  0.82945  0.76261  0.62103  1.0000
  C   C5077     1.0  0.57336  0.93414  0.70265  1.0000
  C   C5078     1.0  0.96450  0.79888  0.60865  1.0000
  S   S1462     1.0  0.79868  0.75672  0.66043  1.0000
  C   C5079     1.0  0.85502  0.73379  0.59839  1.0000
  S   S1463     1.0  0.95277  0.87108  0.63150  1.0000
  Fe  Fe732     1.0  0.86851  0.85516  0.62385  1.0000
  S   S1464     1.0  0.88417  0.83410  0.63541  1.0000
  S   S1465     1.0  0.85827  0.87598  0.63485  1.0000
  Fe  Fe733     1.0  0.87063  0.84071  0.59715  1.0000
  S   S1466     1.0  0.88652  0.81845  0.60625  1.0000
  S   S1467     1.0  0.86459  0.84563  0.57388  1.0000
  Fe  Fe734     1.0  0.87032  0.82051  0.62938  1.0000
  S   S1468     1.0  0.86159  0.80029  0.64688  1.0000
  Fe  Fe735     1.0  0.89889  0.83398  0.61131  1.0000
  S   S1469     1.0  0.92511  0.83125  0.60345  1.0000
  S   S1470     1.0  0.85332  0.84165  0.61985  1.0000
  S   S1471     1.0  0.88429  0.85613  0.60025  1.0000
  Fe  Fe736     1.0  0.85219  0.78108  0.54913  1.0000
  S   S1472     1.0  0.87778  0.77238  0.54914  1.0000
  S   S1473     1.0  0.83610  0.79227  0.56838  1.0000
  Fe  Fe737     1.0  0.85532  0.77034  0.51990  1.0000
  S   S1474     1.0  0.88124  0.76107  0.51705  1.0000
  S   S1475     1.0  0.84203  0.76921  0.50316  1.0000
  Fe  Fe738     1.0  0.87539  0.75140  0.54269  1.0000
  H   H8718     1.0  0.75864  0.88692  0.59539  1.0000
  Fe  Fe739     1.0  0.88136  0.78293  0.52357  1.0000
  H   H8719     1.0  0.75064  0.90641  0.59838  1.0000
  S   S1476     1.0  0.84934  0.75899  0.54513  1.0000
  S   S1477     1.0  0.85582  0.79322  0.52396  1.0000
  H   H8720     1.0  0.74619  0.93698  0.61600  1.0000
  H   H8721     1.0  0.57263  0.92924  0.71528  1.0000
  S   S1478     1.0  0.50824  0.89025  0.64585  1.0000
  S   S1479     1.0  0.51263  0.85712  0.68359  1.0000
  N   N366      1.0  0.75607  0.93924  0.66258  1.0000
  S   S1480     1.0  0.50960  0.87477  0.60891  1.0000
  H   H8722     1.0  0.81974  0.79352  0.71469  1.0000
  H   H8723     1.0  0.97411  0.82559  0.60411  1.0000
  Fe  Fe740     1.0  0.62176  0.86402  0.56782  1.0000
  S   S1481     1.0  0.61422  0.88962  0.56668  1.0000
  S   S1482     1.0  0.63481  0.84821  0.58604  1.0000
  Fe  Fe741     1.0  0.60555  0.86623  0.54200  1.0000
  S   S1483     1.0  0.59657  0.89216  0.53873  1.0000
  S   S1484     1.0  0.60223  0.84960  0.52962  1.0000
  Fe  Fe742     1.0  0.62065  0.89207  0.54084  1.0000
  S   S1485     1.0  0.63410  0.90954  0.52440  1.0000
  Fe  Fe743     1.0  0.59092  0.88747  0.56491  1.0000
  S   S1486     1.0  0.57121  0.90088  0.58037  1.0000
  S   S1487     1.0  0.63021  0.86649  0.54202  1.0000
  S   S1488     1.0  0.59783  0.86150  0.56815  1.0000
  C   C5080     1.0  0.89922  0.75075  0.47766  1.0000
  Fe  Fe744     1.0  0.73207  0.94336  0.52442  1.0000
  S   S1489     1.0  0.71177  0.95172  0.54281  1.0000
  S   S1490     1.0  0.75624  0.93410  0.52909  1.0000
  Fe  Fe745     1.0  0.71216  0.94969  0.50093  1.0000
  C   C5081     1.0  0.53580  0.85677  0.69779  1.0000
  H   H8724     1.0  0.67232  0.89035  0.51036  1.0000
  Fe  Fe746     1.0  0.69879  0.93867  0.53515  1.0000
  S   S1491     1.0  0.68302  0.92413  0.55281  1.0000
  C   C5082     1.0  0.70782  0.88710  0.54498  1.0000
  S   S1492     1.0  0.71977  0.92834  0.51856  1.0000
  H   H8725     1.0  0.91276  0.74379  0.52921  1.0000
  H   H8726     1.0  0.52901  0.92681  0.67594  1.0000
  H   H8727     1.0  0.68296  0.94598  0.49606  1.0000
  C   C5083     1.0  0.64702  0.91415  0.53273  1.0000
  C   C5084     1.0  0.64832  0.90733  0.54812  1.0000
  C   C5085     1.0  0.65905  0.91081  0.55439  1.0000
  C   C5086     1.0  0.66880  0.92085  0.54517  1.0000
  C   C5087     1.0  0.66762  0.92755  0.52975  1.0000
  C   C5088     1.0  0.65665  0.92433  0.52359  1.0000
  H   H8728     1.0  0.64137  0.89912  0.55512  1.0000
  H   H8729     1.0  0.66014  0.90532  0.56620  1.0000
  H   H8730     1.0  0.67529  0.93500  0.52248  1.0000
  H   H8731     1.0  0.65583  0.92945  0.51164  1.0000
  C   C5089     1.0  0.59264  0.85429  0.51409  1.0000
  C   C5090     1.0  0.59125  0.86881  0.50358  1.0000
  H   H8732     1.0  0.86902  0.79174  0.48014  1.0000
  H   H8733     1.0  0.52323  0.92835  0.70240  1.0000
  H   H8734     1.0  0.81993  0.74391  0.54935  1.0000
  C   C5091     1.0  0.58754  0.84233  0.51151  1.0000
  H   H8735     1.0  0.59521  0.87809  0.50551  1.0000
  H   H8736     1.0  0.90755  0.74771  0.55679  1.0000
  H   H8737     1.0  0.78344  0.75652  0.49961  1.0000
  H   H8738     1.0  0.58858  0.83111  0.51956  1.0000
  C   C5092     1.0  0.52612  0.88286  0.59988  1.0000
  C   C5093     1.0  0.52786  0.89564  0.60426  1.0000
  C   C5094     1.0  0.54159  0.90135  0.59783  1.0000
  C   C5095     1.0  0.55368  0.89425  0.58706  1.0000
  C   C5096     1.0  0.55185  0.88166  0.58239  1.0000
  C   C5097     1.0  0.53798  0.87607  0.58869  1.0000
  H   H8739     1.0  0.51859  0.90120  0.61255  1.0000
  H   H8740     1.0  0.54292  0.91119  0.60134  1.0000
  H   H8741     1.0  0.56112  0.87619  0.57400  1.0000
  H   H8742     1.0  0.53664  0.86622  0.58520  1.0000
  H   H8743     1.0  0.62587  0.83924  0.50017  1.0000
  H   H8744     1.0  0.89462  0.78302  0.48502  1.0000
  H   H8745     1.0  0.57155  0.94699  0.70028  1.0000
  H   H8746     1.0  0.62363  0.85975  0.49124  1.0000
  H   H8747     1.0  0.95927  0.82351  0.62091  1.0000
  C   C5098     1.0  0.91479  0.79523  0.51861  1.0000
  C   C5099     1.0  0.91308  0.78949  0.53465  1.0000
  C   C5100     1.0  0.92567  0.78693  0.54170  1.0000
  C   C5101     1.0  0.93992  0.79054  0.53283  1.0000
  H   H8748     1.0  0.80072  0.87269  0.59389  1.0000
  C   C5102     1.0  0.92888  0.79940  0.50979  1.0000
  H   H8749     1.0  0.90213  0.78688  0.54165  1.0000
  H   H8750     1.0  0.92442  0.78198  0.55405  1.0000
  H   H8751     1.0  0.83763  0.86527  0.59173  1.0000
  H   H8752     1.0  0.80919  0.81128  0.70522  1.0000
  C   C5103     1.0  0.75407  0.97075  0.54667  1.0000
  H   H8753     1.0  0.69531  0.88918  0.55088  1.0000
  H   H8754     1.0  0.74156  0.96556  0.53256  1.0000
  H   H8755     1.0  0.81033  0.77577  0.57983  1.0000
  C   C5104     1.0  0.85601  0.83132  0.57233  1.0000
  C   C5105     1.0  0.84560  0.82450  0.58506  1.0000
  C   C5106     1.0  0.83884  0.81305  0.58358  1.0000
  C   C5107     1.0  0.84325  0.80773  0.56971  1.0000
  C   C5108     1.0  0.85363  0.81459  0.55701  1.0000
  C   C5109     1.0  0.85964  0.82666  0.55819  1.0000
  H   H8756     1.0  0.84272  0.82807  0.59601  1.0000
  H   H8757     1.0  0.83064  0.80796  0.59335  1.0000
  H   H8758     1.0  0.85697  0.81069  0.54622  1.0000
  H   H8759     1.0  0.86748  0.83205  0.54824  1.0000
  C   C5110     1.0  0.94560  0.85974  0.62349  1.0000
  C   C5111     1.0  0.93315  0.85279  0.63262  1.0000
  C   C5112     1.0  0.92653  0.84440  0.62638  1.0000
  C   C5113     1.0  0.93256  0.84263  0.61104  1.0000
  C   C5114     1.0  0.94518  0.84934  0.60194  1.0000
  C   C5115     1.0  0.95167  0.85796  0.60813  1.0000
  H   H8760     1.0  0.92853  0.85397  0.64457  1.0000
  H   H8761     1.0  0.91696  0.83905  0.63354  1.0000
  H   H8762     1.0  0.94997  0.84779  0.59013  1.0000
  H   H8763     1.0  0.96130  0.86324  0.60104  1.0000
  C   C5116     1.0  0.81532  0.73725  0.58861  1.0000
  S   S1493     1.0  0.49571  0.91868  0.71989  1.0000
  H   H8764     1.0  0.76867  0.95547  0.64499  1.0000
  H   H8765     1.0  0.93125  0.89213  0.60980  1.0000
  H   H8766     1.0  0.73645  0.94090  0.56579  1.0000
  C   C5117     1.0  0.83943  0.77216  0.62809  1.0000
  C   C5118     1.0  0.84672  0.78386  0.61786  1.0000
  C   C5119     1.0  0.85360  0.79259  0.62346  1.0000
  C   C5120     1.0  0.85381  0.78912  0.63927  1.0000
  C   C5121     1.0  0.84737  0.77675  0.64933  1.0000
  C   C5122     1.0  0.83988  0.76849  0.64385  1.0000
  H   H8767     1.0  0.84693  0.78624  0.60558  1.0000
  H   H8768     1.0  0.85877  0.80192  0.61554  1.0000
  H   H8769     1.0  0.84814  0.77365  0.66139  1.0000
  H   H8770     1.0  0.83466  0.75916  0.65174  1.0000
  C   C5123     1.0  0.94142  0.79720  0.51693  1.0000
  C   C5124     1.0  0.53975  0.88652  0.68133  1.0000
  C   C5125     1.0  0.52849  0.88019  0.67887  1.0000
  C   C5126     1.0  0.52649  0.86529  0.68699  1.0000
  C   C5127     1.0  0.95687  0.79881  0.64426  1.0000
  H   H8771     1.0  0.97289  0.78478  0.48013  1.0000
  H   H8772     1.0  0.54123  0.89803  0.67488  1.0000
  H   H8773     1.0  0.52135  0.88688  0.67067  1.0000
  H   H8774     1.0  0.58186  0.84995  0.60334  1.0000
  C   C5128     1.0  0.74344  0.81269  0.64895  1.0000
  C   C5129     1.0  0.75744  0.80402  0.65344  1.0000
  C   C5130     1.0  0.76100  0.78769  0.65613  1.0000
  C   C5131     1.0  0.75055  0.77993  0.65437  1.0000
  C   C5132     1.0  0.73636  0.78858  0.65025  1.0000
  C   C5133     1.0  0.73282  0.80495  0.64747  1.0000
  H   H8775     1.0  0.76565  0.80998  0.65463  1.0000
  H   H8776     1.0  0.77189  0.78117  0.65931  1.0000
  H   H8777     1.0  0.72823  0.78264  0.64887  1.0000
  H   H8778     1.0  0.72198  0.81156  0.64405  1.0000
  C   C5134     1.0  0.64838  0.85892  0.67698  1.0000
  C   C5135     1.0  0.63222  0.85972  0.68256  1.0000
  C   C5136     1.0  0.62498  0.86151  0.69781  1.0000
  C   C5137     1.0  0.63390  0.86219  0.70772  1.0000
  C   C5138     1.0  0.65011  0.86122  0.70224  1.0000
  C   C5139     1.0  0.65733  0.85973  0.68683  1.0000
  H   H8779     1.0  0.62526  0.85895  0.67506  1.0000
  H   H8780     1.0  0.61250  0.86227  0.70189  1.0000
  H   H8781     1.0  0.65707  0.86174  0.70986  1.0000
  H   H8782     1.0  0.66980  0.85907  0.68262  1.0000
  C   C5140     1.0  0.68068  0.85940  0.58652  1.0000
  C   C5141     1.0  0.67561  0.84648  0.59695  1.0000
  C   C5142     1.0  0.66185  0.84272  0.59629  1.0000
  C   C5143     1.0  0.65293  0.85205  0.58543  1.0000
  C   C5144     1.0  0.65814  0.86479  0.57482  1.0000
  C   C5145     1.0  0.67202  0.86840  0.57533  1.0000
  H   H8783     1.0  0.68224  0.83942  0.60558  1.0000
  H   H8784     1.0  0.65791  0.83280  0.60448  1.0000
  H   H8785     1.0  0.65136  0.87196  0.56636  1.0000
  H   H8786     1.0  0.67572  0.87847  0.56739  1.0000
  C   C5146     1.0  0.84346  0.92300  0.60301  1.0000
  C   C5147     1.0  0.83702  0.92036  0.61899  1.0000
  C   C5148     1.0  0.84215  0.90609  0.62873  1.0000
  C   C5149     1.0  0.85344  0.89422  0.62249  1.0000
  C   C5150     1.0  0.86026  0.89698  0.60656  1.0000
  C   C5151     1.0  0.85542  0.91145  0.59686  1.0000
  H   H8787     1.0  0.82823  0.92939  0.62391  1.0000
  H   H8788     1.0  0.83701  0.90409  0.64108  1.0000
  H   H8789     1.0  0.86907  0.88795  0.60166  1.0000
  H   H8790     1.0  0.86055  0.91351  0.58452  1.0000
  C   C5152     1.0  0.76628  0.96526  0.55468  1.0000
  C   C5153     1.0  0.77553  0.95023  0.55461  1.0000
  C   C5154     1.0  0.77260  0.94075  0.54650  1.0000
  C   C5155     1.0  0.76033  0.94625  0.53856  1.0000
  C   C5156     1.0  0.75104  0.96125  0.53867  1.0000
  H   H8791     1.0  0.88065  0.92844  0.59861  1.0000
  H   H8792     1.0  0.78519  0.94604  0.56044  1.0000
  H   H8793     1.0  0.77983  0.92916  0.54638  1.0000
  C   C5157     1.0  0.83034  0.87613  0.58599  1.0000
  C   C5158     1.0  0.75475  0.91275  0.62570  1.0000
  C   C5159     1.0  0.75097  0.89808  0.63164  1.0000
  C   C5160     1.0  0.73587  0.89626  0.63255  1.0000
  C   C5161     1.0  0.72440  0.90920  0.62784  1.0000
  C   C5162     1.0  0.72813  0.92391  0.62205  1.0000
  C   C5163     1.0  0.74334  0.92566  0.62077  1.0000
  H   H8794     1.0  0.75974  0.88805  0.63547  1.0000
  H   H8795     1.0  0.73307  0.88487  0.63702  1.0000
  H   H8796     1.0  0.71930  0.93393  0.61832  1.0000
  H   H8797     1.0  0.90507  0.87973  0.58852  1.0000
  N   N367      1.0  0.70149  0.88270  0.52082  1.0000
  C   C5164     1.0  0.70261  0.89919  0.51247  1.0000
  C   C5165     1.0  0.91809  0.74035  0.56108  1.0000
  H   H8798     1.0  0.58432  0.88210  0.48204  1.0000
  C   C5166     1.0  0.76598  0.90919  0.66644  1.0000
  H   H8799     1.0  0.79892  0.78429  0.71473  1.0000
  H   H8800     1.0  0.80840  0.73374  0.60052  1.0000
  C   C5167     1.0  0.63218  0.84849  0.49292  1.0000
  H   H8801     1.0  0.51146  0.90730  0.69273  1.0000
  H   H8802     1.0  0.80009  0.74868  0.53510  1.0000
  H   H8803     1.0  0.73313  0.86646  0.50669  1.0000
  H   H8804     1.0  0.96517  0.78618  0.61045  1.0000
  C   C5168     1.0  0.58521  0.87103  0.49026  1.0000
  H   H8805     1.0  0.51455  0.95352  0.70095  1.0000
  C   C5169     1.0  0.49712  0.91819  0.67588  1.0000
  H   H8806     1.0  0.87637  0.76450  0.48393  1.0000
  H   H8807     1.0  0.97575  0.87916  0.57805  1.0000
  C   C5170     1.0  0.54361  0.92528  0.72133  1.0000
  Fe  Fe747     1.0  0.70511  0.97109  0.52310  1.0000
  H   H8808     1.0  0.72604  0.95251  0.64180  1.0000
  H   H8809     1.0  0.69548  0.89806  0.49136  1.0000
  H   H8810     1.0  0.84093  0.75585  0.70628  1.0000
  H   H8811     1.0  0.95203  0.80389  0.61357  1.0000
  C   C5171     1.0  0.97239  0.79248  0.63353  1.0000
  H   H8812     1.0  0.58459  0.92914  0.49248  1.0000
  C   C5172     1.0  0.97938  0.87480  0.56749  1.0000
  H   H8813     1.0  0.58374  0.95676  0.48316  1.0000
  H   H8814     1.0  0.70697  0.85936  0.51686  1.0000
  H   H8815     1.0  0.71157  0.86502  0.53884  1.0000
  H   H8816     1.0  0.66147  0.88168  0.52852  1.0000
  C   C5173     1.0  0.67334  0.88081  0.52075  1.0000
  C   C5174     1.0  0.81653  0.80186  0.66797  1.0000
  H   H8817     1.0  0.99131  0.77736  0.59958  1.0000
  H   H8818     1.0  0.53448  0.84512  0.70400  1.0000
  H   H8819     1.0  0.96448  0.74561  0.51389  1.0000
  H   H8820     1.0  0.69709  0.90723  0.52060  1.0000
  H   H8821     1.0  0.77819  0.74457  0.51847  1.0000
  H   H8822     1.0  0.89549  0.73945  0.48140  1.0000
  C   C5175     1.0  0.90454  0.88576  0.60988  1.0000
  H   H8823     1.0  0.94651  0.80038  0.63938  1.0000
  H   H8824     1.0  0.91728  0.88203  0.63524  1.0000
  C   C5176     1.0  0.92627  0.75609  0.50911  1.0000
  H   H8825     1.0  0.67636  0.86932  0.51755  1.0000
  H   H8826     1.0  0.76966  0.95197  0.67936  1.0000
  Fe  Fe748     1.0  0.97590  0.87796  0.61911  1.0000
  C   C5177     1.0  0.98217  0.80444  0.47893  1.0000
  H   H8827     1.0  0.95737  0.86866  0.57020  1.0000
  H   H8828     1.0  0.79505  0.79463  0.67448  1.0000
  H   H8829     1.0  0.86549  0.74583  0.57488  1.0000
  C   C5178     1.0  0.58034  0.85882  0.48769  1.0000
  C   C5179     1.0  0.82807  0.75999  0.70712  1.0000
  C   C5180     1.0  0.54687  0.86326  0.70055  1.0000
  C   C5181     1.0  0.73346  0.92877  0.68398  1.0000
  H   H8830     1.0  0.60023  0.95507  0.49952  1.0000
  H   H8831     1.0  0.57736  0.83523  0.49675  1.0000
  C   C5182     1.0  0.97191  0.81892  0.61637  1.0000
  C   C5183     1.0  0.54888  0.87815  0.69223  1.0000
  C   C5184     1.0  0.73334  0.95442  0.64876  1.0000
  H   H8832     1.0  0.82853  0.76285  0.68293  1.0000
  C   C5185     1.0  0.98163  0.82416  0.62461  1.0000
  N   N368      1.0  0.56274  0.86130  0.63196  1.0000
  C   C5186     1.0  0.57600  0.86626  0.61895  1.0000
  C   C5187     1.0  0.55215  0.87587  0.63680  1.0000
  C   C5188     1.0  0.55383  0.85391  0.62536  1.0000
  C   C5189     1.0  0.56965  0.84982  0.64502  1.0000
  C   C5190     1.0  0.58739  0.85337  0.61092  1.0000
  C   C5191     1.0  0.56010  0.88598  0.64180  1.0000
  C   C5192     1.0  0.53874  0.84924  0.63602  1.0000
  C   C5193     1.0  0.55887  0.84809  0.66148  1.0000
  H   H8833     1.0  0.57132  0.87574  0.60967  1.0000
  H   H8834     1.0  0.58347  0.87119  0.62324  1.0000
  H   H8835     1.0  0.54218  0.87332  0.64652  1.0000
  H   H8836     1.0  0.54655  0.88346  0.62712  1.0000
  H   H8837     1.0  0.55051  0.86188  0.61461  1.0000
  H   H8838     1.0  0.56131  0.84306  0.62178  1.0000
  H   H8839     1.0  0.57403  0.83801  0.64233  1.0000
  H   H8840     1.0  0.58007  0.85325  0.64613  1.0000
  H   H8841     1.0  0.77621  0.96670  0.66330  1.0000
  H   H8842     1.0  0.59765  0.85797  0.60316  1.0000
  H   H8843     1.0  0.55089  0.89505  0.64707  1.0000
  H   H8844     1.0  0.56708  0.87908  0.65060  1.0000
  H   H8845     1.0  0.56756  0.89231  0.63163  1.0000
  H   H8846     1.0  0.53287  0.84531  0.62909  1.0000
  H   H8847     1.0  0.53007  0.85905  0.64046  1.0000
  H   H8848     1.0  0.54136  0.83921  0.64568  1.0000
  H   H8849     1.0  0.56194  0.83588  0.66802  1.0000
  H   H8850     1.0  0.54620  0.85061  0.66185  1.0000
  H   H8851     1.0  0.56114  0.85532  0.66823  1.0000
  H   H8852     1.0  0.68258  0.91248  0.50180  1.0000
  H   H8853     1.0  0.80793  0.74792  0.58282  1.0000
  H   H8854     1.0  0.93028  0.80393  0.49735  1.0000
  H   H8855     1.0  0.87003  0.75057  0.59056  1.0000
  H   H8856     1.0  0.54285  0.95586  0.68926  1.0000
  H   H8857     1.0  0.72521  0.88309  0.49268  1.0000
  H   H8858     1.0  0.59202  0.84296  0.61932  1.0000
  N   N369      1.0  0.63136  0.88622  0.61485  1.0000
  C   C5194     1.0  0.64371  0.87186  0.61930  1.0000
  C   C5195     1.0  0.62496  0.89508  0.62773  1.0000
  C   C5196     1.0  0.63900  0.89677  0.60060  1.0000
  C   C5197     1.0  0.61855  0.88184  0.61050  1.0000
  C   C5198     1.0  0.63822  0.85653  0.62774  1.0000
  C   C5199     1.0  0.61622  0.88658  0.64326  1.0000
  C   C5200     1.0  0.65473  0.89983  0.60117  1.0000
  C   C5201     1.0  0.60512  0.89542  0.60564  1.0000
  H   H8859     1.0  0.65242  0.86899  0.60878  1.0000
  H   H8860     1.0  0.65055  0.87404  0.62656  1.0000
  H   H8861     1.0  0.61701  0.90639  0.62394  1.0000
  H   H8862     1.0  0.63455  0.89828  0.63068  1.0000
  H   H8863     1.0  0.64137  0.89193  0.59004  1.0000
  H   H8864     1.0  0.63108  0.90844  0.59817  1.0000
  H   H8865     1.0  0.62368  0.87559  0.60076  1.0000
  H   H8866     1.0  0.61283  0.87351  0.62018  1.0000
  H   H8867     1.0  0.62892  0.85757  0.63834  1.0000
  H   H8868     1.0  0.63420  0.85196  0.61983  1.0000
  H   H8869     1.0  0.64838  0.84755  0.63138  1.0000
  H   H8870     1.0  0.61053  0.89496  0.65099  1.0000
  H   H8871     1.0  0.60684  0.88180  0.64196  1.0000
  H   H8872     1.0  0.62461  0.87733  0.64942  1.0000
  H   H8873     1.0  0.65424  0.90342  0.61191  1.0000
  H   H8874     1.0  0.65789  0.90945  0.59127  1.0000
  H   H8875     1.0  0.66447  0.88950  0.59977  1.0000
  H   H8876     1.0  0.59820  0.90104  0.61544  1.0000
  H   H8877     1.0  0.59692  0.89077  0.60202  1.0000
  H   H8878     1.0  0.60932  0.90428  0.59547  1.0000
  N   N370      1.0  0.97531  0.80172  0.61697  1.0000
  C   C5202     1.0  0.84384  0.75102  0.48346  1.0000
  H   H8879     1.0  0.96864  0.75511  0.52588  1.0000
  S   S1494     1.0  0.96137  0.85394  0.54502  1.0000
  H   H8880     1.0  0.89544  0.93484  0.60277  1.0000
  C   C5203     1.0  0.89258  0.92441  0.60120  1.0000
  H   H8881     1.0  0.61262  0.93920  0.50973  1.0000
  C   C5204     1.0  0.98870  0.86353  0.54013  1.0000
  C   C5205     1.0  0.96712  0.80569  0.59096  1.0000
  C   C5206     1.0  0.53944  0.95026  0.70177  1.0000
  C   C5207     1.0  0.89253  0.88285  0.64364  1.0000
  H   H8882     1.0  0.81121  0.81192  0.67365  1.0000
  C   C5208     1.0  0.64198  0.84425  0.47738  1.0000
  H   H8883     1.0  0.75861  0.90795  0.65923  1.0000
  S   S1495     1.0  0.58540  0.89274  0.72125  1.0000
  C   C5209     1.0  0.92148  0.90270  0.60963  1.0000
  H   H8884     1.0  0.75985  0.90261  0.57925  1.0000
  H   H8885     1.0  0.80039  0.85090  0.61614  1.0000
  C   C5210     1.0  0.68196  0.94878  0.48412  1.0000
  H   H8886     1.0  0.95356  0.76525  0.51541  1.0000
  C   C5211     1.0  0.81023  0.85696  0.61286  1.0000
  Fe  Fe749     1.0  0.49862  0.87233  0.66572  1.0000
  H   H8887     1.0  0.81330  0.85678  0.62383  1.0000
  H   H8888     1.0  0.73966  0.95063  0.68029  1.0000
  H   H8889     1.0  0.73557  0.91946  0.67765  1.0000
  H   H8890     1.0  0.92243  0.90824  0.59714  1.0000
  H   H8891     1.0  0.77715  0.92486  0.67019  1.0000
  H   H8892     1.0  0.67937  0.89229  0.53494  1.0000
  C   C5212     1.0  0.53593  0.92589  0.69713  1.0000
  Fe  Fe750     1.0  0.49727  0.88142  0.63180  1.0000
  C   C5213     1.0  0.56196  0.92911  0.69617  1.0000
  H   H8893     1.0  0.74197  0.92966  0.65324  1.0000
  H   H8894     1.0  0.61851  0.92382  0.49059  1.0000
  H   H8895     1.0  0.93572  0.76258  0.50528  1.0000
  H   H8896     1.0  0.50456  0.91167  0.66735  1.0000
  C   C5214     1.0  0.53744  0.93130  0.67936  1.0000
  H   H8897     1.0  0.82026  0.85012  0.60571  1.0000
  H   H8898     1.0  0.71502  0.90049  0.50878  1.0000
  H   H8899     1.0  0.56614  0.91635  0.69668  1.0000
  H   H8900     1.0  0.56379  0.93481  0.68359  1.0000
  H   H8901     1.0  0.58559  0.92966  0.69668  1.0000
  H   H8902     1.0  0.89365  0.87169  0.64041  1.0000
  H   H8903     1.0  0.49670  0.88978  0.71387  1.0000
  H   H8904     1.0  0.77763  0.92664  0.65025  1.0000
  H   H8905     1.0  0.54538  0.95496  0.70799  1.0000
  H   H8906     1.0  0.95912  0.80187  0.58627  1.0000
  H   H8907     1.0  0.59993  0.91485  0.48475  1.0000
  H   H8908     1.0  0.69077  0.98273  0.48950  1.0000
  H   H8909     1.0  0.51940  0.96964  0.70436  1.0000
  C   C5215     1.0  0.95877  0.75365  0.52184  1.0000
  C   C5216     1.0  0.76260  0.95381  0.65749  1.0000
  H   H8910     1.0  0.54926  0.92637  0.67294  1.0000
  C   C5217     1.0  0.80304  0.79083  0.70270  1.0000
  H   H8911     1.0  0.93587  0.91829  0.60932  1.0000
  H   H8912     1.0  0.95242  0.80004  0.50998  1.0000
  H   H8913     1.0  0.89292  0.87987  0.65615  1.0000
  C   C5218     1.0  0.84182  0.88650  0.57582  1.0000
  H   H8914     1.0  0.49430  0.87578  0.70545  1.0000
  C   C5219     1.0  0.82428  0.88370  0.61092  1.0000
  C   C5220     1.0  0.81267  0.88944  0.62507  1.0000
  H   H8915     1.0  0.83143  0.87211  0.61531  1.0000
  H   H8916     1.0  0.83262  0.89154  0.60648  1.0000
  H   H8917     1.0  0.81912  0.88742  0.63437  1.0000
  H   H8918     1.0  0.80783  0.90217  0.62212  1.0000
  H   H8919     1.0  0.80302  0.88313  0.63013  1.0000
  H   H8920     1.0  0.84763  0.89021  0.58289  1.0000
  H   H8921     1.0  0.80334  0.91323  0.56921  1.0000
  C   C5221     1.0  0.90618  0.89082  0.63411  1.0000
  S   S1496     1.0  0.97809  0.89915  0.59976  1.0000
  H   H8922     1.0  0.82572  0.87219  0.57802  1.0000
  C   C5222     1.0  0.58120  0.84466  0.49857  1.0000
  C   C5223     1.0  0.50104  0.91580  0.69020  1.0000
  H   H8923     1.0  0.69948  0.87373  0.50189  1.0000
  N   N371      1.0  0.91604  0.83585  0.54978  1.0000
  C   C5224     1.0  0.91843  0.84789  0.53472  1.0000
  C   C5225     1.0  0.90896  0.84460  0.56272  1.0000
  C   C5226     1.0  0.90457  0.82713  0.54886  1.0000
  C   C5227     1.0  0.93171  0.82509  0.55142  1.0000
  C   C5228     1.0  0.92271  0.84185  0.51957  1.0000
  C   C5229     1.0  0.91918  0.85465  0.56454  1.0000
  C   C5230     1.0  0.89971  0.81464  0.56324  1.0000
  C   C5231     1.0  0.93351  0.81578  0.56798  1.0000
  H   H8924     1.0  0.90769  0.85739  0.53410  1.0000
  H   H8925     1.0  0.92797  0.85369  0.53405  1.0000
  H   H8926     1.0  0.90604  0.83678  0.57419  1.0000
  H   H8927     1.0  0.89745  0.85242  0.56101  1.0000
  H   H8928     1.0  0.89360  0.83549  0.54626  1.0000
  H   H8929     1.0  0.90940  0.82083  0.53919  1.0000
  H   H8930     1.0  0.93491  0.81663  0.54382  1.0000
  H   H8931     1.0  0.94114  0.83181  0.54716  1.0000
  H   H8932     1.0  0.93177  0.83087  0.51996  1.0000
  H   H8933     1.0  0.91218  0.84004  0.51699  1.0000
  H   H8934     1.0  0.92741  0.85069  0.50963  1.0000
  H   H8935     1.0  0.91382  0.85896  0.57542  1.0000
  H   H8936     1.0  0.93116  0.84794  0.56559  1.0000
  H   H8937     1.0  0.91992  0.86501  0.55483  1.0000
  H   H8938     1.0  0.89118  0.80941  0.56086  1.0000
  H   H8939     1.0  0.89364  0.81959  0.57359  1.0000
  H   H8940     1.0  0.90974  0.80493  0.56568  1.0000
  H   H8941     1.0  0.93992  0.80362  0.56743  1.0000
  H   H8942     1.0  0.92253  0.81503  0.57682  1.0000
  H   H8943     1.0  0.94094  0.82071  0.57229  1.0000
  H   H8944     1.0  0.92445  0.74777  0.56362  1.0000
  H   H8945     1.0  0.76061  0.90599  0.67899  1.0000
  H   H8946     1.0  0.80001  0.90468  0.60011  1.0000
  H   H8947     1.0  0.78962  0.90146  0.58135  1.0000
  H   H8948     1.0  0.91792  0.75983  0.53231  1.0000
  H   H8949     1.0  0.85002  0.73723  0.60980  1.0000
  C   C5232     1.0  0.97381  0.86282  0.54960  1.0000
  C   C5233     1.0  0.83061  0.74104  0.58917  1.0000
  C   C5234     1.0  0.68489  0.88195  0.52974  1.0000
  H   H8950     1.0  0.82516  0.80024  0.69387  1.0000
  C   C5235     1.0  0.66735  0.95082  0.48063  1.0000
  H   H8951     1.0  0.95697  0.80998  0.64675  1.0000
  N   N372      1.0  0.54486  0.93278  0.70419  1.0000
  C   C5236     1.0  0.70726  0.87148  0.51004  1.0000
  H   H8952     1.0  0.82915  0.79791  0.66813  1.0000
  H   H8953     1.0  0.72428  0.87739  0.52676  1.0000
  C   C5237     1.0  0.92274  0.74959  0.52683  1.0000
  H   H8954     1.0  0.82703  0.74912  0.59730  1.0000
  H   H8955     1.0  0.83487  0.74811  0.57753  1.0000
  H   H8956     1.0  0.85104  0.75867  0.58646  1.0000
  H   H8957     1.0  0.64865  0.83198  0.48025  1.0000
  H   H8958     1.0  0.96411  0.81862  0.58820  1.0000
  H   H8959     1.0  0.77715  0.90042  0.66428  1.0000
  H   H8960     1.0  0.71453  0.98086  0.54667  1.0000
  H   H8961     1.0  0.75302  0.96441  0.65834  1.0000
  H   H8962     1.0  0.71451  0.88068  0.55416  1.0000
  C   C5238     1.0  0.86033  0.73985  0.50223  1.0000
  H   H8963     1.0  0.99027  0.79780  0.48626  1.0000
  H   H8964     1.0  0.75494  0.94005  0.63914  1.0000
  S   S1497     1.0  0.96264  0.75080  0.48197  1.0000
  Fe  Fe751     1.0  0.97514  0.83425  0.53331  1.0000
  H   H8965     1.0  0.83537  0.76059  0.47839  1.0000
  C   C5239     1.0  0.74611  0.93864  0.67886  1.0000
  C   C5240     1.0  0.71181  0.87732  0.53255  1.0000
  C   C5241     1.0  0.69496  0.90640  0.49827  1.0000
  H   H8966     1.0  0.81817  0.75052  0.52169  1.0000
  C   C5242     1.0  0.74694  0.94005  0.65079  1.0000
  H   H8967     1.0  0.99226  0.85944  0.52945  1.0000
  C   C5243     1.0  0.81519  0.79919  0.70394  1.0000
  C   C5244     1.0  0.78719  0.75101  0.51081  1.0000
  H   H8968     1.0  0.50875  0.85523  0.72172  1.0000
  C   C5245     1.0  0.96901  0.86882  0.56308  1.0000
  H   H8969     1.0  0.55402  0.85665  0.70888  1.0000
  S   S1498     1.0  0.96508  0.82653  0.51774  1.0000
  H   H8970     1.0  0.86449  0.74071  0.51182  1.0000
  H   H8971     1.0  0.82326  0.74940  0.70986  1.0000
  C   C5246     1.0  0.76980  0.92544  0.66207  1.0000
  H   H8972     1.0  0.73781  0.96504  0.64214  1.0000
  H   H8973     1.0  0.89323  0.88201  0.61527  1.0000
  H   H8974     1.0  0.71128  0.89847  0.53997  1.0000
  C   C5247     1.0  0.61306  0.93637  0.48683  1.0000
  S   S1499     1.0  0.69018  0.95890  0.51712  1.0000
  C   C5248     1.0  0.72393  0.87136  0.49979  1.0000
  H   H8975     1.0  0.65705  0.94991  0.48991  1.0000
  H   H8976     1.0  0.81590  0.80622  0.65551  1.0000
  H   H8977     1.0  0.88101  0.90750  0.61879  1.0000
  H   H8978     1.0  0.97458  0.83475  0.62897  1.0000
  H   H8979     1.0  0.97231  0.78025  0.63381  1.0000
  S   S1500     1.0  0.76995  0.97749  0.56443  1.0000
  S   S1501     1.0  0.56303  0.88654  0.69464  1.0000
  H   H8980     1.0  0.53961  0.91296  0.69977  1.0000
  N   N373      1.0  0.78375  0.79791  0.60595  1.0000
  C   C5249     1.0  0.78753  0.80737  0.61508  1.0000
  C   C5250     1.0  0.77496  0.80928  0.59417  1.0000
  C   C5251     1.0  0.79903  0.78893  0.59788  1.0000
  C   C5252     1.0  0.77399  0.78701  0.61728  1.0000
  C   C5253     1.0  0.79924  0.79852  0.62567  1.0000
  C   C5254     1.0  0.75908  0.81930  0.60093  1.0000
  C   C5255     1.0  0.79892  0.78377  0.58324  1.0000
  C   C5256     1.0  0.76773  0.77681  0.61061  1.0000
  H   H8981     1.0  0.79253  0.81728  0.60706  1.0000
  H   H8982     1.0  0.77672  0.81270  0.62277  1.0000
  H   H8983     1.0  0.77241  0.80338  0.58639  1.0000
  H   H8984     1.0  0.78241  0.81738  0.58623  1.0000
  H   H8985     1.0  0.80819  0.79599  0.59394  1.0000
  H   H8986     1.0  0.80371  0.77829  0.60612  1.0000
  H   H8987     1.0  0.78073  0.77868  0.62576  1.0000
  H   H8988     1.0  0.76383  0.79340  0.62470  1.0000
  H   H8989     1.0  0.81125  0.79502  0.61876  1.0000
  H   H8990     1.0  0.79999  0.80640  0.63261  1.0000
  H   H8991     1.0  0.79563  0.78816  0.63404  1.0000
  H   H8992     1.0  0.76041  0.82714  0.60758  1.0000
  H   H8993     1.0  0.75365  0.82692  0.59119  1.0000
  H   H8994     1.0  0.75064  0.81207  0.60833  1.0000
  H   H8995     1.0  0.78966  0.77743  0.58499  1.0000
  H   H8996     1.0  0.77654  0.76588  0.60902  1.0000
  H   H8997     1.0  0.76382  0.78288  0.59967  1.0000
  H   H8998     1.0  0.75701  0.77367  0.61896  1.0000
  C   C5257     1.0  0.81165  0.74181  0.53005  1.0000
  H   H8999     1.0  0.72166  0.93639  0.68334  1.0000
  H   H9000     1.0  0.93992  0.75745  0.54119  1.0000
  H   H9001     1.0  0.75369  0.93433  0.68754  1.0000
  H   H9002     1.0  0.64007  0.84943  0.49981  1.0000
  H   H9003     1.0  0.92880  0.74691  0.50244  1.0000
  H   H9004     1.0  0.62698  0.82361  0.47750  1.0000
  H   H9005     1.0  0.73270  0.92293  0.69646  1.0000
  N   N374      1.0  0.72821  0.90949  0.57709  1.0000
  C   C5258     1.0  0.71436  0.90417  0.57585  1.0000
  C   C5259     1.0  0.73887  0.91146  0.56117  1.0000
  C   C5260     1.0  0.72212  0.92495  0.58200  1.0000
  C   C5261     1.0  0.73603  0.89729  0.58909  1.0000
  C   C5262     1.0  0.70026  0.90454  0.58985  1.0000
  C   C5263     1.0  0.74605  0.89651  0.55476  1.0000
  C   C5264     1.0  0.73385  0.93552  0.57839  1.0000
  C   C5265     1.0  0.75210  0.89866  0.59047  1.0000
  H   H9006     1.0  0.70976  0.91139  0.56545  1.0000
  H   H9007     1.0  0.71784  0.89198  0.57420  1.0000
  H   H9008     1.0  0.74883  0.91645  0.56067  1.0000
  H   H9009     1.0  0.73242  0.92010  0.55259  1.0000
  H   H9010     1.0  0.71239  0.93220  0.57620  1.0000
  H   H9011     1.0  0.71690  0.92318  0.59472  1.0000
  H   H9012     1.0  0.72835  0.89724  0.60087  1.0000
  H   H9013     1.0  0.73734  0.88530  0.58756  1.0000
  H   H9014     1.0  0.70369  0.89754  0.60080  1.0000
  H   H9015     1.0  0.69431  0.91658  0.59122  1.0000
  H   H9016     1.0  0.69142  0.89941  0.58788  1.0000
  H   H9017     1.0  0.73700  0.89193  0.55253  1.0000
  H   H9018     1.0  0.75424  0.89935  0.54338  1.0000
  H   H9019     1.0  0.75294  0.88733  0.56253  1.0000
  H   H9020     1.0  0.74495  0.92947  0.58213  1.0000
  H   H9021     1.0  0.72843  0.94525  0.58456  1.0000
  H   H9022     1.0  0.79797  0.79389  0.57324  1.0000
  H   H9023     1.0  0.81790  0.90778  0.58792  1.0000
  H   H9024     1.0  0.90059  0.92078  0.59072  1.0000
  H   H9025     1.0  0.63968  0.81370  0.71685  1.0000
  H   H9026     1.0  0.78586  0.94692  0.66343  1.0000
  H   H9027     1.0  0.83602  0.89685  0.56813  1.0000
  C   C5266     1.0  0.84927  0.75222  0.49584  1.0000
  S   S1502     1.0  0.79763  0.97441  0.59149  1.0000
  C   C5267     1.0  0.82509  0.77059  0.69141  1.0000
  H   H9028     1.0  0.80239  0.75960  0.68921  1.0000
  H   H9029     1.0  0.83382  0.77801  0.68722  1.0000
  C   C5268     1.0  0.80970  0.89975  0.59115  1.0000
  H   H9030     1.0  0.88091  0.89054  0.64249  1.0000
  C   C5269     1.0  0.80225  0.90180  0.57724  1.0000
  H   H9031     1.0  0.81131  0.78057  0.66715  1.0000
  N   N375      1.0  0.81729  0.88332  0.59794  1.0000
  H   H9032     1.0  0.85124  0.87970  0.56808  1.0000
  H   H9033     1.0  0.80809  0.89293  0.57016  1.0000
  H   H9034     1.0  0.72561  0.95650  0.66002  1.0000
  S   S1503     1.0  0.89972  0.79652  0.50942  1.0000
  H   H9035     1.0  0.91396  0.87515  0.61200  1.0000
  N   N376      1.0  0.80853  0.77997  0.69155  1.0000
  C   C5270     1.0  0.79804  0.76843  0.69654  1.0000
  C   C5271     1.0  0.80738  0.78878  0.67518  1.0000
  C   C5272     1.0  0.77420  0.95464  0.66660  1.0000
  H   H9036     1.0  0.91569  0.76459  0.50589  1.0000
  C   C5273     1.0  0.59290  0.92687  0.48148  1.0000
  H   H9037     1.0  0.53451  0.94415  0.67553  1.0000
  C   C5274     1.0  0.80495  0.87373  0.60378  1.0000
  H   H9038     1.0  0.79429  0.87961  0.61123  1.0000
  S   S1504     1.0  0.72644  0.96386  0.50525  1.0000
  C   C5275     1.0  0.92555  0.91383  0.61711  1.0000
  H   H9039     1.0  0.91576  0.92398  0.61894  1.0000
  C   C5276     1.0  0.86060  0.74800  0.58675  1.0000
  H   H9040     1.0  0.61237  0.83992  0.48252  1.0000
  H   H9041     1.0  0.92907  0.90758  0.62830  1.0000
  H   H9042     1.0  0.91620  0.89386  0.58531  1.0000
  C   C5277     1.0  0.89201  0.91170  0.61643  1.0000
  H   H9043     1.0  0.89031  0.91791  0.62586  1.0000
  S   S1505     1.0  0.95581  0.78589  0.54185  1.0000
  H   H9044     1.0  0.97915  0.80139  0.58460  1.0000
  H   H9045     1.0  0.67419  0.97658  0.56419  1.0000
  N   N377      1.0  0.90594  0.89808  0.61718  1.0000
  C   C5278     1.0  0.90524  0.89020  0.59227  1.0000
  H   H9046     1.0  0.90604  0.89968  0.64040  1.0000
  H   H9047     1.0  0.89472  0.89907  0.58944  1.0000
  C   C5279     1.0  0.80351  0.74013  0.50757  1.0000
  S   S1506     1.0  0.97991  0.81062  0.54879  1.0000
  Fe  Fe752     1.0  0.97193  0.80256  0.53190  1.0000
  C   C5280     1.0  0.94684  0.74726  0.53617  1.0000
  C   C5281     1.0  0.52173  0.95670  0.70712  1.0000
  Fe  Fe753     1.0  0.57041  0.87882  0.71762  1.0000
  H   H9048     1.0  0.51767  0.95308  0.71983  1.0000
  H   H9049     1.0  0.59439  0.93657  0.50830  1.0000
  H   H9050     1.0  0.95536  0.79035  0.65561  1.0000
  H   H9051     1.0  0.90261  0.75244  0.48773  1.0000
  H   H9052     1.0  0.74679  0.98227  0.54684  1.0000
  H   H9053     1.0  0.55305  0.91457  0.72302  1.0000
  N   N378      1.0  0.93602  0.73856  0.53389  1.0000
  S   S1507     1.0  0.99006  0.88359  0.63275  1.0000
  H   H9054     1.0  0.62324  0.94202  0.48160  1.0000
  H   H9055     1.0  0.79829  0.76167  0.70864  1.0000
  H   H9056     1.0  0.79265  0.79997  0.69974  1.0000
  H   H9057     1.0  0.72623  0.86369  0.49151  1.0000
  C   C5282     1.0  0.78050  0.77520  0.69631  1.0000
  H   H9058     1.0  0.78745  0.76064  0.51582  1.0000
  H   H9059     1.0  0.77528  0.78478  0.70265  1.0000
  H   H9060     1.0  0.82322  0.76608  0.71688  1.0000
  H   H9061     1.0  0.77391  0.76582  0.70216  1.0000
  C   C5283     1.0  0.82038  0.73459  0.54352  1.0000
  H   H9062     1.0  0.95358  0.74020  0.54520  1.0000
  C   C5284     1.0  0.99228  0.79663  0.60935  1.0000
  H   H9063     1.0  0.98476  0.81547  0.63498  1.0000
  H   H9064     1.0  0.51879  0.87810  0.72122  1.0000
  H   H9065     1.0  0.70146  0.91512  0.49004  1.0000
  H   H9066     1.0  0.77852  0.77913  0.68429  1.0000
  H   H9067     1.0  0.99254  0.82693  0.61644  1.0000
  H   H9068     1.0  0.98211  0.79131  0.63926  1.0000
  C   C5285     1.0  0.84967  0.73765  0.47727  1.0000
  C   C5286     1.0  0.49992  0.95419  0.81659  1.0000
  S   S1508     1.0  0.53000  0.97217  0.84875  1.0000
  Fe  Fe754     1.0  0.55763  0.94113  0.82604  1.0000
  S   S1509     1.0  0.53669  0.93599  0.84477  1.0000
  S   S1510     1.0  0.57385  0.92135  0.81534  1.0000
  Fe  Fe755     1.0  0.52447  0.95972  0.83371  1.0000
  H   H9069     1.0  0.53624  0.94504  0.75194  1.0000
  Fe  Fe756     1.0  0.54438  0.94887  0.85784  1.0000
  S   S1511     1.0  0.54712  0.94086  0.88262  1.0000
  N   N379      1.0  0.51956  0.75306  0.90703  1.0000
  S   S1512     1.0  0.56627  0.95246  0.83992  1.0000
  Fe  Fe757     1.0  0.56963  0.89239  0.74495  1.0000
  S   S1513     1.0  0.58413  0.87041  0.75637  1.0000
  S   S1514     1.0  0.55802  0.91384  0.75492  1.0000
  H   H9070     1.0  0.52853  0.91623  0.74300  1.0000
  H   H9071     1.0  0.62861  0.79070  0.78450  1.0000
  H   H9072     1.0  0.63050  0.77581  0.89730  1.0000
  Fe  Fe758     1.0  0.56898  0.85834  0.75027  1.0000
  S   S1515     1.0  0.55713  0.83969  0.76725  1.0000
  H   H9073     1.0  0.58676  0.95707  0.85756  1.0000
  S   S1516     1.0  0.55343  0.88046  0.74031  1.0000
  C   C5287     1.0  0.53929  0.88823  0.79553  1.0000
  Fe  Fe759     1.0  0.55395  0.85961  0.95828  1.0000
  C   C5288     1.0  0.61490  0.79158  0.88303  1.0000
  Fe  Fe760     1.0  0.56234  0.84613  0.92929  1.0000
  S   S1517     1.0  0.53740  0.84567  0.93138  1.0000
  S   S1518     1.0  0.57908  0.83830  0.90816  1.0000
  Fe  Fe761     1.0  0.53129  0.86913  0.93688  1.0000
  S   S1519     1.0  0.51343  0.88696  0.92473  1.0000
  Fe  Fe762     1.0  0.53720  0.83606  0.95668  1.0000
  H   H9074     1.0  0.53381  0.75667  0.85581  1.0000
  S   S1520     1.0  0.55634  0.87063  0.93273  1.0000
  S   S1521     1.0  0.56265  0.83508  0.95446  1.0000
  Fe  Fe763     1.0  0.58554  0.77884  0.83873  1.0000
  S   S1522     1.0  0.56067  0.77725  0.85121  1.0000
  S   S1523     1.0  0.59456  0.79669  0.81810  1.0000
  Fe  Fe764     1.0  0.60010  0.75309  0.86319  1.0000
  S   S1524     1.0  0.57661  0.74963  0.87764  1.0000
  H   H9075     1.0  0.52120  0.88650  0.76068  1.0000
  H   H9076     1.0  0.62455  0.79321  0.87260  1.0000
  Fe  Fe765     1.0  0.56920  0.77565  0.87256  1.0000
  S   S1525     1.0  0.55545  0.78629  0.89302  1.0000
  H   H9077     1.0  0.50304  0.85117  0.74220  1.0000
  S   S1526     1.0  0.59321  0.77899  0.85998  1.0000
  H   H9078     1.0  0.51515  0.87656  0.81969  1.0000
  H   H9079     1.0  0.55162  0.88103  0.81491  1.0000
  H   H9080     1.0  0.59245  0.83039  0.75363  1.0000
  C   C5289     1.0  0.58216  0.75995  0.91505  1.0000
  H   H9081     1.0  0.57458  0.75658  0.90946  1.0000
  C   C5290     1.0  0.51793  0.80826  0.96030  1.0000
  H   H9082     1.0  0.54331  0.87221  0.77422  1.0000
  C   C5291     1.0  0.53102  0.87449  0.78110  1.0000
  H   H9083     1.0  0.61503  0.78154  0.93175  1.0000
  H   H9084     1.0  0.52706  0.86085  0.73362  1.0000
  H   H9085     1.0  0.54701  0.96015  0.76309  1.0000
  C   C5292     1.0  0.51909  0.97255  0.77464  1.0000
  C   C5293     1.0  0.57222  0.86659  0.86804  1.0000
  H   H9086     1.0  0.62383  0.81041  0.78677  1.0000
  C   C5294     1.0  0.51358  0.80721  0.93563  1.0000
  C   C5295     1.0  0.52198  0.81134  0.94404  1.0000
  C   C5296     1.0  0.54397  0.98279  0.88002  1.0000
  H   H9087     1.0  0.59261  0.79364  0.90900  1.0000
  H   H9088     1.0  0.51653  0.80997  0.92303  1.0000
  H   H9089     1.0  0.53156  0.81692  0.93791  1.0000
  C   C5297     1.0  0.57273  0.82382  0.90375  1.0000
  C   C5298     1.0  0.56282  0.81519  0.91525  1.0000
  C   C5299     1.0  0.55742  0.80390  0.91172  1.0000
  C   C5300     1.0  0.56210  0.80095  0.89673  1.0000
  C   C5301     1.0  0.57225  0.80936  0.88523  1.0000
  C   C5302     1.0  0.57760  0.82076  0.88875  1.0000
  H   H9090     1.0  0.55952  0.81702  0.92699  1.0000
  H   H9091     1.0  0.54974  0.79730  0.92071  1.0000
  H   H9092     1.0  0.57585  0.80720  0.87360  1.0000
  H   H9093     1.0  0.58542  0.82724  0.87983  1.0000
  C   C5303     1.0  0.56649  0.82825  0.78243  1.0000
  C   C5304     1.0  0.57821  0.83300  0.78592  1.0000
  C   C5305     1.0  0.58621  0.82345  0.79741  1.0000
  C   C5306     1.0  0.58253  0.80910  0.80557  1.0000
  C   C5307     1.0  0.57033  0.80457  0.80262  1.0000
  C   C5308     1.0  0.56232  0.81416  0.79103  1.0000
  H   H9094     1.0  0.58126  0.84395  0.77970  1.0000
  H   H9095     1.0  0.59546  0.82708  0.79988  1.0000
  H   H9096     1.0  0.56745  0.79347  0.80887  1.0000
  H   H9097     1.0  0.55317  0.81046  0.78846  1.0000
  H   H9098     1.0  0.53976  0.76217  0.89256  1.0000
  C   C5309     1.0  0.53670  0.92674  0.89455  1.0000
  C   C5310     1.0  0.54014  0.91915  0.90912  1.0000
  C   C5311     1.0  0.53268  0.90722  0.91856  1.0000
  C   C5312     1.0  0.52156  0.90296  0.91360  1.0000
  C   C5313     1.0  0.51770  0.91088  0.89923  1.0000
  C   C5314     1.0  0.52536  0.92268  0.88965  1.0000
  H   H9099     1.0  0.54880  0.92232  0.91302  1.0000
  H   H9100     1.0  0.53547  0.90140  0.92978  1.0000
  H   H9101     1.0  0.50907  0.90763  0.89536  1.0000
  H   H9102     1.0  0.52246  0.92866  0.87853  1.0000
  C   C5315     1.0  0.62198  0.74184  0.91248  1.0000
  H   H9103     1.0  0.49582  0.86666  0.81780  1.0000
  H   H9104     1.0  0.50608  0.97480  0.77715  1.0000
  H   H9105     1.0  0.51357  0.76893  0.93211  1.0000
  C   C5316     1.0  0.51220  0.93241  0.80400  1.0000
  C   C5317     1.0  0.51259  0.94188  0.81347  1.0000
  C   C5318     1.0  0.55946  0.89514  0.86427  1.0000
  H   H9106     1.0  0.53167  0.86833  0.89962  1.0000
  H   H9107     1.0  0.52197  0.92282  0.80179  1.0000
  H   H9108     1.0  0.52266  0.93952  0.81851  1.0000
  C   C5319     1.0  0.56962  0.91927  0.79849  1.0000
  C   C5320     1.0  0.55651  0.92888  0.79303  1.0000
  C   C5321     1.0  0.55301  0.92689  0.77982  1.0000
  C   C5322     1.0  0.56269  0.91547  0.77178  1.0000
  C   C5323     1.0  0.57578  0.90573  0.77729  1.0000
  C   C5324     1.0  0.57921  0.90761  0.79065  1.0000
  H   H9109     1.0  0.54888  0.93768  0.79914  1.0000
  H   H9110     1.0  0.54258  0.93404  0.77609  1.0000
  H   H9111     1.0  0.58337  0.89691  0.77117  1.0000
  H   H9112     1.0  0.58938  0.90012  0.79486  1.0000
  C   C5325     1.0  0.50621  0.79995  0.96816  1.0000
  C   C5326     1.0  0.61024  0.79015  0.92209  1.0000
  H   H9113     1.0  0.58792  0.81215  0.75546  1.0000
  C   C5327     1.0  0.63295  0.80167  0.78104  1.0000
  H   H9114     1.0  0.50975  0.89210  0.80434  1.0000
  C   C5328     1.0  0.52174  0.88907  0.77165  1.0000
  H   H9115     1.0  0.58682  0.74934  0.92321  1.0000
  H   H9116     1.0  0.50237  0.83939  0.95342  1.0000
  H   H9117     1.0  0.55345  0.90479  0.87049  1.0000
  H   H9118     1.0  0.54035  0.74523  0.91679  1.0000
  C   C5329     1.0  0.51863  0.96731  0.75025  1.0000
  C   C5330     1.0  0.51468  0.87930  0.80719  1.0000
  H   H9119     1.0  0.49759  0.75178  0.92361  1.0000
  H   H9120     1.0  0.54613  0.88794  0.89362  1.0000
  H   H9121     1.0  0.51916  0.78589  0.90185  1.0000
  H   H9122     1.0  0.53124  0.89127  0.81994  1.0000
  C   C5331     1.0  0.54346  0.97114  0.75463  1.0000
  H   H9123     1.0  0.56957  0.90783  0.88325  1.0000
  H   H9124     1.0  0.53261  0.89975  0.79023  1.0000
  H   H9125     1.0  0.50806  0.78489  0.88879  1.0000
  H   H9126     1.0  0.53541  0.89817  0.86168  1.0000
  S   S1527     1.0  0.50042  0.96583  0.82868  1.0000
  S   S1528     1.0  0.62500  0.86391  0.72706  1.0000
  H   H9127     1.0  0.58799  0.85811  0.84806  1.0000
  N   N380      1.0  0.62451  0.81791  0.75554  1.0000
  S   S1529     1.0  0.54484  0.96399  0.81390  1.0000
  H   H9128     1.0  0.54277  0.83540  0.81308  1.0000
  H   H9129     1.0  0.52298  0.74043  0.93002  1.0000
  S   S1530     1.0  0.56026  0.87124  0.97371  1.0000
  H   H9130     1.0  0.51865  0.94494  0.76724  1.0000
  H   H9131     1.0  0.52757  0.89903  0.76830  1.0000
  H   H9132     1.0  0.54472  0.97893  0.89242  1.0000
  C   C5332     1.0  0.54204  0.89037  0.81065  1.0000
  H   H9133     1.0  0.61999  0.79392  0.91272  1.0000
  N   N381      1.0  0.60736  0.77073  0.90777  1.0000
  C   C5333     1.0  0.52593  0.76351  0.92769  1.0000
  H   H9134     1.0  0.53144  0.75914  0.93794  1.0000
  C   C5334     1.0  0.63611  0.80876  0.72951  1.0000
  H   H9135     1.0  0.51838  0.94428  0.74821  1.0000
  C   C5335     1.0  0.61979  0.77561  0.89377  1.0000
  S   S1531     1.0  0.52625  0.81590  0.97094  1.0000
  C   C5336     1.0  0.52751  0.74973  0.92041  1.0000
  H   H9136     1.0  0.53543  0.87384  0.87898  1.0000
  C   C5337     1.0  0.50225  0.75926  0.91239  1.0000
  H   H9137     1.0  0.55270  0.85811  0.79780  1.0000
  H   H9138     1.0  0.52655  0.86447  0.78099  1.0000
  C   C5338     1.0  0.57559  0.97902  0.88700  1.0000
  H   H9139     1.0  0.51902  0.97671  0.79683  1.0000
  H   H9140     1.0  0.52740  0.78815  0.88151  1.0000
  H   H9141     1.0  0.50221  0.85317  0.90959  1.0000
  H   H9142     1.0  0.63089  0.74351  0.90145  1.0000
  C   C5339     1.0  0.55303  0.87703  0.88982  1.0000
  C   C5340     1.0  0.57433  0.89619  0.88997  1.0000
  H   H9143     1.0  0.62500  0.73521  0.84204  1.0000
  Fe  Fe766     1.0  0.57033  0.75125  0.85520  1.0000
  C   C5341     1.0  0.51385  0.74625  0.86053  1.0000
  C   C5342     1.0  0.54766  0.89416  0.85545  1.0000
  H   H9144     1.0  0.60673  0.75424  0.93000  1.0000
  H   H9145     1.0  0.59054  0.77993  0.92681  1.0000
  H   H9146     1.0  0.64818  0.81165  0.75974  1.0000
  C   C5343     1.0  0.56010  0.97913  0.86887  1.0000
  C   C5344     1.0  0.51988  0.78163  0.89144  1.0000
  C   C5345     1.0  0.59437  0.96320  0.86013  1.0000
  H   H9147     1.0  0.51237  0.87539  0.74212  1.0000
  H   H9148     1.0  0.53612  0.97623  0.87844  1.0000
  S   S1532     1.0  0.59452  0.75298  0.84089  1.0000
  C   C5346     1.0  0.59940  0.78373  0.91630  1.0000
  C   C5347     1.0  0.61109  0.80987  0.75930  1.0000
  C   C5348     1.0  0.54050  0.86036  0.80494  1.0000
  C   C5349     1.0  0.51594  0.86952  0.73222  1.0000
  H   H9149     1.0  0.51772  0.92883  0.72915  1.0000
  H   H9150     1.0  0.57437  0.76883  0.92156  1.0000
  H   H9151     1.0  0.50949  0.89261  0.77791  1.0000
  H   H9152     1.0  0.59576  0.87022  0.85480  1.0000
  H   H9153     1.0  0.61281  0.80143  0.88872  1.0000
  N   N382      1.0  0.56559  0.88056  0.87541  1.0000
  H   H9154     1.0  0.53232  0.77229  0.91959  1.0000
  H   H9155     1.0  0.58503  0.89711  0.89297  1.0000
  C   C5350     1.0  0.61505  0.75697  0.91866  1.0000
  Fe  Fe767     1.0  0.55126  0.97493  0.82973  1.0000
  C   C5351     1.0  0.59145  0.97941  0.88998  1.0000
  C   C5352     1.0  0.49421  0.85068  0.95495  1.0000
  H   H9156     1.0  0.64339  0.79970  0.78597  1.0000
  H   H9157     1.0  0.52302  0.84600  0.81701  1.0000
  H   H9158     1.0  0.50801  0.84186  0.92713  1.0000
  C   C5353     1.0  0.52340  0.94943  0.75479  1.0000
  H   H9159     1.0  0.60437  0.79240  0.87883  1.0000
  H   H9160     1.0  0.54159  0.86102  0.81651  1.0000
  H   H9161     1.0  0.60074  0.75813  0.89455  1.0000
  H   H9162     1.0  0.53616  0.98032  0.78238  1.0000
  C   C5354     1.0  0.57883  0.88341  0.88049  1.0000
  H   H9163     1.0  0.55097  0.88639  0.78736  1.0000
  H   H9164     1.0  0.64108  0.82758  0.73560  1.0000
  H   H9165     1.0  0.56923  0.89982  0.85547  1.0000
  H   H9166     1.0  0.55844  0.86970  0.89973  1.0000
  C   C5355     1.0  0.53418  0.84555  0.80815  1.0000
  C   C5356     1.0  0.54114  0.86831  0.88892  1.0000
  H   H9167     1.0  0.62382  0.76693  0.88623  1.0000
  H   H9168     1.0  0.52299  0.96000  0.77989  1.0000
  H   H9169     1.0  0.58912  0.77695  0.89480  1.0000
  H   H9170     1.0  0.51616  0.73929  0.89278  1.0000
  H   H9171     1.0  0.55869  0.95585  0.73910  1.0000
  H   H9172     1.0  0.54669  0.85588  0.88874  1.0000
  N   N383      1.0  0.53097  0.87543  0.79731  1.0000
  H   H9173     1.0  0.64052  0.84178  0.75189  1.0000
  H   H9174     1.0  0.50555  0.97060  0.75354  1.0000
  C   C5357     1.0  0.61874  0.83277  0.76151  1.0000
  H   H9175     1.0  0.58461  0.87249  0.88773  1.0000
  H   H9176     1.0  0.61148  0.84186  0.75393  1.0000
  H   H9177     1.0  0.57745  0.85641  0.87642  1.0000
  H   H9178     1.0  0.62492  0.75974  0.92160  1.0000
  H   H9179     1.0  0.53289  0.84300  0.79749  1.0000
  C   C5358     1.0  0.58481  0.86877  0.85282  1.0000
  H   H9180     1.0  0.60322  0.80059  0.92675  1.0000
  H   H9181     1.0  0.56304  0.86258  0.86536  1.0000
  H   H9182     1.0  0.50675  0.86159  0.79989  1.0000
  H   H9183     1.0  0.58047  0.87868  0.84377  1.0000
  H   H9184     1.0  0.58814  0.88688  0.87029  1.0000
  C   C5359     1.0  0.52149  0.73766  0.90285  1.0000
  H   H9185     1.0  0.49979  0.77094  0.91505  1.0000
  C   C5360     1.0  0.63154  0.84013  0.76285  1.0000
  H   H9186     1.0  0.54955  0.90188  0.84366  1.0000
  H   H9187     1.0  0.59837  0.96737  0.89319  1.0000
  Fe  Fe768     1.0  0.59857  0.86955  0.73214  1.0000
  C   C5361     1.0  0.59520  0.76658  0.90223  1.0000
  C   C5362     1.0  0.52702  0.76396  0.89302  1.0000
  H   H9188     1.0  0.56594  0.89334  0.90115  1.0000
  H   H9189     1.0  0.54901  0.88254  0.85329  1.0000
  C   C5363     1.0  0.49779  0.84699  0.92164  1.0000
  C   C5364     1.0  0.50220  0.87137  0.80592  1.0000
  S   S1533     1.0  0.52843  0.85966  0.96258  1.0000
  H   H9190     1.0  0.63731  0.83316  0.77255  1.0000
  C   C5365     1.0  0.49779  0.79581  0.95977  1.0000
  H   H9191     1.0  0.50116  0.85972  0.94861  1.0000
  C   C5366     1.0  0.52992  0.74597  0.85794  1.0000
  H   H9192     1.0  0.50535  0.75720  0.86051  1.0000
  H   H9193     1.0  0.56341  0.96621  0.87087  1.0000
  H   H9194     1.0  0.49779  0.76446  0.88864  1.0000
  H   H9195     1.0  0.52658  0.76134  0.88202  1.0000
  C   C5367     1.0  0.63738  0.80692  0.76310  1.0000
  H   H9196     1.0  0.61524  0.79803  0.75671  1.0000
  H   H9197     1.0  0.60582  0.80781  0.77202  1.0000
  H   H9198     1.0  0.61070  0.83112  0.77309  1.0000
  H   H9199     1.0  0.62597  0.85187  0.76541  1.0000
  S   S1534     1.0  0.62113  0.73909  0.87322  1.0000
  H   H9200     1.0  0.61279  0.73706  0.91073  1.0000
  H   H9201     1.0  0.54554  0.97167  0.72937  1.0000
  H   H9202     1.0  0.64135  0.79596  0.75872  1.0000
  C   C5368     1.0  0.50120  0.79979  0.94354  1.0000
  H   H9203     1.0  0.54592  0.90143  0.80817  1.0000
  C   C5369     1.0  0.50365  0.86095  0.73179  1.0000
  C   C5370     1.0  0.58729  0.98086  0.85829  1.0000
  H   H9204     1.0  0.57450  0.96661  0.89087  1.0000
  S   S1535     1.0  0.49924  0.92310  0.78568  1.0000
  C   C5371     1.0  0.59750  0.81866  0.75106  1.0000
  H   H9205     1.0  0.59682  0.95757  0.87182  1.0000
  C   C5372     1.0  0.63081  0.82220  0.73821  1.0000
  H   H9206     1.0  0.54595  0.73598  0.88926  1.0000
  C   C5373     1.0  0.49927  0.93537  0.79734  1.0000
  H   H9207     1.0  0.60109  0.81963  0.73830  1.0000
  C   C5374     1.0  0.55261  0.96832  0.73828  1.0000
  H   H9208     1.0  0.52127  0.97048  0.73741  1.0000
  H   H9209     1.0  0.60569  0.96139  0.85153  1.0000
  H   H9210     1.0  0.52770  0.90930  0.72694  1.0000
  C   C5375     1.0  0.52843  0.91974  0.73042  1.0000
  H   H9211     1.0  0.56201  0.97504  0.73381  1.0000
  H   H9212     1.0  0.62201  0.83137  0.73241  1.0000
  N   N384      1.0  0.52580  0.97601  0.75729  1.0000
  C   C5376     1.0  0.52334  0.98154  0.78432  1.0000
  H   H9213     1.0  0.54824  0.97992  0.75717  1.0000
  H   H9214     1.0  0.54547  0.93314  0.72768  1.0000
  H   H9215     1.0  0.64652  0.80017  0.73297  1.0000
  H   H9216     1.0  0.62656  0.80281  0.73092  1.0000
  S   S1536     1.0  0.58466  0.85552  0.72694  1.0000
