data_image0
_chemical_formula_structural       CH2FeSHC2SHC2FeHSFeCHCS3FeS5HCFeS2FeS2FeSFeHS2C2HC6H4C5H4C2H4FeC2HFeH2C6H7NHCH3SFeCHCHSH5CSHSHS2HCS2CH2CHCHFeHC2H2CH2CHSHSC5H4SHCH4CFeH5CH5CH2FeNC8H13CH6CH2FeCFeH2CHSHCFeH3CNH10SH3C2FeH2CHCSHFeH3CHFeCNSHSFeC2HC2H2CHCHCSCH4CHSCH2CHCHCFeSC3HSH2C2SH4CHC2HCHCFeHCH4SCSCSCH2FeCSHCH2SCSH2CHCNH4SCH2SC6SH5CSCHSNH2CH7Fe2H2C2H5SFeH2CHCHFeHCH2CNCHCHC2H3C2H2CHCS3HNCNCH3CH2Fe2C2FeCH3CHC3HCHC2NSH3CFeCHCHCH2CHSHCH2CHCHC2FeHSHCH2CHCH8CH2SC2H2FeHCH3CH3FeCHCH3CH3C2H2S2HCH7CH4CH2CH3CSCNH2C2HCHCFeH2CHCH4C2HSC2FeSFe2SFeS3H3CFeS2FeS2FeHFeS3C2HSH4CH3FeS2FeS2FeSFeS3C6H4SC3HC3H2SH3C6H4C6H6C2H4C2H3CHSH4C6H4C6H4CH2S2H5C2HNHC3SH5C4HNCH6CH6CFeH4C5HCH2NC8H20CH2CH6CHCH3CHCSCHCHSH4C2SH3SH2C3HCSH2NCH2FeH3SH3CHSH4SH2CNC4HCHC2H2CH7CH3SH2CHCHCFeC3H3FeH2NH2NC2HC2HCH2NCH3CH2C5HSHNH2SHC2H3SHCH3NH4CH4CH3SH6CH2NC5H2CH3C3HCH5CHCHCH2CH3CH2CH4CH5CH3C3SFeHSCHFeCS2H4C2HNC2H2CHNC2HCFeS2HSH5CHCHSFeSCSFeS2H6FeCH2CH2CFeHC6H4CHC2HCH4CHSH3FeHSHSH2C2H5C2HCHFeH3C2HCH2C2HCH3SHCHCH5CHCH2CH2S2H3CFeNC2H2NCFeHC4HCH6C2SNHFeHCS2H2CH4C2H3C2H2CH3C2HCH6CH9C2HC2H5CNCH2CHCHC2H5CH2C2H6C4HSHCNH2CH2SH3FeCSFeCSFeS2HSH2SH5SC2HCFeSH2SFeS2H4CHCH2SC2SH3CFeCFeHSHC2H3SHCFeCS2CH3CHNHC2SH2FeHSC2H5C6H8FeHFeSH3C2H4NH2C2H3SHN2C5H4NCHCH2SC2SCH2CHCNC5H2CH2CH16C2SCHC2HCHNC8H16CH2C2H4CHSHC2HFeH2SH2CFeH2CSHFeHC2HCHCHSH2CH2CH4SH2C2HCHC3H4CSH3SC2HSH5SH3C2H2SH2C3HC2H3C5HCH3FeH3CHSHCSNCHCHSC3H2CHCH2FeCHSCHCH7CHCHCH2S3CH6C2HSH2SC2HCFeCH3C5SH2CH4CH4FeH4CFeSH2CH3CH5CNH3FeH4S2H5CH3CHCH2C3NS2H2C2HC2HC2HCH2CH3SCFeH2CHC2SHC2HCFeCFeHSH4NSHSH2C2HCHC3HCH2SC4HSNCH5CHCSH2SCH3CFeCFeHC2FeHC2HSHC6H3CH2CNHCH2C3H3SHCH4CHCHC3SHS2H2CFe2S2FeS2FeSFeS3FeS2FeS2FeSFeS3CH2C6H4CSC2H3C6H2NC6H5C7H4C6H4C4H2CSHFeHFeCHSH2NC8H20NCHC3HCH3SCH2CFeH3SH4CH4CH4CSCHSH4CNHCNC3HC2H4CHCHCH5CHCHCH2CH5CFeCNH2CHC2H4CHCHFeH3SH9CHCHFeNC8H20S2C3SCHNSHSHCHFeH4CHNH3CH2C2H2C2HC2HCSH5C2HC4H10CFeH3CH5C2SC2H2C5H8CH2CHCHSH2C2HCHCH6FeHSCNHCFeHCHCHCH3CH7CH7FeH4CSHNH5SCFeCH2CH3CH2CS3FeHFeSFeSCSFeCSNH2SFeC2HC3H2SH2CH2CHC2H2CSCH3CFeHS2H2CH3SHCHCHCFeHCFeCHS2HCFeHCHC2SHCH3FeHFeHSHCFeSFe2S2FeSFeS3FeS2FeS2FeSFeS2CSC2SHFeSFeHCH3SHFeS2FeSFeSHSFeSFeCSFeS2HC6H4C6H7C2HC7H4C2SHC7H4C6H4C6H2CHC2HC2HC2H2C8H6C3H5CFeH2CH4CHCNC2SH2CH3SH2C2H3C2SHCH2CH3NH5FeH8CNC8H19CH2CNC8H22CH5SH2C2SCH4NSH2C2H4NHCNH3SH2CHSCH5SCH5CH4CH2SH2CHC2SH3CH3CH2CH3C2HNHC2HC2HNH6CHCH2FeCH5CHCH5CH2CHCH4CFeH5CH2C2HCH4CH2C2H2SHSFeSFeS2FeSH2SHFeSFeS3H3CH3CHCH2CSH2CHC3HC7H2NHC3H2CH5CHCH3CHSH2CH2CH3CHNC2H4CH4C2FeH3CHFeHCH5FeH2C2H3C3H3C2H2C2H5CH4NH6CHCHC2H4C2H2SC3NH2CH3CHSHCHSH4CFeHSCSH3FeCH5SHFeCH2FeC3H4C3H2CHSCHFeS2HSFeSCFeS2FeHCH7SCH3SCFeSFeH3FeS2FeS2FeSFeS2H2CH3FeH2C4H3C6H5NH2C2H3SC2H3CSH6CSHC6H4C6H3CH4C3HSHCNC8H23CHC2HCHCSHFe2HCHCH2C2HNCHSHCH5CSHCHCHSH2CH6SHC3SH2CH2C2H2CH5C3H4CHC2SHNHC3H2C3NHCH2C2H5C2NC2H4C4H3SH4CH2SHC2HCH3CH3FeCH2NH2CH2S2H2CSNH2CHFeC2H2CH5CH3NC2HCH2NC2H3C2HCH2CH3C2H2C2H2CH2CH3C2H2CH8CH4CH3CHNH3CSCHSCH3C2HC2SH3CH2S3H3CSFeH6C2H3C2H2CHC2H2CHFeCH4FeHCH4CHCFeC5HC7H6CSCSHCH2SH8SCFeH5C2H2C2NHC2HNCHC2SHCH2CHCHC2H6NH2CHCHFeHCSCSH5CH2CHCHCH3CH9CFeHFeS2HCH2S2C2HS3FeS2FeS2FeSFeS3FeHFeSH3CSNHSH2CHC3H2SCH2FeHSHCNSH2CSCFeSH2CHCHC2H4CH2SCH2C6H4C6H4C6H5CHCHCH5SH2C2H4C6H5C4HCHCH2CH3C2NC8H19FeNSC3SC3H5CH2C3H9NC8H23C2H2CH3CH4CH9CH2CSH3FeCH2NH6FeHSFeHC2Fe2S2CFeHS2HNH2FeS2FeSFeS3H2SH3C2H2CHCH2SCH3C4H2C6H2SCHFeSCHCH2CSC7H4SCH2SCH4CSHC2H3C2H2CHC4H3SH2CHCH2SH3C2H2C2H2C2FeC2H8NH9FeHCH3C2HC2H2CH2CH3SH6SH5CHCSH3C2FeCHC2HCHC2H3C3HCH8CSH2CHCH2CH2C2HSH2C2H2CH4CH4SH2C2HCH2CFeH2C2NH2NC4FeNHCNC2HSH4C4HCNC2HCH4C2H3CSFeS2HSHFeSFeSH2SHCFeS2FeSFeSH2FeS2FeSFeSHS2C2HSCNHFeC7H4C2H2C7H4CH2C3NHCH5CH2C6H4CH2CS2H2C4HCH8SH7CHCHCHCSHC2H2C5HFeCH3SHC3HCSH2CH6CSHCH2C2HCH3C2H13CH3N2H3CH3SCHC2HFeH2CHCHCH2CHS2CH5CH2FeC3HFeH2CH2CH2CFeH2C2HCHCHNHC2NH4CH5CH3CHC2H9SH2CH4CHCSH3SNHSCH3C2HC2HCHCH3C2HCH2CH3C3SCHC2HC2H4CH4CH3C3H2NH2SH2CH7SFeNHCHNHSH2CH2FeNHSCH5FeH2FeC3HC2H3CH6SHCH3C2SH3CHSH5SFeSH2FeS2FeS2FeSFeS3C9H5SCHC3S2H2C5H3CH3C2HFeC8H6CHCFeHC2HC2FeSCHCH3FeC2H2CFeH5CSCNH4CH3CHFeHFeCH3CSCHCHSHCHSHC2H3SNC2SCHCHC3H7SC2HNCH3CHNC8H14CH5NC8H20CSHC2H3CSHNC4HC3H9NH6C3H3CH2CH3C2HCH3NH4C3HCHC2HCH5CHCHSHCFeHC2HS2H2CHCH2CH6CH5CH2FeSCHFeH2CH2CHCHC2H2CHCFeH4NSCH2SCH7C2HC3H3C2H2FeHC2H2CH2CH3S2FeCHCNH2CH3CSCFeCHCH2C2H2C3H3CNHNCH3SH3CSCHCHSNHCHCHCH3CH6C2H2CH5FeHCH7CHC2HSH10C2HCH3C2HCHC3HNCH2C2HCHCHC2H3CSCH4C2H3CHFeS2FeS2FeSFeS3FeS2FeS2Fe2S3H3C3H2SCH9CH4NH3CH3CH6CHCH4NH5CHCHCHCH4CHC2H7C4H2C4H4CH2CHSHC6H4C6H4C6HC2H5C3H3CH4CHC3HCH2CHC2HNCHC6H2CH8C3H2C2HCNC3HC4H8CH3C2H4C2HCH2NH4FeHCNHSHCH10SH5C4HCH2SCNC2H9CH3SCFeH3CH6C2HCHFeCFeHSH3CS2FeS2FeSHFeSFeS3CHCHSC4SH3CH2SHCH2CH3C2H2C6H5CSH9CNHC4H8CHCHCH2CHSHC2NH3CH3FeCHNCH6CHSH2C4H3C2H2CNHC3NCH8CH3CH4C2HCH5FeHCHC2HSH2SCH2CFeCHNH2SCHC2H2C2H2SH11CH4CH3CHCH4SFeH2CHSHCH3CH7SHC3FeCH2SH3CH2C2H3FeS2FeS2FeSFeS3H2CH4SCH3FeSFeS2FeSFeS5FeSFeSH2C2HCHCHC2HC6H3SC2H4CHFeH2C7H7NHNC2H2C6H5CHCH3CH2C5HCHSHCH3SHCHSH5CH2S2HCSNHCHCH2CH2NC8H20FeNH2C2HC2HC5H2CHCHCSH2CH2CNC8H19CHCFeH6CFe2C3H2SH4CHCFeH3S2H4C3HCHCSHCSHSH2SH6CHFe2H8CHCHC2HCH4CHCH6NHCH3FeS2FeSFeSFeS3CH6CHCHNCH2SH3FeHC3H3C2H2CFeHC2SC2HCH2CNH2FeHCSC5H3C4HC2HCHSH3CH2CHCHCHSCSH4C2H4C2HCHCH2C3H3NFeSC2H2CSCHCH3CH3CH12CH5SC2H2CHC2H5CHCH4CHCSCSNCH3NH9CH2CHCHC
_chemical_formula_sum              "C2016 H3456 Fe288 S576 N144"
_cell_length_a       71.9607
_cell_length_b       72.5799
_cell_length_c       73.3657
_cell_angle_alpha    77.7204
_cell_angle_beta     77.7082
_cell_angle_gamma    77.7821

_space_group_name_H-M_alt    "P 1"
_space_group_IT_number       1

loop_
  _space_group_symop_operation_xyz
  'x, y, z'

loop_
  _atom_site_type_symbol
  _atom_site_label
  _atom_site_symmetry_multiplicity
  _atom_site_fract_x
  _atom_site_fract_y
  _atom_site_fract_z
  _atom_site_occupancy
  C   C1        1.0  0.45784  0.11273  0.29382  1.0000
  H   H1        1.0  0.39371  0.06188  0.30419  1.0000
  H   H2        1.0  0.47777  0.09563  0.27501  1.0000
  Fe  Fe1       1.0  0.46210  0.21344  0.30228  1.0000
  S   S1        1.0  0.46480  0.21501  0.27074  1.0000
  H   H3        1.0  0.48574  0.99420  0.28723  1.0000
  C   C2        1.0  0.46243  0.14587  0.28956  1.0000
  C   C3        1.0  0.47774  0.14284  0.27455  1.0000
  S   S2        1.0  0.47460  0.04342  0.28829  1.0000
  H   H4        1.0  0.40082  0.03852  0.29693  1.0000
  C   C4        1.0  0.47347  0.10958  0.27916  1.0000
  C   C5        1.0  0.45231  0.13093  0.29897  1.0000
  Fe  Fe2       1.0  0.48635  0.18779  0.27522  1.0000
  H   H5        1.0  0.45810  0.15984  0.29365  1.0000
  S   S3        1.0  0.48534  0.23105  0.29925  1.0000
  Fe  Fe3       1.0  0.48942  0.23061  0.26794  1.0000
  C   C6        1.0  0.40467  0.04858  0.30438  1.0000
  H   H6        1.0  0.41837  0.05290  0.29601  1.0000
  C   C7        1.0  0.48310  0.12469  0.26930  1.0000
  S   S4        1.0  0.48226  0.18524  0.30664  1.0000
  S   S5        1.0  0.49068  0.16124  0.26225  1.0000
  S   S6        1.0  0.44478  0.09424  0.30542  1.0000
  Fe  Fe4       1.0  0.37166  0.03486  0.56466  1.0000
  S   S7        1.0  0.34028  0.04783  0.57006  1.0000
  S   S8        1.0  0.38740  0.02710  0.53674  1.0000
  S   S9        1.0  0.38169  0.05656  0.57631  1.0000
  S   S10       1.0  0.37051  0.01325  0.59155  1.0000
  S   S11       1.0  0.37385  0.98665  0.39553  1.0000
  H   H7        1.0  0.40201  0.19959  0.34494  1.0000
  C   C8        1.0  0.40499  0.04691  0.63058  1.0000
  Fe  Fe5       1.0  0.35312  0.02034  0.45225  1.0000
  S   S12       1.0  0.34084  0.02734  0.42531  1.0000
  S   S13       1.0  0.33761  0.01191  0.48191  1.0000
  Fe  Fe6       1.0  0.39287  0.02696  0.43218  1.0000
  S   S14       1.0  0.38448  0.03445  0.40351  1.0000
  S   S15       1.0  0.42147  0.02770  0.43904  1.0000
  Fe  Fe7       1.0  0.35774  0.05171  0.41760  1.0000
  S   S16       1.0  0.34714  0.08206  0.40376  1.0000
  Fe  Fe8       1.0  0.36865  0.00949  0.41361  1.0000
  H   H8        1.0  0.38855  0.98514  0.34586  1.0000
  S   S17       1.0  0.36739  0.04611  0.44552  1.0000
  S   S18       1.0  0.37948  0.00063  0.44121  1.0000
  C   C9        1.0  0.48173  0.19182  0.60972  1.0000
  C   C10       1.0  0.37409  0.04555  0.33906  1.0000
  H   H9        1.0  0.37390  0.11186  0.55272  1.0000
  C   C11       1.0  0.35157  0.10075  0.41342  1.0000
  C   C12       1.0  0.36562  0.09730  0.42485  1.0000
  C   C13       1.0  0.36855  0.11209  0.43297  1.0000
  C   C14       1.0  0.35733  0.13043  0.42996  1.0000
  C   C15       1.0  0.34376  0.13415  0.41795  1.0000
  C   C16       1.0  0.34096  0.11934  0.40964  1.0000
  H   H10       1.0  0.37431  0.08327  0.42741  1.0000
  H   H11       1.0  0.37934  0.10922  0.44192  1.0000
  H   H12       1.0  0.38806  0.18644  0.49893  1.0000
  H   H13       1.0  0.33018  0.12218  0.40065  1.0000
  C   C17       1.0  0.43997  0.03012  0.41931  1.0000
  C   C18       1.0  0.43797  0.02720  0.40161  1.0000
  C   C19       1.0  0.45279  0.02992  0.38591  1.0000
  C   C20       1.0  0.46955  0.03562  0.38794  1.0000
  C   C21       1.0  0.41673  0.11133  0.37226  1.0000
  H   H14       1.0  0.35479  0.98380  0.62135  1.0000
  H   H15       1.0  0.42524  0.02248  0.40010  1.0000
  H   H16       1.0  0.45137  0.02738  0.37235  1.0000
  H   H17       1.0  0.40305  0.12026  0.39963  1.0000
  C   C22       1.0  0.36528  0.22688  0.52617  1.0000
  C   C23       1.0  0.40031  0.20952  0.37106  1.0000
  H   H18       1.0  0.42939  0.01407  0.35117  1.0000
  H   H19       1.0  0.38634  0.11447  0.38716  1.0000
  H   H20       1.0  0.46627  0.08527  0.34425  1.0000
  H   H21       1.0  0.42862  0.11937  0.37104  1.0000
  Fe  Fe9       1.0  0.48206  0.03946  0.34002  1.0000
  C   C24       1.0  0.40325  0.06454  0.61831  1.0000
  C   C25       1.0  0.38865  0.01409  0.32907  1.0000
  H   H22       1.0  0.38802  0.20290  0.37827  1.0000
  Fe  Fe10      1.0  0.32606  0.21751  0.41959  1.0000
  H   H23       1.0  0.42144  0.02859  0.32284  1.0000
  H   H24       1.0  0.42968  0.16678  0.61819  1.0000
  C   C26       1.0  0.37318  0.02267  0.52203  1.0000
  C   C27       1.0  0.35403  0.02004  0.52879  1.0000
  C   C28       1.0  0.34311  0.01647  0.51655  1.0000
  C   C29       1.0  0.35128  0.01568  0.49754  1.0000
  C   C30       1.0  0.37046  0.01815  0.49093  1.0000
  C   C31       1.0  0.38137  0.02158  0.50314  1.0000
  H   H25       1.0  0.34770  0.02056  0.54345  1.0000
  H   H26       1.0  0.32829  0.01449  0.52176  1.0000
  H   H27       1.0  0.37713  0.01705  0.47648  1.0000
  H   H28       1.0  0.39620  0.02353  0.49785  1.0000
  H   H29       1.0  0.48458  0.04255  0.40732  1.0000
  H   H30       1.0  0.42433  0.14620  0.61195  1.0000
  H   H31       1.0  0.41588  0.06789  0.41690  1.0000
  N   N1        1.0  0.39182  0.03014  0.33757  1.0000
  H   H32       1.0  0.47618  0.00887  0.61265  1.0000
  C   C32       1.0  0.37814  0.99852  0.34262  1.0000
  H   H33       1.0  0.38111  0.17323  0.48445  1.0000
  H   H34       1.0  0.39487  0.13584  0.54693  1.0000
  H   H35       1.0  0.37203  0.14884  0.51032  1.0000
  S   S19       1.0  0.32256  0.19713  0.44734  1.0000
  Fe  Fe11      1.0  0.36501  0.22173  0.57333  1.0000
  C   C33       1.0  0.33915  0.16430  0.53507  1.0000
  H   H36       1.0  0.39605  0.15089  0.50985  1.0000
  C   C34       1.0  0.38081  0.15822  0.51344  1.0000
  H   H37       1.0  0.35806  0.03485  0.36752  1.0000
  S   S20       1.0  0.33939  0.20915  0.62518  1.0000
  H   H38       1.0  0.29517  0.98894  0.46679  1.0000
  H   H39       1.0  0.35412  0.99880  0.63790  1.0000
  H   H40       1.0  0.32190  0.13860  0.58201  1.0000
  H   H41       1.0  0.36778  0.99470  0.33538  1.0000
  H   H42       1.0  0.43038  0.07994  0.42553  1.0000
  C   C35       1.0  0.35617  0.17147  0.53940  1.0000
  S   S21       1.0  0.45287  0.04328  0.33263  1.0000
  H   H43       1.0  0.40552  0.16563  0.53087  1.0000
  S   S22       1.0  0.36614  0.15741  0.61446  1.0000
  H   H44       1.0  0.33503  0.14824  0.41553  1.0000
  S   S23       1.0  0.35953  0.14739  0.44312  1.0000
  S   S24       1.0  0.45038  0.99723  0.31518  1.0000
  H   H45       1.0  0.36284  0.18455  0.50105  1.0000
  C   C36       1.0  0.33528  0.13446  0.58751  1.0000
  S   S25       1.0  0.48799  0.04007  0.36859  1.0000
  S   S26       1.0  0.38139  0.20513  0.59626  1.0000
  C   C37       1.0  0.40714  0.07893  0.38172  1.0000
  H   H46       1.0  0.41725  0.00201  0.37263  1.0000
  H   H47       1.0  0.40021  0.03569  0.36224  1.0000
  C   C38       1.0  0.42417  0.21626  0.34248  1.0000
  H   H48       1.0  0.45569  0.01808  0.60201  1.0000
  C   C39       1.0  0.40836  0.20754  0.35221  1.0000
  H   H49       1.0  0.41271  0.06335  0.38581  1.0000
  Fe  Fe12      1.0  0.35654  0.18921  0.60568  1.0000
  H   H50       1.0  0.46504  0.08822  0.36795  1.0000
  C   C40       1.0  0.43206  0.22353  0.62878  1.0000
  C   C41       1.0  0.40776  0.22061  0.38022  1.0000
  H   H51       1.0  0.46749  0.19492  0.60509  1.0000
  H   H52       1.0  0.41144  0.05056  0.33098  1.0000
  C   C42       1.0  0.48147  0.17532  0.62695  1.0000
  H   H53       1.0  0.48375  0.20523  0.61342  1.0000
  H   H54       1.0  0.32784  0.11951  0.63015  1.0000
  C   C43       1.0  0.41034  0.07979  0.62182  1.0000
  H   H55       1.0  0.37230  0.14220  0.56152  1.0000
  S   S27       1.0  0.43100  0.21688  0.31781  1.0000
  H   H56       1.0  0.40099  0.18243  0.55763  1.0000
  S   S28       1.0  0.36857  0.19537  0.44658  1.0000
  C   C44       1.0  0.41857  0.15760  0.62069  1.0000
  C   C45       1.0  0.39949  0.12071  0.38561  1.0000
  C   C46       1.0  0.35870  0.14214  0.60283  1.0000
  C   C47       1.0  0.43358  0.08578  0.39476  1.0000
  C   C48       1.0  0.45679  0.09173  0.35614  1.0000
  H   H57       1.0  0.38348  0.07362  0.37064  1.0000
  H   H58       1.0  0.39576  0.13611  0.37946  1.0000
  H   H59       1.0  0.44500  0.07277  0.39409  1.0000
  H   H60       1.0  0.34257  0.15785  0.52216  1.0000
  S   S29       1.0  0.31495  0.01359  0.61398  1.0000
  H   H61       1.0  0.28192  0.23328  0.45880  1.0000
  C   C49       1.0  0.31370  0.99009  0.61225  1.0000
  H   H62       1.0  0.38631  0.01747  0.36750  1.0000
  H   H63       1.0  0.41600  0.99586  0.35063  1.0000
  H   H64       1.0  0.36952  0.05090  0.32504  1.0000
  H   H65       1.0  0.39610  0.08285  0.39401  1.0000
  C   C50       1.0  0.41615  0.00796  0.35755  1.0000
  Fe  Fe13      1.0  0.36350  0.22612  0.61419  1.0000
  H   H66       1.0  0.33337  0.16184  0.59558  1.0000
  H   H67       1.0  0.32012  0.99031  0.45952  1.0000
  H   H68       1.0  0.34613  0.22386  0.35083  1.0000
  H   H69       1.0  0.44020  0.13349  0.31026  1.0000
  H   H70       1.0  0.40284  0.00636  0.32258  1.0000
  C   C51       1.0  0.39046  0.17180  0.53685  1.0000
  H   H71       1.0  0.17662  0.23205  0.41986  1.0000
  H   H72       1.0  0.37740  0.05815  0.34343  1.0000
  H   H73       1.0  0.41272  0.11463  0.35791  1.0000
  H   H74       1.0  0.35513  0.18694  0.53303  1.0000
  H   H75       1.0  0.43919  0.99153  0.62596  1.0000
  C   C52       1.0  0.37919  0.14112  0.54661  1.0000
  H   H76       1.0  0.33306  0.21953  0.37435  1.0000
  H   H77       1.0  0.39484  0.15919  0.56633  1.0000
  Fe  Fe14      1.0  0.32670  0.22616  0.59990  1.0000
  N   N2        1.0  0.34466  0.08564  0.49398  1.0000
  C   C53       1.0  0.36329  0.07169  0.49066  1.0000
  C   C54       1.0  0.32821  0.07454  0.49999  1.0000
  C   C55       1.0  0.34458  0.09652  0.50936  1.0000
  C   C56       1.0  0.34265  0.09973  0.47588  1.0000
  C   C57       1.0  0.38206  0.07998  0.48696  1.0000
  C   C58       1.0  0.32444  0.06460  0.48482  1.0000
  C   C59       1.0  0.34847  0.08417  0.52851  1.0000
  C   C60       1.0  0.32331  0.11384  0.47584  1.0000
  H   H78       1.0  0.36411  0.05962  0.50279  1.0000
  H   H79       1.0  0.36399  0.06493  0.47824  1.0000
  H   H80       1.0  0.31447  0.08383  0.50507  1.0000
  H   H81       1.0  0.33081  0.06294  0.51230  1.0000
  H   H82       1.0  0.35518  0.10650  0.50465  1.0000
  H   H83       1.0  0.33032  0.10583  0.51262  1.0000
  H   H84       1.0  0.35404  0.10879  0.47235  1.0000
  H   H85       1.0  0.34484  0.09210  0.46372  1.0000
  H   H86       1.0  0.38381  0.08567  0.49925  1.0000
  H   H87       1.0  0.39455  0.06825  0.48456  1.0000
  H   H88       1.0  0.38312  0.09113  0.47405  1.0000
  H   H89       1.0  0.32000  0.07488  0.47236  1.0000
  H   H90       1.0  0.33712  0.05408  0.48002  1.0000
  C   C61       1.0  0.43793  0.08335  0.36133  1.0000
  H   H91       1.0  0.34868  0.09373  0.53840  1.0000
  H   H92       1.0  0.36259  0.07437  0.52740  1.0000
  H   H93       1.0  0.33675  0.07588  0.53517  1.0000
  H   H94       1.0  0.31083  0.10648  0.47787  1.0000
  H   H95       1.0  0.32381  0.12342  0.46179  1.0000
  H   H96       1.0  0.32075  0.12318  0.48658  1.0000
  C   C62       1.0  0.39604  0.08115  0.36535  1.0000
  H   H97       1.0  0.39014  0.09632  0.36022  1.0000
  H   H98       1.0  0.38273  0.11960  0.60787  1.0000
  Fe  Fe15      1.0  0.36891  0.21487  0.41831  1.0000
  C   C63       1.0  0.40799  0.03929  0.32466  1.0000
  Fe  Fe16      1.0  0.33983  0.02793  0.59800  1.0000
  H   H99       1.0  0.31173  0.10715  0.62447  1.0000
  H   H100      1.0  0.45410  0.10740  0.35101  1.0000
  C   C64       1.0  0.37797  0.17685  0.49890  1.0000
  H   H101      1.0  0.31249  0.05643  0.49111  1.0000
  S   S30       1.0  0.39626  0.02761  0.62643  1.0000
  H   H102      1.0  0.40588  0.98654  0.49694  1.0000
  C   C65       1.0  0.39042  0.17328  0.55757  1.0000
  Fe  Fe17      1.0  0.35009  0.06802  0.58389  1.0000
  H   H103      1.0  0.38064  0.12025  0.52815  1.0000
  H   H104      1.0  0.39288  0.98580  0.53424  1.0000
  H   H105      1.0  0.34973  0.02977  0.34756  1.0000
  C   C66       1.0  0.37196  0.12465  0.54144  1.0000
  N   N3        1.0  0.37622  0.16050  0.53398  1.0000
  H   H106      1.0  0.33854  0.22971  0.54599  1.0000
  H   H107      1.0  0.40913  0.09336  0.61222  1.0000
  H   H108      1.0  0.43166  0.08693  0.34813  1.0000
  H   H109      1.0  0.33181  0.99166  0.40574  1.0000
  H   H110      1.0  0.28879  0.98931  0.63446  1.0000
  H   H111      1.0  0.37118  0.09620  0.59450  1.0000
  H   H112      1.0  0.39656  0.06644  0.60604  1.0000
  H   H113      1.0  0.36980  0.00254  0.35607  1.0000
  H   H114      1.0  0.40546  0.16605  0.61535  1.0000
  H   H115      1.0  0.19042  0.22214  0.43861  1.0000
  S   S31       1.0  0.34146  0.20420  0.58149  1.0000
  H   H116      1.0  0.37626  0.18029  0.56444  1.0000
  H   H117      1.0  0.34288  0.08593  0.62445  1.0000
  H   H118      1.0  0.40505  0.07448  0.35341  1.0000
  C   C67       1.0  0.47160  0.03825  0.40570  1.0000
  C   C68       1.0  0.42121  0.08161  0.41466  1.0000
  Fe  Fe18      1.0  0.35059  0.17969  0.43556  1.0000
  H   H119      1.0  0.40884  0.09310  0.41755  1.0000
  H   H120      1.0  0.44134  0.09754  0.39472  1.0000
  C   C69       1.0  0.39778  0.02337  0.35674  1.0000
  H   H121      1.0  0.44370  0.21947  0.61763  1.0000
  C   C70       1.0  0.36293  0.11049  0.59468  1.0000
  S   S32       1.0  0.35246  0.19831  0.40667  1.0000
  H   H122      1.0  0.44217  0.06746  0.36413  1.0000
  Fe  Fe19      1.0  0.46328  0.06490  0.30796  1.0000
  H   H123      1.0  0.45848  0.03768  0.43502  1.0000
  H   H124      1.0  0.35645  0.12801  0.54054  1.0000
  H   H125      1.0  0.32746  0.17674  0.53232  1.0000
  C   C71       1.0  0.34250  0.22546  0.49985  1.0000
  H   H126      1.0  0.38786  0.18682  0.52914  1.0000
  Fe  Fe20      1.0  0.34070  0.21413  0.45618  1.0000
  C   C72       1.0  0.35257  0.98424  0.63660  1.0000
  N   N4        1.0  0.42347  0.09008  0.37780  1.0000
  S   S33       1.0  0.33664  0.09937  0.57870  1.0000
  H   H127      1.0  0.35283  0.17161  0.55489  1.0000
  S   S34       1.0  0.34664  0.04929  0.61245  1.0000
  Fe  Fe21      1.0  0.37750  0.03613  0.60396  1.0000
  C   C73       1.0  0.34179  0.14765  0.59511  1.0000
  C   C74       1.0  0.36945  0.12372  0.60221  1.0000
  H   H128      1.0  0.46986  0.18079  0.63820  1.0000
  C   C75       1.0  0.34565  0.11576  0.58758  1.0000
  C   C76       1.0  0.45686  0.03549  0.42135  1.0000
  H   H129      1.0  0.33326  0.15399  0.54732  1.0000
  H   H130      1.0  0.37001  0.09480  0.63289  1.0000
  C   C77       1.0  0.35583  0.04012  0.35268  1.0000
  H   H131      1.0  0.34454  0.05318  0.35305  1.0000
  C   C78       1.0  0.46276  0.00505  0.61070  1.0000
  H   H132      1.0  0.42271  0.98647  0.51194  1.0000
  C   C79       1.0  0.41282  0.22623  0.62603  1.0000
  S   S35       1.0  0.49149  0.06270  0.31676  1.0000
  C   C80       1.0  0.44877  0.00006  0.62935  1.0000
  H   H133      1.0  0.40974  0.22421  0.61285  1.0000
  H   H134      1.0  0.43872  0.01340  0.63237  1.0000
  H   H135      1.0  0.36193  0.23106  0.37605  1.0000
  H   H136      1.0  0.47637  0.16350  0.62292  1.0000
  C   C81       1.0  0.33791  0.23100  0.36277  1.0000
  H   H137      1.0  0.33812  0.98655  0.58971  1.0000
  S   S36       1.0  0.37990  0.22635  0.54278  1.0000
  C   C82       1.0  0.34528  0.22818  0.53164  1.0000
  H   H138      1.0  0.46638  0.99318  0.60248  1.0000
  H   H139      1.0  0.36911  0.22330  0.47974  1.0000
  C   C83       1.0  0.37380  0.22542  0.50734  1.0000
  H   H140      1.0  0.38925  0.22460  0.50298  1.0000
  C   C84       1.0  0.36243  0.22467  0.49418  1.0000
  H   H141      1.0  0.38049  0.01996  0.31719  1.0000
  C   C85       1.0  0.33385  0.08776  0.63853  1.0000
  Fe  Fe22      1.0  0.46648  0.02135  0.31391  1.0000
  S   S37       1.0  0.39587  0.22644  0.40251  1.0000
  C   C86       1.0  0.33393  0.22750  0.51851  1.0000
  C   C87       1.0  0.43226  0.22655  0.35195  1.0000
  C   C88       1.0  0.32012  0.10723  0.63554  1.0000
  H   H142      1.0  0.31850  0.22822  0.52294  1.0000
  S   S38       1.0  0.32773  0.22391  0.48417  1.0000
  H   H143      1.0  0.39091  0.18377  0.63768  1.0000
  H   H144      1.0  0.49054  0.11477  0.33958  1.0000
  C   C89       1.0  0.42398  0.22882  0.37072  1.0000
  C   C90       1.0  0.41920  0.07745  0.63759  1.0000
  S   S39       1.0  0.29962  0.23238  0.40657  1.0000
  H   H145      1.0  0.36470  0.06187  0.63989  1.0000
  H   H146      1.0  0.45967  0.02977  0.63923  1.0000
  H   H147      1.0  0.48523  0.99953  0.63985  1.0000
  H   H148      1.0  0.32431  0.07686  0.64189  1.0000
  C   C91       1.0  0.34572  0.04837  0.66333  1.0000
  H   H149      1.0  0.35765  0.07318  0.68797  1.0000
  C   C92       1.0  0.37766  0.18687  0.66595  1.0000
  C   C93       1.0  0.34271  0.08114  0.69009  1.0000
  H   H150      1.0  0.35572  0.03439  0.66355  1.0000
  C   C94       1.0  0.43380  0.99777  0.71257  1.0000
  H   H151      1.0  0.45330  0.02319  0.66476  1.0000
  C   C95       1.0  0.42559  0.17963  0.67159  1.0000
  Fe  Fe23      1.0  0.48572  0.09135  0.67066  1.0000
  H   H152      1.0  0.45237  0.22947  0.79739  1.0000
  C   C96       1.0  0.42087  0.05984  0.64993  1.0000
  H   H153      1.0  0.38623  0.19745  0.66696  1.0000
  H   H154      1.0  0.49231  0.19011  0.65176  1.0000
  H   H155      1.0  0.32044  0.08232  0.67410  1.0000
  H   H156      1.0  0.42755  0.05798  0.66222  1.0000
  S   S40       1.0  0.48631  0.22258  0.72366  1.0000
  C   C97       1.0  0.44547  0.01201  0.70698  1.0000
  S   S41       1.0  0.48376  0.19834  0.69140  1.0000
  C   C98       1.0  0.46558  0.00681  0.70300  1.0000
  S   S42       1.0  0.46056  0.22216  0.64893  1.0000
  C   C99       1.0  0.45436  0.15862  0.71857  1.0000
  H   H157      1.0  0.48276  0.14006  0.67711  1.0000
  H   H158      1.0  0.37298  0.17855  0.68010  1.0000
  Fe  Fe24      1.0  0.45103  0.09383  0.70206  1.0000
  C   C100      1.0  0.41360  0.04467  0.64651  1.0000
  S   S43       1.0  0.43627  0.10725  0.72749  1.0000
  H   H159      1.0  0.46109  0.16823  0.70695  1.0000
  C   C101      1.0  0.38847  0.17396  0.65154  1.0000
  H   H160      1.0  0.38281  0.08540  0.66437  1.0000
  H   H161      1.0  0.47545  0.20530  0.78198  1.0000
  S   S44       1.0  0.44772  0.23241  0.70329  1.0000
  C   C102      1.0  0.37406  0.09940  0.65956  1.0000
  S   S45       1.0  0.43811  0.07201  0.69342  1.0000
  H   H162      1.0  0.43892  0.02697  0.70585  1.0000
  H   H163      1.0  0.41825  0.00184  0.71565  1.0000
  C   C103      1.0  0.33381  0.08857  0.67184  1.0000
  H   H164      1.0  0.33473  0.04789  0.65500  1.0000
  C   C104      1.0  0.45319  0.23058  0.78190  1.0000
  N   N5        1.0  0.40718  0.16143  0.65584  1.0000
  H   H165      1.0  0.35312  0.11339  0.64268  1.0000
  H   H166      1.0  0.37671  0.14145  0.67505  1.0000
  H   H167      1.0  0.42666  0.20532  0.77227  1.0000
  H   H168      1.0  0.46281  0.20927  0.76285  1.0000
  S   S46       1.0  0.45710  0.11104  0.67298  1.0000
  C   C105      1.0  0.47392  0.98738  0.70452  1.0000
  H   H169      1.0  0.45499  0.13735  0.70160  1.0000
  H   H170      1.0  0.43148  0.16722  0.68174  1.0000
  S   S47       1.0  0.42734  0.09689  0.64213  1.0000
  C   C106      1.0  0.39092  0.13485  0.67914  1.0000
  C   C107      1.0  0.44881  0.16359  0.73669  1.0000
  C   C108      1.0  0.43977  0.15117  0.75155  1.0000
  C   C109      1.0  0.43610  0.13401  0.74844  1.0000
  C   C110      1.0  0.44171  0.12886  0.73050  1.0000
  C   C111      1.0  0.45093  0.14116  0.71552  1.0000
  S   S48       1.0  0.48086  0.02402  0.69571  1.0000
  H   H171      1.0  0.43539  0.15489  0.76555  1.0000
  H   H172      1.0  0.42890  0.12463  0.76004  1.0000
  H   H173      1.0  0.34267  0.09332  0.69708  1.0000
  H   H174      1.0  0.40208  0.21766  0.77235  1.0000
  H   H175      1.0  0.33373  0.07155  0.70042  1.0000
  C   C112      1.0  0.40475  0.14933  0.67538  1.0000
  S   S49       1.0  0.45284  0.18503  0.74165  1.0000
  C   C113      1.0  0.35754  0.06451  0.65436  1.0000
  H   H176      1.0  0.46716  0.15675  0.66309  1.0000
  S   S50       1.0  0.48055  0.07583  0.70062  1.0000
  N   N6        1.0  0.34646  0.08475  0.65336  1.0000
  H   H177      1.0  0.36605  0.10617  0.67178  1.0000
  H   H178      1.0  0.47694  0.99236  0.66414  1.0000
  C   C114      1.0  0.46090  0.21010  0.77802  1.0000
  H   H179      1.0  0.42036  0.18655  0.64280  1.0000
  H   H180      1.0  0.40251  0.13940  0.64209  1.0000
  H   H181      1.0  0.43644  0.18927  0.66750  1.0000
  H   H182      1.0  0.47694  0.02725  0.65414  1.0000
  H   H183      1.0  0.41449  0.03125  0.65632  1.0000
  H   H184      1.0  0.38831  0.12892  0.69455  1.0000
  H   H185      1.0  0.33870  0.04924  0.67816  1.0000
  Fe  Fe25      1.0  0.46847  0.05556  0.68902  1.0000
  Fe  Fe26      1.0  0.44653  0.08799  0.66404  1.0000
  H   H186      1.0  0.41899  0.14089  0.67831  1.0000
  H   H187      1.0  0.43464  0.00274  0.66667  1.0000
  C   C115      1.0  0.42272  0.17338  0.65362  1.0000
  C   C116      1.0  0.41406  0.21325  0.78058  1.0000
  H   H188      1.0  0.32867  0.10427  0.67114  1.0000
  H   H189      1.0  0.39961  0.15833  0.68657  1.0000
  H   H190      1.0  0.36434  0.19529  0.66090  1.0000
  H   H191      1.0  0.45178  0.19984  0.78690  1.0000
  H   H192      1.0  0.36979  0.06196  0.66203  1.0000
  S   S51       1.0  0.47580  0.06990  0.65878  1.0000
  Fe  Fe27      1.0  0.46540  0.20645  0.71794  1.0000
  H   H193      1.0  0.43718  0.16544  0.64819  1.0000
  H   H194      1.0  0.41227  0.18755  0.67896  1.0000
  C   C117      1.0  0.43625  0.22638  0.64573  1.0000
  H   H195      1.0  0.48399  0.16488  0.67353  1.0000
  C   C118      1.0  0.44159  0.98837  0.66343  1.0000
  H   H196      1.0  0.39761  0.12251  0.67186  1.0000
  Fe  Fe28      1.0  0.46770  0.22540  0.67668  1.0000
  H   H197      1.0  0.30946  0.10973  0.64850  1.0000
  C   C119      1.0  0.48187  0.15356  0.66658  1.0000
  H   H198      1.0  0.42678  0.13747  0.64512  1.0000
  H   H199      1.0  0.40898  0.20273  0.79307  1.0000
  C   C120      1.0  0.47190  0.99984  0.65067  1.0000
  N   N7        1.0  0.45758  0.98955  0.64638  1.0000
  C   C121      1.0  0.42104  0.23201  0.65991  1.0000
  H   H200      1.0  0.41995  0.22584  0.80256  1.0000
  C   C122      1.0  0.46470  0.02116  0.65223  1.0000
  H   H201      1.0  0.38448  0.10881  0.65152  1.0000
  C   C123      1.0  0.41784  0.23061  0.78756  1.0000
  C   C124      1.0  0.36059  0.09842  0.64623  1.0000
  H   H202      1.0  0.37819  0.16518  0.64987  1.0000
  H   H203      1.0  0.43815  0.22728  0.75086  1.0000
  H   H204      1.0  0.41576  0.98772  0.65208  1.0000
  C   C125      1.0  0.41375  0.14802  0.64165  1.0000
  C   C126      1.0  0.39764  0.23212  0.64013  1.0000
  H   H205      1.0  0.39097  0.44053  0.11933  1.0000
  H   H206      1.0  0.41637  0.40245  0.05782  1.0000
  C   C127      1.0  0.47964  0.28159  0.12254  1.0000
  H   H207      1.0  0.45232  0.35841  0.21836  1.0000
  C   C128      1.0  0.42018  0.42930  0.98541  1.0000
  S   S52       1.0  0.47011  0.35524  0.08593  1.0000
  S   S53       1.0  0.42129  0.45013  0.01196  1.0000
  S   S54       1.0  0.37270  0.46405  0.99287  1.0000
  H   H208      1.0  0.47294  0.48051  0.98055  1.0000
  N   N8        1.0  0.31643  0.45795  0.99072  1.0000
  C   C129      1.0  0.41737  0.40941  0.10944  1.0000
  N   N9        1.0  0.43904  0.32447  0.21630  1.0000
  C   C130      1.0  0.45083  0.26150  0.11705  1.0000
  H   H209      1.0  0.36194  0.45430  0.06845  1.0000
  H   H210      1.0  0.42553  0.30210  0.25276  1.0000
  H   H211      1.0  0.39721  0.40294  0.08675  1.0000
  C   C131      1.0  0.43798  0.40059  0.10097  1.0000
  H   H212      1.0  0.45497  0.31798  0.23970  1.0000
  H   H213      1.0  0.30710  0.47578  0.01255  1.0000
  Fe  Fe29      1.0  0.47198  0.36540  0.15064  1.0000
  Fe  Fe30      1.0  0.34285  0.47638  0.12465  1.0000
  C   C132      1.0  0.43830  0.40694  0.15748  1.0000
  C   C133      1.0  0.41936  0.41470  0.16511  1.0000
  Fe  Fe31      1.0  0.40049  0.47132  0.99581  1.0000
  C   C134      1.0  0.40135  0.41730  0.08115  1.0000
  H   H214      1.0  0.41142  0.40648  0.17717  1.0000
  H   H215      1.0  0.44813  0.44490  0.12290  1.0000
  H   H216      1.0  0.33780  0.47525  0.97558  1.0000
  C   C135      1.0  0.43872  0.29542  0.24400  1.0000
  H   H217      1.0  0.16725  0.45635  0.27066  1.0000
  C   C136      1.0  0.41063  0.43314  0.15733  1.0000
  C   C137      1.0  0.45964  0.27608  0.10061  1.0000
  C   C138      1.0  0.42789  0.42974  0.00125  1.0000
  H   H218      1.0  0.44446  0.39019  0.11238  1.0000
  C   C139      1.0  0.29585  0.48017  0.22672  1.0000
  H   H219      1.0  0.46528  0.32499  0.19557  1.0000
  C   C140      1.0  0.44851  0.39911  0.99772  1.0000
  C   C141      1.0  0.44176  0.41445  0.00766  1.0000
  N   N10       1.0  0.40638  0.42509  0.09667  1.0000
  S   S55       1.0  0.47278  0.29416  0.16804  1.0000
  H   H220      1.0  0.45955  0.38750  0.00241  1.0000
  H   H221      1.0  0.44770  0.41470  0.01996  1.0000
  H   H222      1.0  0.13531  0.45932  0.28989  1.0000
  C   C142      1.0  0.47820  0.25916  0.21863  1.0000
  Fe  Fe32      1.0  0.48180  0.32215  0.15191  1.0000
  C   C143      1.0  0.48090  0.28312  0.18958  1.0000
  H   H223      1.0  0.43168  0.43674  0.08015  1.0000
  C   C144      1.0  0.41220  0.35494  0.21545  1.0000
  H   H224      1.0  0.46878  0.31968  0.07095  1.0000
  C   C145      1.0  0.46312  0.34768  0.21122  1.0000
  H   H225      1.0  0.33216  0.46623  0.00890  1.0000
  H   H226      1.0  0.46218  0.25051  0.12313  1.0000
  C   C146      1.0  0.42101  0.44417  0.14218  1.0000
  H   H227      1.0  0.32504  0.43381  0.02621  1.0000
  S   S56       1.0  0.44911  0.38414  0.16824  1.0000
  H   H228      1.0  0.46317  0.41201  0.13612  1.0000
  C   C147      1.0  0.43946  0.30598  0.12685  1.0000
  H   H229      1.0  0.41586  0.33711  0.18684  1.0000
  H   H230      1.0  0.43184  0.32053  0.12912  1.0000
  C   C148      1.0  0.14669  0.44825  0.29589  1.0000
  H   H231      1.0  0.41214  0.32921  0.23591  1.0000
  C   C149      1.0  0.48091  0.35777  0.04757  1.0000
  H   H232      1.0  0.46943  0.44515  0.00077  1.0000
  C   C150      1.0  0.29584  0.45594  0.99143  1.0000
  C   C151      1.0  0.40728  0.45921  0.07743  1.0000
  Fe  Fe33      1.0  0.33893  0.48309  0.16516  1.0000
  H   H233      1.0  0.46213  0.26214  0.19614  1.0000
  S   S57       1.0  0.33723  0.46036  0.10377  1.0000
  H   H234      1.0  0.31597  0.45255  0.03966  1.0000
  C   C152      1.0  0.37494  0.41844  0.11990  1.0000
  H   H235      1.0  0.39605  0.43898  0.16336  1.0000
  H   H236      1.0  0.43507  0.28544  0.23631  1.0000
  C   C153      1.0  0.41770  0.44123  0.08912  1.0000
  H   H237      1.0  0.37858  0.44409  0.10004  1.0000
  C   C154      1.0  0.33730  0.47323  0.08055  1.0000
  H   H238      1.0  0.47269  0.33889  0.22103  1.0000
  H   H239      1.0  0.47172  0.24735  0.22736  1.0000
  H   H240      1.0  0.40953  0.39712  0.11471  1.0000
  H   H241      1.0  0.36045  0.47036  0.03525  1.0000
  H   H242      1.0  0.44856  0.31500  0.09743  1.0000
  H   H243      1.0  0.40956  0.44103  0.98028  1.0000
  H   H244      1.0  0.42174  0.44594  0.10101  1.0000
  H   H245      1.0  0.34338  0.43848  0.99421  1.0000
  C   C155      1.0  0.35087  0.46660  0.06554  1.0000
  H   H246      1.0  0.48875  0.35895  0.01734  1.0000
  H   H247      1.0  0.43793  0.39224  0.08998  1.0000
  S   S58       1.0  0.35622  0.45956  0.14951  1.0000
  C   C156      1.0  0.48500  0.29593  0.08899  1.0000
  C   C157      1.0  0.32271  0.47398  0.97534  1.0000
  H   H248      1.0  0.44211  0.25375  0.11147  1.0000
  H   H249      1.0  0.43843  0.32453  0.17573  1.0000
  Fe  Fe34      1.0  0.21393  0.47104  0.30146  1.0000
  H   H250      1.0  0.48047  0.42162  0.99525  1.0000
  C   C158      1.0  0.45589  0.30806  0.10967  1.0000
  H   H251      1.0  0.38132  0.40911  0.13190  1.0000
  H   H252      1.0  0.41743  0.30818  0.21500  1.0000
  H   H253      1.0  0.48508  0.29282  0.12708  1.0000
  C   C159      1.0  0.45357  0.33522  0.20261  1.0000
  H   H254      1.0  0.49040  0.30764  0.05884  1.0000
  H   H255      1.0  0.40082  0.45567  0.06645  1.0000
  H   H256      1.0  0.37175  0.40969  0.11066  1.0000
  Fe  Fe35      1.0  0.48057  0.34994  0.11377  1.0000
  C   C160      1.0  0.42527  0.32300  0.18659  1.0000
  H   H257      1.0  0.36087  0.42633  0.12622  1.0000
  C   C161      1.0  0.47280  0.26758  0.20093  1.0000
  H   H258      1.0  0.44101  0.29983  0.20324  1.0000
  H   H259      1.0  0.43198  0.41439  0.06493  1.0000
  H   H260      1.0  0.44768  0.41127  0.09559  1.0000
  C   C162      1.0  0.44988  0.31043  0.23049  1.0000
  H   H261      1.0  0.45094  0.45480  0.97768  1.0000
  H   H262      1.0  0.41786  0.46870  0.07009  1.0000
  H   H263      1.0  0.38835  0.42662  0.07612  1.0000
  C   C163      1.0  0.44110  0.39897  0.98158  1.0000
  C   C164      1.0  0.42331  0.33742  0.22709  1.0000
  H   H264      1.0  0.44730  0.34485  0.19073  1.0000
  H   H265      1.0  0.44465  0.29886  0.14022  1.0000
  S   S59       1.0  0.32569  0.47685  0.19650  1.0000
  S   S60       1.0  0.45893  0.34503  0.14038  1.0000
  H   H266      1.0  0.42851  0.29874  0.12408  1.0000
  C   C165      1.0  0.48303  0.43619  0.99501  1.0000
  H   H267      1.0  0.40737  0.36665  0.22389  1.0000
  H   H268      1.0  0.44820  0.28646  0.25390  1.0000
  H   H269      1.0  0.42095  0.36133  0.20226  1.0000
  H   H270      1.0  0.10687  0.45123  0.30050  1.0000
  H   H271      1.0  0.46611  0.36463  0.04693  1.0000
  H   H272      1.0  0.39921  0.35134  0.21206  1.0000
  H   H273      1.0  0.46315  0.30225  0.22311  1.0000
  C   C166      1.0  0.38787  0.43306  0.10879  1.0000
  H   H274      1.0  0.41842  0.41466  0.12231  1.0000
  H   H275      1.0  0.44784  0.28393  0.09274  1.0000
  H   H276      1.0  0.42884  0.34268  0.23777  1.0000
  H   H277      1.0  0.14665  0.43493  0.29062  1.0000
  C   C167      1.0  0.43062  0.31311  0.20603  1.0000
  H   H278      1.0  0.41359  0.42762  0.05150  1.0000
  H   H279      1.0  0.17867  0.44533  0.29045  1.0000
  C   C168      1.0  0.44850  0.41776  0.14198  1.0000
  H   H280      1.0  0.46391  0.31879  0.11175  1.0000
  H   H281      1.0  0.41744  0.31378  0.18180  1.0000
  H   H282      1.0  0.39595  0.46761  0.08674  1.0000
  C   C169      1.0  0.43998  0.43642  0.13456  1.0000
  S   S61       1.0  0.41077  0.46756  0.13226  1.0000
  C   C170      1.0  0.41693  0.41553  0.06313  1.0000
  N   N11       1.0  0.46977  0.29004  0.10568  1.0000
  H   H283      1.0  0.29944  0.44394  0.02997  1.0000
  H   H284      1.0  0.28538  0.46813  0.99675  1.0000
  C   C171      1.0  0.31428  0.44715  0.02710  1.0000
  C   C172      1.0  0.31770  0.46277  0.00942  1.0000
  H   H285      1.0  0.47235  0.35593  0.19963  1.0000
  C   C173      1.0  0.16571  0.45524  0.28623  1.0000
  H   H286      1.0  0.30613  0.47122  0.23512  1.0000
  C   C174      1.0  0.33008  0.43932  0.98832  1.0000
  Fe  Fe36      1.0  0.37859  0.47839  0.13920  1.0000
  H   H287      1.0  0.29211  0.44333  0.00216  1.0000
  H   H288      1.0  0.44116  0.26819  0.12860  1.0000
  C   C175      1.0  0.34994  0.47562  0.04672  1.0000
  H   H289      1.0  0.46969  0.26727  0.09064  1.0000
  C   C176      1.0  0.48704  0.35196  0.06513  1.0000
  H   H290      1.0  0.16540  0.46983  0.28866  1.0000
  H   H291      1.0  0.46967  0.29622  0.06565  1.0000
  H   H292      1.0  0.46944  0.27615  0.13517  1.0000
  H   H293      1.0  0.32340  0.42687  0.99656  1.0000
  C   C177      1.0  0.47774  0.30535  0.07022  1.0000
  C   C178      1.0  0.42660  0.41383  0.97575  1.0000
  H   H294      1.0  0.27289  0.48317  0.25091  1.0000
  S   S62       1.0  0.49222  0.37210  0.12303  1.0000
  C   C179      1.0  0.49184  0.26619  0.22505  1.0000
  C   C180      1.0  0.49221  0.44540  0.97509  1.0000
  Fe  Fe37      1.0  0.03496  0.34815  0.58526  1.0000
  S   S63       1.0  0.02965  0.37955  0.57371  1.0000
  Fe  Fe38      1.0  0.04204  0.38224  0.59824  1.0000
  Fe  Fe39      1.0  0.07473  0.34866  0.59323  1.0000
  S   S64       1.0  0.07258  0.38016  0.58265  1.0000
  Fe  Fe40      1.0  0.06061  0.37436  0.55906  1.0000
  S   S65       1.0  0.07378  0.38551  0.52921  1.0000
  S   S66       1.0  0.06484  0.34256  0.56848  1.0000
  S   S67       1.0  0.24295  0.35812  0.53773  1.0000
  H   H295      1.0  0.02719  0.37999  0.35786  1.0000
  H   H296      1.0  0.23816  0.31625  0.55904  1.0000
  H   H297      1.0  0.17245  0.24244  0.44102  1.0000
  C   C181      1.0  0.14522  0.44617  0.63416  1.0000
  Fe  Fe41      1.0  0.03556  0.37708  0.44662  1.0000
  S   S68       1.0  0.03366  0.34718  0.44467  1.0000
  S   S69       1.0  0.01837  0.38836  0.47248  1.0000
  Fe  Fe42      1.0  0.06146  0.38322  0.40819  1.0000
  S   S70       1.0  0.06156  0.35393  0.40296  1.0000
  S   S71       1.0  0.07961  0.40161  0.38610  1.0000
  Fe  Fe43      1.0  0.02970  0.35977  0.41473  1.0000
  H   H298      1.0  0.31675  0.27833  0.53111  1.0000
  Fe  Fe44      1.0  0.06559  0.34438  0.43326  1.0000
  S   S72       1.0  0.08855  0.32152  0.44516  1.0000
  S   S73       1.0  0.02941  0.38998  0.41753  1.0000
  S   S74       1.0  0.06770  0.37334  0.43758  1.0000
  C   C182      1.0  0.28953  0.28277  0.55173  1.0000
  C   C183      1.0  0.26542  0.26831  0.60354  1.0000
  H   H299      1.0  0.05944  0.40292  0.35498  1.0000
  S   S75       1.0  0.25561  0.31726  0.62528  1.0000
  H   H300      1.0  0.13670  0.40995  0.63896  1.0000
  H   H301      1.0  0.42984  0.23743  0.37771  1.0000
  H   H302      1.0  0.12020  0.32961  0.54589  1.0000
  H   H303      1.0  0.00828  0.35956  0.55676  1.0000
  C   C184      1.0  0.11454  0.36165  0.60676  1.0000
  H   H304      1.0  0.26539  0.47771  0.33520  1.0000
  H   H305      1.0  0.02560  0.33353  0.53997  1.0000
  H   H306      1.0  0.31346  0.32017  0.63874  1.0000
  Fe  Fe45      1.0  0.21011  0.37277  0.41312  1.0000
  S   S76       1.0  0.21951  0.34893  0.39632  1.0000
  S   S77       1.0  0.20434  0.40467  0.40085  1.0000
  Fe  Fe46      1.0  0.20498  0.34464  0.45113  1.0000
  S   S78       1.0  0.21329  0.31876  0.43693  1.0000
  S   S79       1.0  0.19427  0.34028  0.48286  1.0000
  Fe  Fe47      1.0  0.23696  0.33376  0.41899  1.0000
  S   S80       1.0  0.26857  0.31973  0.41404  1.0000
  Fe  Fe48      1.0  0.19502  0.33622  0.41585  1.0000
  S   S81       1.0  0.17413  0.32658  0.40250  1.0000
  S   S82       1.0  0.22965  0.35887  0.43441  1.0000
  S   S83       1.0  0.18468  0.36073  0.43144  1.0000
  C   C185      1.0  0.29102  0.25682  0.40803  1.0000
  C   C186      1.0  0.27107  0.26399  0.41022  1.0000
  C   C187      1.0  0.26394  0.28331  0.41192  1.0000
  C   C188      1.0  0.27675  0.29567  0.41097  1.0000
  C   C189      1.0  0.29669  0.28863  0.40821  1.0000
  C   C190      1.0  0.30378  0.26927  0.40695  1.0000
  H   H307      1.0  0.26113  0.25446  0.41094  1.0000
  H   H308      1.0  0.24861  0.28873  0.41401  1.0000
  H   H309      1.0  0.30669  0.29813  0.40737  1.0000
  H   H310      1.0  0.31912  0.26405  0.40513  1.0000
  S   S84       1.0  0.34269  0.23533  0.42910  1.0000
  C   C191      1.0  0.20580  0.41374  0.37626  1.0000
  C   C192      1.0  0.19970  0.43341  0.37028  1.0000
  C   C193      1.0  0.03858  0.42018  0.61853  1.0000
  H   H311      1.0  0.19368  0.44256  0.38074  1.0000
  C   C194      1.0  0.23343  0.47183  0.35892  1.0000
  C   C195      1.0  0.15885  0.46924  0.32707  1.0000
  C   C196      1.0  0.14803  0.36193  0.60764  1.0000
  H   H312      1.0  0.18823  0.44954  0.63463  1.0000
  H   H313      1.0  0.21139  0.24369  0.42874  1.0000
  S   S85       1.0  0.25198  0.36000  0.58638  1.0000
  H   H314      1.0  0.33533  0.30342  0.33926  1.0000
  H   H315      1.0  0.29804  0.31953  0.50492  1.0000
  H   H316      1.0  0.22122  0.27365  0.41887  1.0000
  C   C197      1.0  0.11210  0.32431  0.43343  1.0000
  C   C198      1.0  0.12697  0.32172  0.44387  1.0000
  C   C199      1.0  0.14595  0.32330  0.43455  1.0000
  C   C200      1.0  0.15024  0.32667  0.41473  1.0000
  C   C201      1.0  0.13537  0.32923  0.40434  1.0000
  C   C202      1.0  0.11629  0.32846  0.41365  1.0000
  H   H317      1.0  0.12377  0.31857  0.45919  1.0000
  H   H318      1.0  0.15731  0.32142  0.44270  1.0000
  H   H319      1.0  0.13859  0.33177  0.38901  1.0000
  H   H320      1.0  0.10492  0.33037  0.40550  1.0000
  C   C203      1.0  0.06893  0.42578  0.38327  1.0000
  C   C204      1.0  0.05440  0.43286  0.39728  1.0000
  C   C205      1.0  0.04558  0.45218  0.39436  1.0000
  C   C206      1.0  0.05104  0.46429  0.37730  1.0000
  C   C207      1.0  0.06590  0.45725  0.36350  1.0000
  C   C208      1.0  0.07492  0.43804  0.36657  1.0000
  H   H321      1.0  0.04996  0.42351  0.41037  1.0000
  H   H322      1.0  0.28023  0.28176  0.54188  1.0000
  H   H323      1.0  0.37961  0.27571  0.35559  1.0000
  H   H324      1.0  0.08621  0.43250  0.35587  1.0000
  H   H325      1.0  0.14174  0.34924  0.52655  1.0000
  H   H326      1.0  0.05886  0.41693  0.59274  1.0000
  C   C209      1.0  0.15795  0.42939  0.32479  1.0000
  C   C210      1.0  0.12359  0.43742  0.32346  1.0000
  H   H327      1.0  0.99604  0.34019  0.43875  1.0000
  H   H328      1.0  0.12786  0.39345  0.51721  1.0000
  H   H329      1.0  0.31922  0.26892  0.55572  1.0000
  H   H330      1.0  0.05487  0.39108  0.33735  1.0000
  C   C211      1.0  0.13123  0.44674  0.62069  1.0000
  C   C212      1.0  0.05495  0.42374  0.60505  1.0000
  H   H331      1.0  0.30552  0.25319  0.45839  1.0000
  H   H332      1.0  0.28247  0.30364  0.51736  1.0000
  H   H333      1.0  0.18540  0.42944  0.59351  1.0000
  C   C213      1.0  0.29375  0.26882  0.61609  1.0000
  H   H334      1.0  0.20693  0.29420  0.40753  1.0000
  S   S86       1.0  0.02560  0.40284  0.61716  1.0000
  H   H335      1.0  0.17695  0.44826  0.60639  1.0000
  H   H336      1.0  0.26700  0.32819  0.55828  1.0000
  H   H337      1.0  0.12579  0.41185  0.55027  1.0000
  H   H338      1.0  0.14810  0.35819  0.56649  1.0000
  C   C214      1.0  0.22944  0.35259  0.52281  1.0000
  C   C215      1.0  0.21210  0.34571  0.53005  1.0000
  C   C216      1.0  0.20169  0.34154  0.51767  1.0000
  C   C217      1.0  0.20836  0.34451  0.49802  1.0000
  C   C218      1.0  0.22589  0.35100  0.49086  1.0000
  C   C219      1.0  0.23644  0.35491  0.50324  1.0000
  H   H339      1.0  0.20675  0.34360  0.54515  1.0000
  H   H340      1.0  0.18834  0.33615  0.52329  1.0000
  H   H341      1.0  0.23122  0.35326  0.47577  1.0000
  H   H342      1.0  0.24988  0.36017  0.49757  1.0000
  C   C220      1.0  0.05779  0.38854  0.51338  1.0000
  C   C221      1.0  0.03831  0.38726  0.52007  1.0000
  C   C222      1.0  0.02595  0.38841  0.50733  1.0000
  C   C223      1.0  0.03317  0.39025  0.48790  1.0000
  C   C224      1.0  0.05243  0.39239  0.48114  1.0000
  C   C225      1.0  0.06473  0.39157  0.49387  1.0000
  H   H343      1.0  0.03276  0.38522  0.53502  1.0000
  H   H344      1.0  0.01095  0.38716  0.51261  1.0000
  H   H345      1.0  0.05781  0.39481  0.46613  1.0000
  H   H346      1.0  0.07970  0.39289  0.48861  1.0000
  C   C226      1.0  0.28475  0.28634  0.62191  1.0000
  H   H347      1.0  0.27496  0.32893  0.51790  1.0000
  H   H348      1.0  0.26440  0.31787  0.46332  1.0000
  S   S87       1.0  0.10148  0.33015  0.60263  1.0000
  S   S88       1.0  0.21298  0.43941  0.31268  1.0000
  H   H349      1.0  0.12351  0.46168  0.61726  1.0000
  H   H350      1.0  0.17227  0.46363  0.31798  1.0000
  H   H351      1.0  0.10762  0.34728  0.55963  1.0000
  H   H352      1.0  0.35993  0.29630  0.34047  1.0000
  H   H353      1.0  0.01994  0.35264  0.50922  1.0000
  C   C227      1.0  0.02301  0.33894  0.50378  1.0000
  C   C228      1.0  0.12969  0.35715  0.53572  1.0000
  H   H354      1.0  0.15365  0.45775  0.62758  1.0000
  N   N12       1.0  0.13621  0.37318  0.54156  1.0000
  H   H355      1.0  0.18520  0.26557  0.39068  1.0000
  C   C229      1.0  0.11936  0.38250  0.55458  1.0000
  C   C230      1.0  0.15319  0.36480  0.55160  1.0000
  C   C231      1.0  0.01133  0.44576  0.36312  1.0000
  S   S89       1.0  0.21075  0.38550  0.57874  1.0000
  H   H356      1.0  0.26995  0.44335  0.38127  1.0000
  H   H357      1.0  0.24209  0.29232  0.60661  1.0000
  H   H358      1.0  0.13216  0.33583  0.56212  1.0000
  H   H359      1.0  0.13258  0.47542  0.31540  1.0000
  H   H360      1.0  0.16251  0.35287  0.54484  1.0000
  C   C232      1.0  0.38702  0.25866  0.32690  1.0000
  C   C233      1.0  0.16688  0.37846  0.55216  1.0000
  C   C234      1.0  0.15295  0.34280  0.60524  1.0000
  C   C235      1.0  0.12885  0.37132  0.60838  1.0000
  H   H361      1.0  0.13300  0.39584  0.57137  1.0000
  N   N13       1.0  0.01797  0.41046  0.35827  1.0000
  C   C236      1.0  0.30966  0.27143  0.54507  1.0000
  H   H362      1.0  0.01782  0.31318  0.53623  1.0000
  H   H363      1.0  0.99486  0.33420  0.52102  1.0000
  H   H364      1.0  0.29410  0.45531  0.36155  1.0000
  H   H365      1.0  0.25698  0.37696  0.63098  1.0000
  H   H366      1.0  0.19646  0.25573  0.45613  1.0000
  H   H367      1.0  0.22852  0.25861  0.39009  1.0000
  C   C237      1.0  0.21507  0.41000  0.34318  1.0000
  H   H368      1.0  0.34074  0.24753  0.38251  1.0000
  H   H369      1.0  0.26174  0.28882  0.45440  1.0000
  H   H370      1.0  0.13890  0.44233  0.60709  1.0000
  H   H371      1.0  0.19703  0.45658  0.34646  1.0000
  H   H372      1.0  0.22113  0.40085  0.33272  1.0000
  H   H373      1.0  0.99804  0.34809  0.63759  1.0000
  C   C238      1.0  0.26850  0.31231  0.56099  1.0000
  Fe  Fe49      1.0  0.23592  0.33957  0.60808  1.0000
  H   H374      1.0  0.29602  0.33006  0.53728  1.0000
  H   H375      1.0  0.14538  0.40007  0.52673  1.0000
  H   H376      1.0  0.22605  0.44577  0.39032  1.0000
  H   H377      1.0  0.17018  0.37184  0.51398  1.0000
  C   C239      1.0  0.06133  0.44507  0.62350  1.0000
  C   C240      1.0  0.25651  0.28589  0.60918  1.0000
  C   C241      1.0  0.22221  0.27399  0.38954  1.0000
  C   C242      1.0  0.29954  0.32138  0.57556  1.0000
  C   C243      1.0  0.20962  0.42978  0.33722  1.0000
  H   H378      1.0  0.05966  0.29987  0.50716  1.0000
  C   C244      1.0  0.27022  0.36586  0.62968  1.0000
  H   H379      1.0  0.15116  0.43541  0.35408  1.0000
  H   H380      1.0  0.05593  0.31402  0.54816  1.0000
  N   N14       1.0  0.12814  0.39396  0.41445  1.0000
  C   C245      1.0  0.13025  0.37426  0.42664  1.0000
  C   C246      1.0  0.12870  0.39102  0.39457  1.0000
  C   C247      1.0  0.10858  0.40489  0.42162  1.0000
  C   C248      1.0  0.14418  0.40371  0.41597  1.0000
  C   C249      1.0  0.12843  0.37345  0.44814  1.0000
  C   C250      1.0  0.14794  0.38016  0.38506  1.0000
  C   C251      1.0  0.10336  0.42578  0.41176  1.0000
  C   C252      1.0  0.14911  0.42060  0.39995  1.0000
  H   H381      1.0  0.11939  0.36614  0.42485  1.0000
  H   H382      1.0  0.14460  0.36563  0.42219  1.0000
  H   H383      1.0  0.12514  0.40464  0.38486  1.0000
  H   H384      1.0  0.11723  0.38285  0.39444  1.0000
  H   H385      1.0  0.09701  0.39723  0.42075  1.0000
  H   H386      1.0  0.10705  0.40581  0.43680  1.0000
  H   H387      1.0  0.14098  0.40907  0.42964  1.0000
  H   H388      1.0  0.15786  0.39318  0.41638  1.0000
  H   H389      1.0  0.13777  0.38219  0.45144  1.0000
  H   H390      1.0  0.11320  0.37759  0.45496  1.0000
  H   H391      1.0  0.13315  0.35841  0.45486  1.0000
  H   H392      1.0  0.14728  0.38054  0.37000  1.0000
  H   H393      1.0  0.16061  0.38645  0.38530  1.0000
  H   H394      1.0  0.15038  0.36484  0.39159  1.0000
  H   H395      1.0  0.11234  0.43508  0.41475  1.0000
  H   H396      1.0  0.08815  0.43141  0.41766  1.0000
  H   H397      1.0  0.10403  0.42725  0.39633  1.0000
  H   H398      1.0  0.15081  0.43260  0.40632  1.0000
  H   H399      1.0  0.13835  0.42644  0.39059  1.0000
  H   H400      1.0  0.16336  0.41641  0.39109  1.0000
  C   C253      1.0  0.19931  0.24783  0.42055  1.0000
  H   H401      1.0  0.99487  0.34109  0.49619  1.0000
  H   H402      1.0  0.15509  0.26099  0.41697  1.0000
  C   C254      1.0  0.18321  0.43288  0.60795  1.0000
  H   H403      1.0  0.16856  0.27294  0.43992  1.0000
  H   H404      1.0  0.19761  0.43048  0.61212  1.0000
  H   H405      1.0  0.25410  0.43186  0.32587  1.0000
  H   H406      1.0  0.32394  0.27484  0.44212  1.0000
  H   H407      1.0  0.38380  0.25286  0.36921  1.0000
  H   H408      1.0  0.29686  0.30385  0.46471  1.0000
  C   C255      1.0  0.37015  0.24903  0.33894  1.0000
  H   H409      1.0  0.38267  0.27416  0.32198  1.0000
  C   C256      1.0  0.26820  0.47099  0.34972  1.0000
  H   H410      1.0  0.05277  0.31913  0.47435  1.0000
  H   H411      1.0  0.12509  0.38618  0.61004  1.0000
  H   H412      1.0  0.23267  0.47890  0.34401  1.0000
  C   C257      1.0  0.00344  0.33218  0.50687  1.0000
  H   H413      1.0  0.16076  0.46552  0.34211  1.0000
  C   C258      1.0  0.29705  0.31506  0.53537  1.0000
  S   S90       1.0  0.01260  0.32953  0.58957  1.0000
  C   C259      1.0  0.37199  0.26470  0.36531  1.0000
  H   H414      1.0  0.07484  0.32914  0.48469  1.0000
  C   C260      1.0  0.19391  0.27144  0.45116  1.0000
  H   H415      1.0  0.17152  0.37479  0.56621  1.0000
  S   S91       1.0  0.00687  0.35686  0.39911  1.0000
  H   H416      1.0  0.26777  0.48327  0.35674  1.0000
  H   H417      1.0  0.03415  0.45764  0.40509  1.0000
  H   H418      1.0  0.01291  0.45156  0.34777  1.0000
  H   H419      1.0  0.09979  0.36899  0.60746  1.0000
  C   C261      1.0  0.27872  0.24379  0.46858  1.0000
  C   C262      1.0  0.03316  0.42963  0.63408  1.0000
  S   S92       1.0  0.37329  0.23633  0.63716  1.0000
  H   H420      1.0  0.32582  0.27493  0.46636  1.0000
  H   H421      1.0  0.30012  0.37045  0.61446  1.0000
  H   H422      1.0  0.32834  0.29572  0.44838  1.0000
  S   S93       1.0  0.21606  0.36303  0.62191  1.0000
  H   H423      1.0  0.11525  0.37214  0.56758  1.0000
  H   H424      1.0  0.18111  0.28966  0.39385  1.0000
  C   C263      1.0  0.21073  0.27830  0.40896  1.0000
  C   C264      1.0  0.04461  0.30675  0.54618  1.0000
  C   C265      1.0  0.36246  0.27322  0.38330  1.0000
  H   H425      1.0  0.10835  0.40558  0.57056  1.0000
  C   C266      1.0  0.04458  0.30834  0.48351  1.0000
  S   S94       1.0  0.34948  0.24470  0.59020  1.0000
  H   H426      1.0  0.03545  0.29605  0.51232  1.0000
  H   H427      1.0  0.05633  0.35042  0.48139  1.0000
  N   N15       1.0  0.14245  0.44489  0.31727  1.0000
  C   C267      1.0  0.12219  0.39993  0.56184  1.0000
  H   H428      1.0  0.16842  0.41421  0.35062  1.0000
  H   H429      1.0  0.16139  0.39176  0.49727  1.0000
  Fe  Fe50      1.0  0.19695  0.36384  0.60120  1.0000
  H   H430      1.0  0.26595  0.35402  0.62494  1.0000
  H   H431      1.0  0.04529  0.42866  0.33309  1.0000
  H   H432      1.0  0.00079  0.37577  0.61136  1.0000
  S   S95       1.0  0.99441  0.46913  0.31490  1.0000
  H   H433      1.0  0.33338  0.26756  0.34289  1.0000
  H   H434      1.0  0.32456  0.24038  0.35880  1.0000
  H   H435      1.0  0.23454  0.28192  0.38542  1.0000
  C   C268      1.0  0.12207  0.34174  0.55196  1.0000
  H   H436      1.0  0.99782  0.40147  0.38363  1.0000
  S   S96       1.0  0.29529  0.23848  0.59816  1.0000
  H   H437      1.0  0.35776  0.26207  0.39526  1.0000
  H   H438      1.0  0.03633  0.30252  0.56058  1.0000
  H   H439      1.0  0.25019  0.29216  0.55919  1.0000
  H   H440      1.0  0.18039  0.37611  0.54167  1.0000
  S   S97       1.0  0.23921  0.40972  0.60467  1.0000
  H   H441      1.0  0.07647  0.35055  0.49173  1.0000
  H   H442      1.0  0.24704  0.44070  0.61899  1.0000
  C   C269      1.0  0.25194  0.30728  0.55365  1.0000
  N   N16       1.0  0.28589  0.27725  0.46918  1.0000
  C   C270      1.0  0.15485  0.42310  0.34651  1.0000
  C   C271      1.0  0.26512  0.28675  0.46894  1.0000
  C   C272      1.0  0.29009  0.26012  0.45941  1.0000
  C   C273      1.0  0.29080  0.27155  0.48889  1.0000
  H   H443      1.0  0.13078  0.46243  0.33888  1.0000
  C   C274      1.0  0.25936  0.30658  0.47505  1.0000
  H   H444      1.0  0.14348  0.41408  0.35141  1.0000
  C   C275      1.0  0.27463  0.26556  0.50528  1.0000
  C   C276      1.0  0.29847  0.29136  0.45759  1.0000
  H   H445      1.0  0.15125  0.27746  0.39575  1.0000
  H   H446      1.0  0.25493  0.27762  0.47799  1.0000
  C   C277      1.0  0.01782  0.41680  0.33733  1.0000
  H   H447      1.0  0.28747  0.26472  0.44463  1.0000
  H   H448      1.0  0.26289  0.24864  0.47097  1.0000
  H   H449      1.0  0.30332  0.25955  0.48931  1.0000
  H   H450      1.0  0.28098  0.25953  0.51829  1.0000
  H   H451      1.0  0.39920  0.25620  0.33475  1.0000
  H   H452      1.0  0.26509  0.30696  0.48781  1.0000
  H   H453      1.0  0.24202  0.43416  0.35879  1.0000
  C   C278      1.0  0.23991  0.43150  0.63083  1.0000
  H   H454      1.0  0.21345  0.27898  0.37812  1.0000
  H   H455      1.0  0.26741  0.43122  0.35438  1.0000
  H   H456      1.0  0.20774  0.27685  0.44793  1.0000
  S   S98       1.0  0.04482  0.47500  0.32289  1.0000
  H   H457      1.0  0.24051  0.45528  0.32691  1.0000
  H   H458      1.0  0.24523  0.42561  0.39287  1.0000
  C   C279      1.0  0.30643  0.33539  0.63547  1.0000
  H   H459      1.0  0.24335  0.31040  0.47826  1.0000
  C   C280      1.0  0.14020  0.46330  0.32465  1.0000
  H   H460      1.0  0.11803  0.36299  0.52707  1.0000
  C   C281      1.0  0.32036  0.28354  0.45355  1.0000
  Fe  Fe51      1.0  0.23076  0.38334  0.59899  1.0000
  C   C282      1.0  0.28414  0.25982  0.60677  1.0000
  C   C283      1.0  0.18290  0.27714  0.43433  1.0000
  C   C284      1.0  0.18014  0.27486  0.40167  1.0000
  H   H461      1.0  0.02958  0.43995  0.31675  1.0000
  H   H462      1.0  0.99713  0.37844  0.36215  1.0000
  H   H463      1.0  0.17977  0.29306  0.43108  1.0000
  Fe  Fe52      1.0  0.23033  0.35992  0.56847  1.0000
  H   H464      1.0  0.30327  0.33754  0.62093  1.0000
  H   H465      1.0  0.03828  0.42656  0.36331  1.0000
  N   N17       1.0  0.19291  0.26923  0.41662  1.0000
  H   H466      1.0  0.21793  0.38682  0.36700  1.0000
  H   H467      1.0  0.01706  0.40445  0.33091  1.0000
  N   N18       1.0  0.35877  0.25760  0.35594  1.0000
  C   C285      1.0  0.20161  0.44140  0.35086  1.0000
  C   C286      1.0  0.21325  0.40200  0.36262  1.0000
  H   H468      1.0  0.30273  0.33352  0.56408  1.0000
  C   C287      1.0  0.26625  0.29507  0.61819  1.0000
  C   C288      1.0  0.02287  0.42527  0.36731  1.0000
  H   H469      1.0  0.16066  0.39384  0.55020  1.0000
  C   C289      1.0  0.15707  0.37962  0.50832  1.0000
  H   H470      1.0  0.28092  0.39078  0.61082  1.0000
  H   H471      1.0  0.26777  0.25435  0.50265  1.0000
  N   N19       1.0  0.03860  0.32505  0.51291  1.0000
  C   C290      1.0  0.06607  0.34152  0.49094  1.0000
  H   H472      1.0  0.35064  0.28965  0.32217  1.0000
  H   H473      1.0  0.05094  0.34777  0.51816  1.0000
  H   H474      1.0  0.31287  0.31026  0.53117  1.0000
  C   C291      1.0  0.06628  0.43627  0.60749  1.0000
  H   H475      1.0  0.31690  0.29829  0.56235  1.0000
  H   H476      1.0  0.15201  0.37018  0.50104  1.0000
  C   C292      1.0  0.30131  0.30258  0.56810  1.0000
  C   C293      1.0  0.04479  0.30677  0.50481  1.0000
  C   C294      1.0  0.03066  0.32023  0.53380  1.0000
  C   C295      1.0  0.05554  0.33496  0.51111  1.0000
  C   C296      1.0  0.28735  0.31682  0.51811  1.0000
  H   H477      1.0  0.01704  0.45544  0.36955  1.0000
  S   S99       1.0  0.07659  0.45913  0.62746  1.0000
  H   H478      1.0  0.02082  0.42080  0.38301  1.0000
  N   N20       1.0  0.28890  0.30320  0.55366  1.0000
  H   H479      1.0  0.06160  0.37767  0.35891  1.0000
  H   H480      1.0  0.00440  0.42728  0.33495  1.0000
  S   S100      1.0  0.21516  0.33803  0.58952  1.0000
  H   H481      1.0  0.28513  0.32530  0.58421  1.0000
  C   C297      1.0  0.13853  0.33303  0.60385  1.0000
  C   C298      1.0  0.11932  0.34248  0.60453  1.0000
  H   H482      1.0  0.37339  0.27914  0.38791  1.0000
  H   H483      1.0  0.10640  0.38707  0.54757  1.0000
  H   H484      1.0  0.05134  0.29341  0.54055  1.0000
  S   S101      1.0  0.04519  0.35113  0.61109  1.0000
  H   H485      1.0  0.29798  0.29149  0.58074  1.0000
  C   C299      1.0  0.15832  0.27476  0.40837  1.0000
  H   H486      1.0  0.25659  0.46498  0.38722  1.0000
  H   H487      1.0  0.11988  0.43798  0.62740  1.0000
  H   H488      1.0  0.25783  0.26129  0.59653  1.0000
  N   N21       1.0  0.15803  0.42713  0.63903  1.0000
  H   H489      1.0  0.16121  0.41528  0.61336  1.0000
  H   H490      1.0  0.02766  0.34298  0.48828  1.0000
  H   H491      1.0  0.31019  0.31918  0.58513  1.0000
  H   H492      1.0  0.30796  0.25702  0.54348  1.0000
  C   C300      1.0  0.14100  0.38744  0.52378  1.0000
  H   H493      1.0  0.18495  0.27804  0.46323  1.0000
  H   H494      1.0  0.29226  0.29322  0.62912  1.0000
  H   H495      1.0  0.22494  0.48203  0.38631  1.0000
  H   H496      1.0  0.06697  0.32551  0.51850  1.0000
  C   C301      1.0  0.03505  0.42595  0.32512  1.0000
  H   H497      1.0  0.03143  0.38743  0.37781  1.0000
  H   H498      1.0  0.14226  0.31816  0.60220  1.0000
  H   H499      1.0  0.05145  0.29438  0.47912  1.0000
  S   S102      1.0  0.16523  0.37457  0.61026  1.0000
  H   H500      1.0  0.29582  0.28335  0.49298  1.0000
  H   H501      1.0  0.12505  0.42321  0.31927  1.0000
  H   H502      1.0  0.39284  0.25185  0.31415  1.0000
  H   H503      1.0  0.25354  0.31028  0.53806  1.0000
  H   H504      1.0  0.20578  0.24239  0.40711  1.0000
  H   H505      1.0  0.07046  0.46667  0.35051  1.0000
  C   C302      1.0  0.10588  0.45047  0.31593  1.0000
  H   H506      1.0  0.07906  0.43886  0.59717  1.0000
  H   H507      1.0  0.26330  0.27798  0.50848  1.0000
  N   N22       1.0  0.25290  0.45935  0.36026  1.0000
  C   C303      1.0  0.25422  0.44185  0.35175  1.0000
  C   C304      1.0  0.17017  0.41975  0.62173  1.0000
  C   C305      1.0  0.05299  0.39126  0.35269  1.0000
  C   C306      1.0  0.23400  0.41535  0.62773  1.0000
  C   C307      1.0  0.28475  0.37490  0.61318  1.0000
  H   H508      1.0  0.16774  0.33546  0.60477  1.0000
  H   H509      1.0  0.28346  0.27454  0.56556  1.0000
  C   C308      1.0  0.99392  0.33819  0.57637  1.0000
  H   H510      1.0  0.99583  0.44679  0.36945  1.0000
  H   H511      1.0  0.22171  0.46324  0.36282  1.0000
  H   H512      1.0  0.30814  0.26233  0.61875  1.0000
  C   C309      1.0  0.03169  0.39183  0.36228  1.0000
  C   C310      1.0  0.34232  0.27306  0.35046  1.0000
  C   C311      1.0  0.24080  0.44111  0.39361  1.0000
  H   H513      1.0  0.26499  0.30827  0.57662  1.0000
  C   C312      1.0  0.34765  0.29144  0.33724  1.0000
  H   H514      1.0  0.00508  0.31699  0.50549  1.0000
  H   H515      1.0  0.36047  0.24845  0.32916  1.0000
  H   H516      1.0  0.11942  0.43503  0.33916  1.0000
  H   H517      1.0  0.02970  0.31153  0.48042  1.0000
  H   H518      1.0  0.28338  0.37086  0.59982  1.0000
  C   C313      1.0  0.25571  0.45284  0.38055  1.0000
  H   H519      1.0  0.23948  0.44306  0.40847  1.0000
  C   C314      1.0  0.28925  0.46018  0.34768  1.0000
  H   H520      1.0  0.10346  0.46511  0.31920  1.0000
  C   C315      1.0  0.35026  0.24188  0.37015  1.0000
  H   H521      1.0  0.17241  0.43348  0.32052  1.0000
  H   H522      1.0  0.33184  0.27715  0.36311  1.0000
  C   C316      1.0  0.99556  0.35295  0.56070  1.0000
  H   H523      1.0  0.04335  0.41682  0.31471  1.0000
  H   H524      1.0  0.15138  0.28656  0.41635  1.0000
  H   H525      1.0  0.29383  0.29750  0.44368  1.0000
  C   C317      1.0  0.99797  0.40704  0.36820  1.0000
  H   H526      1.0  0.35024  0.28508  0.38083  1.0000
  H   H527      1.0  0.28369  0.23583  0.48185  1.0000
  C   C318      1.0  0.18362  0.23568  0.43043  1.0000
  H   H528      1.0  0.09268  0.44437  0.32280  1.0000
  H   H529      1.0  0.18013  0.40625  0.62595  1.0000
  H   H530      1.0  0.07115  0.37221  0.63373  1.0000
  H   H531      1.0  0.29884  0.47017  0.33902  1.0000
  C   C319      1.0  0.04465  0.44187  0.63667  1.0000
  H   H532      1.0  0.26664  0.45151  0.32173  1.0000
  H   H533      1.0  0.10372  0.38946  0.63984  1.0000
  H   H534      1.0  0.06902  0.40290  0.63846  1.0000
  H   H535      1.0  0.31705  0.34420  0.63602  1.0000
  H   H536      1.0  0.29156  0.44793  0.34018  1.0000
  C   C320      1.0  0.25389  0.44562  0.33034  1.0000
  H   H537      1.0  0.15947  0.41635  0.31849  1.0000
  H   H538      1.0  0.44430  0.23351  0.34451  1.0000
  H   H539      1.0  0.37687  0.23388  0.34341  1.0000
  C   C321      1.0  0.46138  0.30196  0.73947  1.0000
  C   C322      1.0  0.04540  0.38149  0.66479  1.0000
  C   C323      1.0  0.43174  0.26321  0.79963  1.0000
  S   S103      1.0  0.25917  0.45493  0.75219  1.0000
  Fe  Fe53      1.0  0.09354  0.45874  0.68907  1.0000
  H   H540      1.0  0.25141  0.32995  0.66864  1.0000
  S   S104      1.0  0.12504  0.44931  0.69188  1.0000
  C   C324      1.0  0.39465  0.38819  0.77815  1.0000
  H   H541      1.0  0.18948  0.39326  0.74106  1.0000
  Fe  Fe54      1.0  0.07060  0.46292  0.65780  1.0000
  C   C325      1.0  0.35409  0.46963  0.89314  1.0000
  S   S105      1.0  0.46241  0.27768  0.71510  1.0000
  S   S106      1.0  0.08184  0.43766  0.67822  1.0000
  H   H542      1.0  0.13386  0.41889  0.66040  1.0000
  H   H543      1.0  0.05459  0.34608  0.65261  1.0000
  H   H544      1.0  0.15115  0.42539  0.72154  1.0000
  H   H545      1.0  0.07858  0.33683  0.64264  1.0000
  C   C326      1.0  0.24524  0.34514  0.66380  1.0000
  C   C327      1.0  0.43100  0.35788  0.77523  1.0000
  H   H546      1.0  0.34795  0.44485  0.96004  1.0000
  N   N23       1.0  0.42302  0.36904  0.75791  1.0000
  C   C328      1.0  0.40184  0.23499  0.65705  1.0000
  C   C329      1.0  0.01410  0.42051  0.71580  1.0000
  H   H547      1.0  0.16186  0.39413  0.66991  1.0000
  H   H548      1.0  0.46217  0.41887  0.94024  1.0000
  C   C330      1.0  0.41828  0.25369  0.74638  1.0000
  H   H549      1.0  0.15558  0.46877  0.76418  1.0000
  N   N24       1.0  0.27659  0.35895  0.64868  1.0000
  C   C331      1.0  0.28857  0.37172  0.65297  1.0000
  C   C332      1.0  0.41507  0.36416  0.87398  1.0000
  H   H550      1.0  0.14919  0.40388  0.73814  1.0000
  C   C333      1.0  0.48995  0.45995  0.94155  1.0000
  Fe  Fe55      1.0  0.47081  0.36549  0.79952  1.0000
  S   S107      1.0  0.45454  0.34309  0.81786  1.0000
  S   S108      1.0  0.45601  0.39494  0.78728  1.0000
  H   H551      1.0  0.16853  0.45943  0.65171  1.0000
  S   S109      1.0  0.46635  0.33983  0.86789  1.0000
  H   H552      1.0  0.06709  0.35854  0.68784  1.0000
  H   H553      1.0  0.46270  0.37283  0.75389  1.0000
  H   H554      1.0  0.42566  0.35781  0.86263  1.0000
  H   H555      1.0  0.21991  0.39132  0.64096  1.0000
  H   H556      1.0  0.18399  0.46652  0.70044  1.0000
  C   C334      1.0  0.00541  0.47577  0.71968  1.0000
  H   H557      1.0  0.23154  0.34851  0.67378  1.0000
  C   C335      1.0  0.47833  0.34320  0.89992  1.0000
  H   H558      1.0  0.37895  0.45206  0.90378  1.0000
  S   S110      1.0  0.48904  0.24335  0.67857  1.0000
  Fe  Fe56      1.0  0.23037  0.45426  0.69577  1.0000
  S   S111      1.0  0.22552  0.42711  0.68819  1.0000
  C   C336      1.0  0.43576  0.24156  0.75492  1.0000
  S   S112      1.0  0.21637  0.45653  0.72583  1.0000
  Fe  Fe57      1.0  0.35732  0.45957  0.82364  1.0000
  S   S113      1.0  0.32564  0.46535  0.83666  1.0000
  S   S114      1.0  0.37173  0.42828  0.82698  1.0000
  H   H559      1.0  0.41036  0.35187  0.88457  1.0000
  H   H560      1.0  0.09731  0.41354  0.64366  1.0000
  H   H561      1.0  0.04038  0.38647  0.65095  1.0000
  H   H562      1.0  0.43662  0.41779  0.83417  1.0000
  H   H563      1.0  0.27478  0.45871  0.97326  1.0000
  H   H564      1.0  0.15055  0.45537  0.73763  1.0000
  Fe  Fe58      1.0  0.05406  0.44550  0.69774  1.0000
  C   C337      1.0  0.49222  0.34328  0.91078  1.0000
  H   H565      1.0  0.42185  0.33346  0.73230  1.0000
  H   H566      1.0  0.42936  0.32828  0.78923  1.0000
  C   C338      1.0  0.13766  0.46462  0.69827  1.0000
  H   H567      1.0  0.24188  0.44795  0.65155  1.0000
  H   H568      1.0  0.14490  0.40613  0.79604  1.0000
  C   C339      1.0  0.18856  0.40599  0.72967  1.0000
  Fe  Fe59      1.0  0.47041  0.24814  0.70670  1.0000
  H   H569      1.0  0.39656  0.38536  0.74907  1.0000
  C   C340      1.0  0.43277  0.40438  0.79865  1.0000
  C   C341      1.0  0.42161  0.39263  0.81221  1.0000
  C   C342      1.0  0.40290  0.40020  0.82056  1.0000
  C   C343      1.0  0.39527  0.41969  0.81578  1.0000
  C   C344      1.0  0.40645  0.43156  0.80234  1.0000
  C   C345      1.0  0.42509  0.42386  0.79367  1.0000
  H   H570      1.0  0.42722  0.37763  0.81613  1.0000
  H   H571      1.0  0.39426  0.39091  0.83083  1.0000
  H   H572      1.0  0.40067  0.44661  0.79852  1.0000
  H   H573      1.0  0.43362  0.43307  0.78315  1.0000
  C   C346      1.0  0.46335  0.30645  0.75666  1.0000
  H   H574      1.0  0.01790  0.39618  0.67785  1.0000
  C   C347      1.0  0.17053  0.42850  0.65268  1.0000
  C   C348      1.0  0.47763  0.26955  0.74830  1.0000
  H   H575      1.0  0.45821  0.37705  0.72975  1.0000
  C   C349      1.0  0.07544  0.36580  0.64780  1.0000
  H   H576      1.0  0.09149  0.36331  0.64524  1.0000
  H   H577      1.0  0.40145  0.34402  0.74716  1.0000
  H   H578      1.0  0.43225  0.36781  0.78437  1.0000
  H   H579      1.0  0.47952  0.46797  0.93217  1.0000
  C   C350      1.0  0.47172  0.29228  0.77011  1.0000
  H   H580      1.0  0.18107  0.40371  0.71881  1.0000
  S   S115      1.0  0.04176  0.46918  0.67642  1.0000
  H   H581      1.0  0.13183  0.42517  0.78234  1.0000
  H   H582      1.0  0.24146  0.34678  0.64964  1.0000
  H   H583      1.0  0.01315  0.39988  0.74167  1.0000
  Fe  Fe60      1.0  0.37954  0.47847  0.96251  1.0000
  H   H584      1.0  0.18934  0.42691  0.74597  1.0000
  S   S116      1.0  0.03808  0.42259  0.71608  1.0000
  H   H585      1.0  0.41400  0.37796  0.89718  1.0000
  S   S117      1.0  0.49084  0.34493  0.78180  1.0000
  H   H586      1.0  0.16528  0.44759  0.68960  1.0000
  H   H587      1.0  0.26311  0.35513  0.67840  1.0000
  C   C351      1.0  0.22832  0.42351  0.66467  1.0000
  C   C352      1.0  0.22203  0.40763  0.66150  1.0000
  H   H588      1.0  0.06565  0.40994  0.66039  1.0000
  H   H589      1.0  0.30648  0.46086  0.78911  1.0000
  H   H590      1.0  0.40396  0.24096  0.78806  1.0000
  H   H591      1.0  0.21518  0.39826  0.67337  1.0000
  H   H592      1.0  0.44857  0.44140  0.94483  1.0000
  C   C353      1.0  0.41738  0.34005  0.74527  1.0000
  C   C354      1.0  0.16849  0.47068  0.70207  1.0000
  H   H593      1.0  0.42301  0.25417  0.81086  1.0000
  C   C355      1.0  0.15782  0.45993  0.69585  1.0000
  H   H594      1.0  0.37864  0.39201  0.78044  1.0000
  Fe  Fe61      1.0  0.47644  0.33973  0.83661  1.0000
  H   H595      1.0  0.08698  0.38447  0.69746  1.0000
  H   H596      1.0  0.17983  0.43651  0.72485  1.0000
  H   H597      1.0  0.01066  0.43999  0.68962  1.0000
  C   C356      1.0  0.03346  0.39502  0.67828  1.0000
  C   C357      1.0  0.07451  0.37068  0.68012  1.0000
  H   H598      1.0  0.14375  0.38394  0.66431  1.0000
  C   C358      1.0  0.40155  0.37635  0.76204  1.0000
  H   H599      1.0  0.44696  0.26023  0.80185  1.0000
  H   H600      1.0  0.40215  0.37257  0.86828  1.0000
  C   C359      1.0  0.36660  0.46322  0.90635  1.0000
  C   C360      1.0  0.46124  0.48169  0.97256  1.0000
  H   H601      1.0  0.29145  0.33339  0.66442  1.0000
  C   C361      1.0  0.14116  0.41107  0.78164  1.0000
  H   H602      1.0  0.44069  0.26928  0.76942  1.0000
  H   H603      1.0  0.13277  0.40095  0.77908  1.0000
  H   H604      1.0  0.46324  0.34465  0.90639  1.0000
  S   S118      1.0  0.46975  0.29589  0.79364  1.0000
  H   H605      1.0  0.06368  0.37891  0.70811  1.0000
  C   C362      1.0  0.12474  0.42672  0.74109  1.0000
  H   H606      1.0  0.39824  0.40543  0.88075  1.0000
  C   C363      1.0  0.15997  0.41165  0.76694  1.0000
  H   H607      1.0  0.42596  0.39608  0.73882  1.0000
  H   H608      1.0  0.42617  0.27840  0.80121  1.0000
  H   H609      1.0  0.44372  0.41658  0.87649  1.0000
  H   H610      1.0  0.46467  0.23914  0.77486  1.0000
  H   H611      1.0  0.16197  0.42786  0.66733  1.0000
  C   C364      1.0  0.00526  0.40793  0.73065  1.0000
  H   H612      1.0  0.46699  0.42471  0.97025  1.0000
  C   C365      1.0  0.40972  0.42961  0.86349  1.0000
  H   H613      1.0  0.43517  0.41528  0.90952  1.0000
  H   H614      1.0  0.40530  0.40361  0.85651  1.0000
  C   C366      1.0  0.44229  0.39101  0.85441  1.0000
  H   H615      1.0  0.17137  0.41376  0.77409  1.0000
  H   H616      1.0  0.42188  0.32870  0.75696  1.0000
  S   S119      1.0  0.35374  0.48110  0.79690  1.0000
  S   S120      1.0  0.45096  0.38143  0.96750  1.0000
  H   H617      1.0  0.45282  0.39308  0.88649  1.0000
  H   H618      1.0  0.29116  0.44349  0.77214  1.0000
  H   H619      1.0  0.43755  0.36660  0.88818  1.0000
  C   C367      1.0  0.43907  0.40298  0.88403  1.0000
  Fe  Fe62      1.0  0.48309  0.37382  0.96529  1.0000
  N   N25       1.0  0.06711  0.37923  0.66186  1.0000
  C   C368      1.0  0.00376  0.43065  0.70146  1.0000
  C   C369      1.0  0.15144  0.44583  0.75149  1.0000
  H   H620      1.0  0.27120  0.39913  0.64132  1.0000
  H   H621      1.0  0.01163  0.46343  0.71219  1.0000
  N   N26       1.0  0.15896  0.42546  0.74851  1.0000
  C   C370      1.0  0.47921  0.27393  0.76568  1.0000
  Fe  Fe63      1.0  0.47614  0.32223  0.80178  1.0000
  H   H622      1.0  0.17760  0.45625  0.75321  1.0000
  C   C371      1.0  0.42761  0.40663  0.90365  1.0000
  C   C372      1.0  0.45466  0.38259  0.74328  1.0000
  C   C373      1.0  0.26990  0.46791  0.76379  1.0000
  C   C374      1.0  0.41003  0.40770  0.86834  1.0000
  H   H623      1.0  0.11771  0.42023  0.73251  1.0000
  C   C375      1.0  0.46048  0.46293  0.96630  1.0000
  H   H624      1.0  0.45428  0.31280  0.72941  1.0000
  H   H625      1.0  0.40015  0.40191  0.77474  1.0000
  H   H626      1.0  0.40435  0.25020  0.75477  1.0000
  H   H627      1.0  0.42428  0.36669  0.72875  1.0000
  H   H628      1.0  0.04062  0.44872  0.64892  1.0000
  H   H629      1.0  0.41551  0.34578  0.80280  1.0000
  C   C376      1.0  0.44884  0.40839  0.84035  1.0000
  C   C377      1.0  0.36349  0.47147  0.92261  1.0000
  S   S121      1.0  0.25752  0.46299  0.69899  1.0000
  N   N27       1.0  0.42873  0.39497  0.87244  1.0000
  H   H630      1.0  0.04060  0.36752  0.67075  1.0000
  Fe  Fe64      1.0  0.24242  0.46779  0.72814  1.0000
  H   H631      1.0  0.44611  0.35058  0.77117  1.0000
  C   C378      1.0  0.29045  0.45321  0.97304  1.0000
  S   S122      1.0  0.06680  0.46413  0.71095  1.0000
  S   S123      1.0  0.38036  0.46386  0.93803  1.0000
  H   H632      1.0  0.06587  0.39920  0.68986  1.0000
  H   H633      1.0  0.45761  0.32059  0.75989  1.0000
  C   C379      1.0  0.43048  0.26078  0.77956  1.0000
  H   H634      1.0  0.09009  0.36418  0.67710  1.0000
  H   H635      1.0  0.45930  0.40313  0.82826  1.0000
  H   H636      1.0  0.42700  0.39302  0.91392  1.0000
  H   H637      1.0  0.41586  0.26834  0.77699  1.0000
  C   C380      1.0  0.06994  0.34565  0.65323  1.0000
  C   C381      1.0  0.41978  0.34254  0.78819  1.0000
  H   H638      1.0  0.28937  0.40151  0.65349  1.0000
  H   H639      1.0  0.12100  0.44247  0.73661  1.0000
  H   H640      1.0  0.11822  0.42263  0.75607  1.0000
  C   C382      1.0  0.42762  0.35737  0.74225  1.0000
  C   C383      1.0  0.27847  0.39266  0.65363  1.0000
  H   H641      1.0  0.39298  0.36471  0.76581  1.0000
  H   H642      1.0  0.46012  0.39634  0.74036  1.0000
  C   C384      1.0  0.43265  0.38646  0.75059  1.0000
  H   H643      1.0  0.43056  0.39527  0.76177  1.0000
  H   H644      1.0  0.44333  0.35141  0.73949  1.0000
  H   H645      1.0  0.48891  0.42178  0.95388  1.0000
  C   C385      1.0  0.46351  0.43355  0.94139  1.0000
  C   C386      1.0  0.17927  0.42471  0.73733  1.0000
  H   H646      1.0  0.43564  0.38389  0.84610  1.0000
  C   C387      1.0  0.07257  0.38424  0.69440  1.0000
  H   H647      1.0  0.18970  0.44480  0.65908  1.0000
  H   H648      1.0  0.16483  0.39673  0.76425  1.0000
  H   H649      1.0  0.42395  0.43411  0.85890  1.0000
  H   H650      1.0  0.16502  0.44551  0.77596  1.0000
  H   H651      1.0  0.13640  0.44783  0.75928  1.0000
  H   H652      1.0  0.39853  0.37992  0.79174  1.0000
  C   C388      1.0  0.28561  0.45845  0.77275  1.0000
  H   H653      1.0  0.42087  0.41376  0.96327  1.0000
  H   H654      1.0  0.20364  0.40711  0.72254  1.0000
  H   H655      1.0  0.45645  0.41662  0.84656  1.0000
  H   H656      1.0  0.27882  0.32880  0.64795  1.0000
  H   H657      1.0  0.48586  0.26293  0.77595  1.0000
  H   H658      1.0  0.41277  0.41462  0.90297  1.0000
  H   H659      1.0  0.35678  0.46341  0.88046  1.0000
  H   H660      1.0  0.16553  0.38558  0.64768  1.0000
  H   H661      1.0  0.45558  0.38086  0.85775  1.0000
  C   C389      1.0  0.29425  0.46823  0.78245  1.0000
  C   C390      1.0  0.46799  0.28335  0.73545  1.0000
  H   H662      1.0  0.40155  0.43658  0.87560  1.0000
  C   C391      1.0  0.42425  0.37595  0.88378  1.0000
  C   C392      1.0  0.14678  0.41974  0.73689  1.0000
  H   H663      1.0  0.32592  0.43677  0.95980  1.0000
  H   H664      1.0  0.34565  0.42046  0.96854  1.0000
  H   H665      1.0  0.40155  0.43579  0.85168  1.0000
  H   H666      1.0  0.03509  0.38920  0.69320  1.0000
  H   H667      1.0  0.40658  0.34099  0.78373  1.0000
  C   C393      1.0  0.16330  0.45424  0.76188  1.0000
  N   N28       1.0  0.43418  0.24043  0.77597  1.0000
  C   C394      1.0  0.23702  0.43563  0.64925  1.0000
  H   H668      1.0  0.03646  0.40982  0.67424  1.0000
  H   H669      1.0  0.07325  0.33808  0.66726  1.0000
  C   C395      1.0  0.12816  0.48040  0.70680  1.0000
  H   H670      1.0  0.48325  0.25532  0.74516  1.0000
  C   C396      1.0  0.47524  0.43197  0.95717  1.0000
  H   H671      1.0  0.47072  0.44009  0.92732  1.0000
  C   C397      1.0  0.09498  0.39867  0.64991  1.0000
  C   C398      1.0  0.33756  0.43536  0.96794  1.0000
  H   H672      1.0  0.41836  0.26923  0.74489  1.0000
  H   H673      1.0  0.02038  0.42706  0.64442  1.0000
  H   H674      1.0  0.24980  0.37325  0.66345  1.0000
  H   H675      1.0  0.10047  0.39476  0.66346  1.0000
  H   H676      1.0  0.26779  0.39383  0.66689  1.0000
  C   C399      1.0  0.22472  0.40365  0.64312  1.0000
  H   H677      1.0  0.42405  0.23427  0.67300  1.0000
  H   H678      1.0  0.18256  0.41603  0.65340  1.0000
  C   C400      1.0  0.07321  0.39821  0.65268  1.0000
  C   C401      1.0  0.28772  0.33874  0.65000  1.0000
  H   H679      1.0  0.41927  0.25093  0.73187  1.0000
  H   H680      1.0  0.29763  0.46149  0.95999  1.0000
  H   H681      1.0  0.44875  0.24768  0.74706  1.0000
  H   H682      1.0  0.29326  0.36578  0.66691  1.0000
  H   H683      1.0  0.32331  0.47107  0.96099  1.0000
  H   H684      1.0  0.13635  0.45086  0.64736  1.0000
  C   C402      1.0  0.14491  0.41292  0.64897  1.0000
  C   C403      1.0  0.25891  0.35879  0.66411  1.0000
  C   C404      1.0  0.48396  0.34084  0.88092  1.0000
  C   C405      1.0  0.17965  0.44668  0.64897  1.0000
  H   H685      1.0  0.45200  0.46733  0.95460  1.0000
  S   S124      1.0  0.36602  0.47976  0.83841  1.0000
  H   H686      1.0  0.00627  0.45713  0.74777  1.0000
  C   C406      1.0  0.15487  0.39313  0.65815  1.0000
  N   N29       1.0  0.47947  0.45050  0.96020  1.0000
  H   H687      1.0  0.29338  0.43782  0.97183  1.0000
  H   H688      1.0  0.02772  0.46643  0.73710  1.0000
  C   C407      1.0  0.01171  0.47010  0.73927  1.0000
  H   H689      1.0  0.39016  0.23960  0.66799  1.0000
  H   H690      1.0  0.48777  0.34485  0.92550  1.0000
  S   S125      1.0  0.49154  0.36329  0.81919  1.0000
  H   H691      1.0  0.00749  0.48202  0.74739  1.0000
  H   H692      1.0  0.30225  0.37229  0.64275  1.0000
  H   H693      1.0  0.41627  0.48185  0.87460  1.0000
  Fe  Fe65      1.0  0.36387  0.62785  0.00416  1.0000
  C   C408      1.0  0.26926  0.50340  0.20528  1.0000
  S   S126      1.0  0.35775  0.59793  0.01485  1.0000
  Fe  Fe66      1.0  0.38794  0.65803  0.00332  1.0000
  C   C409      1.0  0.32280  0.48895  0.07666  1.0000
  S   S127      1.0  0.41471  0.66286  0.01157  1.0000
  Fe  Fe67      1.0  0.34456  0.66743  0.01054  1.0000
  S   S128      1.0  0.31956  0.68392  0.02797  1.0000
  S   S129      1.0  0.30686  0.66750  0.11774  1.0000
  H   H694      1.0  0.34799  0.51425  0.21867  1.0000
  S   S130      1.0  0.36541  0.64519  0.02540  1.0000
  H   H695      1.0  0.30992  0.50940  0.05486  1.0000
  H   H696      1.0  0.44318  0.68047  0.02040  1.0000
  S   S131      1.0  0.19998  0.48665  0.27643  1.0000
  H   H697      1.0  0.47882  0.70941  0.14297  1.0000
  H   H698      1.0  0.35717  0.53584  0.08176  1.0000
  H   H699      1.0  0.30135  0.55679  0.16464  1.0000
  H   H700      1.0  0.34025  0.71139  0.04043  1.0000
  H   H701      1.0  0.29211  0.50006  0.18105  1.0000
  S   S132      1.0  0.15684  0.52488  0.30079  1.0000
  C   C410      1.0  0.26324  0.65920  0.21856  1.0000
  C   C411      1.0  0.39231  0.53611  0.08964  1.0000
  H   H702      1.0  0.34824  0.52557  0.04651  1.0000
  C   C412      1.0  0.28806  0.49651  0.19626  1.0000
  Fe  Fe68      1.0  0.32925  0.66143  0.13658  1.0000
  S   S133      1.0  0.36116  0.65443  0.12675  1.0000
  H   H703      1.0  0.29240  0.59522  0.28564  1.0000
  H   H704      1.0  0.38622  0.69746  0.00698  1.0000
  S   S134      1.0  0.36525  0.65145  0.17124  1.0000
  Fe  Fe69      1.0  0.36010  0.63210  0.15325  1.0000
  S   S135      1.0  0.37642  0.60180  0.15441  1.0000
  S   S136      1.0  0.32790  0.63765  0.16195  1.0000
  H   H705      1.0  0.27467  0.64888  0.08483  1.0000
  H   H706      1.0  0.28668  0.65823  0.19455  1.0000
  H   H707      1.0  0.23242  0.60216  0.26861  1.0000
  H   H708      1.0  0.46726  0.72673  0.07852  1.0000
  C   C413      1.0  0.13802  0.51511  0.29650  1.0000
  H   H709      1.0  0.36116  0.66938  0.23255  1.0000
  C   C414      1.0  0.29611  0.66224  0.21916  1.0000
  H   H710      1.0  0.33327  0.68734  0.22831  1.0000
  H   H711      1.0  0.27687  0.62552  0.09973  1.0000
  S   S137      1.0  0.36607  0.49395  0.11350  1.0000
  C   C415      1.0  0.38826  0.58481  0.98850  1.0000
  C   C416      1.0  0.40275  0.72186  0.14180  1.0000
  S   S138      1.0  0.02995  0.50914  0.28951  1.0000
  H   H712      1.0  0.27453  0.62856  0.07524  1.0000
  H   H713      1.0  0.24002  0.58177  0.25619  1.0000
  H   H714      1.0  0.42121  0.70403  0.09950  1.0000
  C   C417      1.0  0.38389  0.67910  0.07253  1.0000
  Fe  Fe70      1.0  0.22477  0.65572  0.28125  1.0000
  C   C418      1.0  0.10679  0.50131  0.28940  1.0000
  Fe  Fe71      1.0  0.34809  0.51449  0.13187  1.0000
  H   H715      1.0  0.31129  0.49973  0.98857  1.0000
  S   S139      1.0  0.34106  0.54626  0.12063  1.0000
  H   H716      1.0  0.32157  0.70925  0.21576  1.0000
  C   C419      1.0  0.40711  0.68923  0.15873  1.0000
  C   C420      1.0  0.07628  0.56576  0.30228  1.0000
  H   H717      1.0  0.05081  0.59575  0.29325  1.0000
  H   H718      1.0  0.34444  0.69147  0.19443  1.0000
  H   H719      1.0  0.99383  0.61367  0.27048  1.0000
  S   S140      1.0  0.33291  0.50162  0.01927  1.0000
  H   H720      1.0  0.30301  0.55647  0.21056  1.0000
  C   C421      1.0  0.07096  0.54454  0.27232  1.0000
  Fe  Fe72      1.0  0.35991  0.49367  0.99869  1.0000
  C   C422      1.0  0.44643  0.69322  0.11393  1.0000
  S   S141      1.0  0.21280  0.52564  0.28234  1.0000
  S   S142      1.0  0.03333  0.69096  0.29643  1.0000
  C   C423      1.0  0.38729  0.52927  0.03985  1.0000
  H   H721      1.0  0.12667  0.49266  0.26502  1.0000
  H   H722      1.0  0.49230  0.69360  0.12754  1.0000
  H   H723      1.0  0.34605  0.72686  0.21874  1.0000
  C   C424      1.0  0.12723  0.67126  0.28800  1.0000
  H   H724      1.0  0.46844  0.68997  0.14062  1.0000
  N   N30       1.0  0.36438  0.70488  0.20369  1.0000
  H   H725      1.0  0.09359  0.57910  0.25455  1.0000
  C   C425      1.0  0.43093  0.69150  0.01753  1.0000
  C   C426      1.0  0.14337  0.66360  0.29686  1.0000
  S   S143      1.0  0.33121  0.68324  0.15340  1.0000
  H   H726      1.0  0.15719  0.66786  0.29059  1.0000
  H   H727      1.0  0.40884  0.52719  0.01440  1.0000
  Fe  Fe73      1.0  0.18785  0.50979  0.29387  1.0000
  H   H728      1.0  0.41080  0.53162  0.06341  1.0000
  S   S144      1.0  0.21315  0.62900  0.29640  1.0000
  C   C427      1.0  0.30148  0.54313  0.17491  1.0000
  C   C428      1.0  0.42126  0.69333  0.16716  1.0000
  H   H729      1.0  0.27853  0.56664  0.28858  1.0000
  H   H730      1.0  0.15416  0.50465  0.27138  1.0000
  H   H731      1.0  0.99513  0.58805  0.25476  1.0000
  H   H732      1.0  0.39029  0.55191  0.08786  1.0000
  H   H733      1.0  0.49109  0.70002  0.08729  1.0000
  C   C429      1.0  0.36699  0.58662  0.14433  1.0000
  C   C430      1.0  0.37551  0.56723  0.14552  1.0000
  C   C431      1.0  0.36773  0.55470  0.13820  1.0000
  C   C432      1.0  0.35140  0.56156  0.12966  1.0000
  C   C433      1.0  0.34293  0.58094  0.12845  1.0000
  C   C434      1.0  0.35071  0.59347  0.13571  1.0000
  H   H734      1.0  0.38812  0.56188  0.15216  1.0000
  H   H735      1.0  0.37445  0.53980  0.13909  1.0000
  H   H736      1.0  0.33005  0.58621  0.12230  1.0000
  H   H737      1.0  0.34400  0.60838  0.13481  1.0000
  H   H738      1.0  0.31276  0.57326  0.18151  1.0000
  H   H739      1.0  0.39203  0.70083  0.04874  1.0000
  H   H740      1.0  0.27233  0.55319  0.27399  1.0000
  H   H741      1.0  0.05990  0.53869  0.26784  1.0000
  Fe  Fe74      1.0  0.06012  0.66965  0.30129  1.0000
  H   H742      1.0  0.06960  0.71991  0.30153  1.0000
  Fe  Fe75      1.0  0.22631  0.50093  0.26687  1.0000
  S   S145      1.0  0.08889  0.67719  0.28578  1.0000
  H   H743      1.0  0.31718  0.51323  0.21648  1.0000
  H   H744      1.0  0.35252  0.72831  0.16750  1.0000
  H   H745      1.0  0.12106  0.55756  0.25969  1.0000
  C   C435      1.0  0.34581  0.53464  0.05751  1.0000
  C   C436      1.0  0.28244  0.65980  0.20928  1.0000
  H   H746      1.0  0.34273  0.54991  0.05097  1.0000
  H   H747      1.0  0.38921  0.51332  0.04291  1.0000
  H   H748      1.0  0.36846  0.56407  0.04279  1.0000
  H   H749      1.0  0.28277  0.68729  0.09141  1.0000
  N   N31       1.0  0.37163  0.71551  0.06957  1.0000
  H   H750      1.0  0.40366  0.55025  0.02048  1.0000
  H   H751      1.0  0.46943  0.68942  0.06845  1.0000
  C   C437      1.0  0.37102  0.58140  0.00059  1.0000
  C   C438      1.0  0.36412  0.56460  0.00129  1.0000
  H   H752      1.0  0.36965  0.51129  0.20174  1.0000
  H   H753      1.0  0.40113  0.70063  0.06924  1.0000
  H   H754      1.0  0.25277  0.65716  0.21088  1.0000
  S   S146      1.0  0.00789  0.55896  0.30345  1.0000
  H   H755      1.0  0.35075  0.56191  0.01059  1.0000
  N   N32       1.0  0.46187  0.70458  0.10297  1.0000
  N   N33       1.0  0.32862  0.54534  0.19202  1.0000
  C   C439      1.0  0.37818  0.68676  0.20939  1.0000
  C   C440      1.0  0.31756  0.68020  0.05285  1.0000
  C   C441      1.0  0.33299  0.67089  0.06225  1.0000
  C   C442      1.0  0.33028  0.66749  0.08226  1.0000
  C   C443      1.0  0.31207  0.67329  0.09283  1.0000
  H   H756      1.0  0.34696  0.66634  0.05416  1.0000
  H   H757      1.0  0.34205  0.65996  0.08949  1.0000
  H   H758      1.0  0.35529  0.54498  0.20161  1.0000
  H   H759      1.0  0.42848  0.68220  0.17694  1.0000
  N   N34       1.0  0.07514  0.57557  0.28213  1.0000
  C   C444      1.0  0.33122  0.70310  0.22631  1.0000
  H   H760      1.0  0.39792  0.51301  0.07388  1.0000
  C   C445      1.0  0.31608  0.54512  0.21138  1.0000
  H   H761      1.0  0.38615  0.68854  0.22015  1.0000
  H   H762      1.0  0.09822  0.73158  0.30075  1.0000
  S   S147      1.0  0.38721  0.49968  0.00419  1.0000
  C   C446      1.0  0.41480  0.68668  0.01305  1.0000
  C   C447      1.0  0.29965  0.68644  0.06352  1.0000
  S   S148      1.0  0.20022  0.67503  0.29632  1.0000
  C   C448      1.0  0.39896  0.70100  0.00966  1.0000
  H   H763      1.0  0.34844  0.50604  0.19680  1.0000
  H   H764      1.0  0.22635  0.60349  0.24613  1.0000
  C   C449      1.0  0.23795  0.59756  0.25472  1.0000
  H   H765      1.0  0.12867  0.68143  0.27487  1.0000
  C   C450      1.0  0.45495  0.72007  0.08738  1.0000
  N   N35       1.0  0.27322  0.60115  0.25454  1.0000
  C   C451      1.0  0.28895  0.61121  0.24194  1.0000
  C   C452      1.0  0.26711  0.60989  0.27231  1.0000
  C   C453      1.0  0.25641  0.60523  0.24412  1.0000
  C   C454      1.0  0.28114  0.57996  0.25841  1.0000
  C   C455      1.0  0.29516  0.60703  0.22154  1.0000
  H   H766      1.0  0.42801  0.73132  0.10571  1.0000
  H   H767      1.0  0.18160  0.60026  0.28385  1.0000
  C   C456      1.0  0.27108  0.56804  0.27641  1.0000
  H   H768      1.0  0.28454  0.62693  0.24073  1.0000
  H   H769      1.0  0.30235  0.60765  0.24818  1.0000
  C   C457      1.0  0.12481  0.49931  0.27732  1.0000
  H   H770      1.0  0.26001  0.62512  0.26892  1.0000
  H   H771      1.0  0.25216  0.62098  0.23962  1.0000
  H   H772      1.0  0.26047  0.59911  0.23088  1.0000
  H   H773      1.0  0.28104  0.57324  0.24614  1.0000
  H   H774      1.0  0.29653  0.57769  0.26012  1.0000
  H   H775      1.0  0.28411  0.61444  0.21268  1.0000
  H   H776      1.0  0.30853  0.61296  0.21483  1.0000
  H   H777      1.0  0.29826  0.59149  0.22118  1.0000
  H   H778      1.0  0.42227  0.68030  0.11239  1.0000
  H   H779      1.0  0.35745  0.70712  0.23349  1.0000
  H   H780      1.0  0.37114  0.67629  0.06811  1.0000
  H   H781      1.0  0.29500  0.64724  0.04441  1.0000
  H   H782      1.0  0.32329  0.70726  0.23998  1.0000
  H   H783      1.0  0.11972  0.56093  0.28309  1.0000
  H   H784      1.0  0.36564  0.51406  0.07286  1.0000
  H   H785      1.0  0.28769  0.69371  0.05644  1.0000
  C   C458      1.0  0.06319  0.56566  0.27397  1.0000
  C   C459      1.0  0.35039  0.71098  0.22075  1.0000
  S   S149      1.0  0.32065  0.66184  0.20860  1.0000
  C   C460      1.0  0.43122  0.71059  0.01836  1.0000
  H   H786      1.0  0.36038  0.66537  0.20906  1.0000
  C   C461      1.0  0.46821  0.71419  0.11642  1.0000
  C   C462      1.0  0.33702  0.57878  0.19064  1.0000
  H   H787      1.0  0.38512  0.71742  0.18102  1.0000
  C   C463      1.0  0.38782  0.69958  0.06436  1.0000
  H   H788      1.0  0.43797  0.69991  0.12610  1.0000
  N   N36       1.0  0.31371  0.61509  0.06997  1.0000
  C   C464      1.0  0.33503  0.61594  0.06556  1.0000
  C   C465      1.0  0.30698  0.61643  0.05152  1.0000
  C   C466      1.0  0.30961  0.59672  0.08280  1.0000
  C   C467      1.0  0.30332  0.63150  0.07990  1.0000
  C   C468      1.0  0.34574  0.61061  0.08258  1.0000
  C   C469      1.0  0.30627  0.63609  0.03833  1.0000
  C   C470      1.0  0.31961  0.57824  0.07514  1.0000
  C   C471      1.0  0.28112  0.63349  0.08523  1.0000
  H   H789      1.0  0.34294  0.60661  0.05512  1.0000
  H   H790      1.0  0.33740  0.63062  0.05856  1.0000
  H   H791      1.0  0.29250  0.61234  0.05392  1.0000
  H   H792      1.0  0.31664  0.60590  0.04308  1.0000
  H   H793      1.0  0.31345  0.59575  0.09692  1.0000
  H   H794      1.0  0.29385  0.59633  0.08582  1.0000
  H   H795      1.0  0.30847  0.63046  0.09340  1.0000
  H   H796      1.0  0.30683  0.64535  0.07163  1.0000
  H   H797      1.0  0.34687  0.59518  0.08874  1.0000
  H   H798      1.0  0.36076  0.61338  0.07759  1.0000
  H   H799      1.0  0.33910  0.61932  0.09377  1.0000
  H   H800      1.0  0.32043  0.64090  0.03490  1.0000
  H   H801      1.0  0.30257  0.63497  0.02471  1.0000
  H   H802      1.0  0.31710  0.56568  0.08645  1.0000
  H   H803      1.0  0.33538  0.57749  0.07100  1.0000
  H   H804      1.0  0.31355  0.57679  0.06292  1.0000
  C   C472      1.0  0.10919  0.66607  0.29624  1.0000
  H   H805      1.0  0.34672  0.70181  0.07289  1.0000
  H   H806      1.0  0.39389  0.59754  0.98820  1.0000
  C   C473      1.0  0.12780  0.71853  0.30216  1.0000
  C   C474      1.0  0.35441  0.70188  0.18869  1.0000
  H   H807      1.0  0.40311  0.71231  0.20670  1.0000
  H   H808      1.0  0.07375  0.53548  0.28592  1.0000
  H   H809      1.0  0.04830  0.56643  0.28250  1.0000
  H   H810      1.0  0.37969  0.53105  0.09939  1.0000
  C   C475      1.0  0.29037  0.66436  0.23826  1.0000
  H   H811      1.0  0.29049  0.54515  0.18774  1.0000
  S   S150      1.0  0.32338  0.49814  0.14112  1.0000
  H   H812      1.0  0.38217  0.67603  0.08821  1.0000
  C   C476      1.0  0.29688  0.68282  0.08335  1.0000
  C   C477      1.0  0.32185  0.53491  0.17959  1.0000
  H   H813      1.0  0.39649  0.66872  0.06704  1.0000
  Fe  Fe76      1.0  0.36334  0.67443  0.14559  1.0000
  H   H814      1.0  0.39371  0.57955  0.03565  1.0000
  H   H815      1.0  0.22468  0.55375  0.30524  1.0000
  S   S151      1.0  0.36707  0.68156  0.98956  1.0000
  H   H816      1.0  0.44351  0.71413  0.02226  1.0000
  H   H817      1.0  0.36771  0.56406  0.06704  1.0000
  C   C478      1.0  0.41553  0.72491  0.01436  1.0000
  Fe  Fe77      1.0  0.33279  0.65884  0.17793  1.0000
  H   H818      1.0  0.36095  0.70162  0.09800  1.0000
  H   H819      1.0  0.38294  0.72502  0.22142  1.0000
  C   C479      1.0  0.14042  0.50603  0.28094  1.0000
  S   S152      1.0  0.24478  0.65429  0.30136  1.0000
  H   H820      1.0  0.25603  0.60293  0.28277  1.0000
  Fe  Fe78      1.0  0.05740  0.49847  0.30178  1.0000
  H   H821      1.0  0.38159  0.71167  0.09624  1.0000
  C   C480      1.0  0.26361  0.49864  0.22504  1.0000
  C   C481      1.0  0.36937  0.66861  0.21805  1.0000
  H   H822      1.0  0.33422  0.72957  0.18862  1.0000
  C   C482      1.0  0.43128  0.69050  0.10305  1.0000
  H   H823      1.0  0.38938  0.68336  0.19696  1.0000
  C   C483      1.0  0.36283  0.52994  0.06845  1.0000
  H   H824      1.0  0.40491  0.53016  0.09691  1.0000
  S   S153      1.0  0.34130  0.64928  0.99040  1.0000
  H   H825      1.0  0.25897  0.51234  0.19688  1.0000
  H   H826      1.0  0.29713  0.53297  0.16790  1.0000
  C   C484      1.0  0.47632  0.68028  0.08017  1.0000
  H   H827      1.0  0.39384  0.57820  0.06011  1.0000
  H   H828      1.0  0.37591  0.53417  0.03091  1.0000
  C   C485      1.0  0.40574  0.53479  0.02664  1.0000
  H   H829      1.0  0.49066  0.67324  0.07346  1.0000
  H   H830      1.0  0.39558  0.73299  0.13198  1.0000
  H   H831      1.0  0.36851  0.53871  0.98998  1.0000
  H   H832      1.0  0.29323  0.52745  0.21881  1.0000
  S   S154      1.0  0.00651  0.66588  0.26981  1.0000
  H   H833      1.0  0.33217  0.57767  0.20613  1.0000
  H   H834      1.0  0.35305  0.57561  0.18730  1.0000
  C   C486      1.0  0.32150  0.49759  0.05781  1.0000
  C   C487      1.0  0.05926  0.60777  0.26393  1.0000
  H   H835      1.0  0.33256  0.53127  0.06756  1.0000
  C   C488      1.0  0.09477  0.57645  0.26981  1.0000
  H   H836      1.0  0.33282  0.59397  0.18401  1.0000
  C   C489      1.0  0.06448  0.59580  0.28282  1.0000
  C   C490      1.0  0.32791  0.56591  0.18205  1.0000
  C   C491      1.0  0.35374  0.51594  0.20325  1.0000
  H   H837      1.0  0.30742  0.52444  0.23647  1.0000
  H   H838      1.0  0.38129  0.65615  0.21949  1.0000
  H   H839      1.0  0.45308  0.67871  0.12053  1.0000
  H   H840      1.0  0.40886  0.56020  0.04764  1.0000
  C   C492      1.0  0.39449  0.56937  0.04926  1.0000
  S   S155      1.0  0.44375  0.71612  0.17424  1.0000
  H   H841      1.0  0.25558  0.57337  0.28053  1.0000
  H   H842      1.0  0.07300  0.60423  0.28788  1.0000
  H   H843      1.0  0.06148  0.57290  0.25932  1.0000
  S   S156      1.0  0.36274  0.50078  0.15675  1.0000
  C   C493      1.0  0.42612  0.71171  0.16305  1.0000
  C   C494      1.0  0.10460  0.50995  0.30524  1.0000
  H   H844      1.0  0.40355  0.67500  0.16193  1.0000
  S   S157      1.0  0.23986  0.50800  0.23569  1.0000
  H   H845      1.0  0.30084  0.66631  0.24599  1.0000
  H   H846      1.0  0.33518  0.56652  0.16705  1.0000
  H   H847      1.0  0.38716  0.73108  0.00713  1.0000
  H   H848      1.0  0.35212  0.72862  0.11406  1.0000
  H   H849      1.0  0.36512  0.69529  0.17746  1.0000
  S   S158      1.0  0.23381  0.65834  0.24932  1.0000
  H   H850      1.0  0.26703  0.66517  0.26228  1.0000
  H   H851      1.0  0.33925  0.61092  0.97514  1.0000
  H   H852      1.0  0.32392  0.54864  0.22139  1.0000
  C   C495      1.0  0.39776  0.70352  0.14607  1.0000
  C   C496      1.0  0.17236  0.59835  0.29809  1.0000
  H   H853      1.0  0.04702  0.60322  0.26009  1.0000
  H   H854      1.0  0.08422  0.55086  0.30313  1.0000
  S   S159      1.0  0.38018  0.69899  0.13492  1.0000
  H   H855      1.0  0.09941  0.58003  0.30557  1.0000
  H   H856      1.0  0.44927  0.71423  0.07729  1.0000
  C   C497      1.0  0.39938  0.72006  0.01010  1.0000
  C   C498      1.0  0.31017  0.49396  0.97608  1.0000
  C   C499      1.0  0.34944  0.53696  0.19345  1.0000
  H   H857      1.0  0.35858  0.53822  0.17906  1.0000
  C   C500      1.0  0.28350  0.60964  0.28296  1.0000
  C   C501      1.0  0.37425  0.55139  0.98969  1.0000
  H   H858      1.0  0.32202  0.51957  0.18568  1.0000
  H   H859      1.0  0.33197  0.53487  0.16577  1.0000
  H   H860      1.0  0.47871  0.72367  0.10857  1.0000
  C   C502      1.0  0.27121  0.66369  0.24755  1.0000
  C   C503      1.0  0.25759  0.66094  0.23778  1.0000
  C   C504      1.0  0.30829  0.52642  0.22089  1.0000
  C   C505      1.0  0.47940  0.69164  0.09445  1.0000
  C   C506      1.0  0.37702  0.55873  0.05439  1.0000
  H   H861      1.0  0.34204  0.72688  0.06584  1.0000
  C   C507      1.0  0.39623  0.52894  0.07057  1.0000
  H   H862      1.0  0.33256  0.71611  0.17135  1.0000
  H   H863      1.0  0.08405  0.54299  0.26122  1.0000
  H   H864      1.0  0.43773  0.68456  0.09000  1.0000
  Fe  Fe79      1.0  0.02071  0.66595  0.29434  1.0000
  H   H865      1.0  0.05427  0.62299  0.26558  1.0000
  H   H866      1.0  0.00367  0.61963  0.23889  1.0000
  H   H867      1.0  0.46811  0.66864  0.08739  1.0000
  C   C508      1.0  0.39013  0.72377  0.20669  1.0000
  H   H868      1.0  0.45574  0.72363  0.12355  1.0000
  S   S160      1.0  0.24126  0.48344  0.29048  1.0000
  H   H869      1.0  0.07179  0.60736  0.25216  1.0000
  C   C509      1.0  0.37627  0.72041  0.19478  1.0000
  S   S161      1.0  0.08747  0.49284  0.28427  1.0000
  N   N37       1.0  0.38119  0.53713  0.05810  1.0000
  C   C510      1.0  0.35483  0.71177  0.04297  1.0000
  H   H870      1.0  0.43027  0.70637  0.97385  1.0000
  C   C511      1.0  0.33503  0.49093  0.04281  1.0000
  H   H871      1.0  0.41869  0.53049  0.03345  1.0000
  S   S162      1.0  0.04844  0.64523  0.29644  1.0000
  C   C512      1.0  0.39840  0.57161  0.97685  1.0000
  C   C513      1.0  0.11086  0.55886  0.27324  1.0000
  C   C514      1.0  0.36785  0.71426  0.09076  1.0000
  H   H872      1.0  0.18136  0.56791  0.30136  1.0000
  H   H873      1.0  0.10050  0.58883  0.27192  1.0000
  C   C515      1.0  0.39138  0.55490  0.97743  1.0000
  H   H874      1.0  0.10585  0.54503  0.27817  1.0000
  C   C516      1.0  0.41684  0.72599  0.15030  1.0000
  H   H875      1.0  0.29279  0.62026  0.27526  1.0000
  H   H876      1.0  0.10433  0.70723  0.29809  1.0000
  Fe  Fe80      1.0  0.22609  0.50725  0.30644  1.0000
  C   C517      1.0  0.35321  0.71398  0.06373  1.0000
  H   H877      1.0  0.27712  0.61397  0.29691  1.0000
  S   S163      1.0  0.38893  0.63808  0.98348  1.0000
  C   C518      1.0  0.27702  0.48696  0.23572  1.0000
  H   H878      1.0  0.00561  0.59970  0.29766  1.0000
  C   C519      1.0  0.34277  0.72015  0.17861  1.0000
  H   H879      1.0  0.36412  0.69816  0.03980  1.0000
  H   H880      1.0  0.15755  0.59875  0.29579  1.0000
  H   H881      1.0  0.13158  0.72488  0.28696  1.0000
  H   H882      1.0  0.44773  0.48560  0.98263  1.0000
  H   H883      1.0  0.31210  0.49393  0.08817  1.0000
  H   H884      1.0  0.40915  0.73185  0.05622  1.0000
  H   H885      1.0  0.48556  0.68057  0.10560  1.0000
  C   C520      1.0  0.47744  0.70074  0.13268  1.0000
  H   H886      1.0  0.29484  0.49402  0.97573  1.0000
  C   C521      1.0  0.30148  0.48492  0.20696  1.0000
  H   H887      1.0  0.17265  0.61081  0.30443  1.0000
  C   C522      1.0  0.35471  0.73175  0.09832  1.0000
  H   H888      1.0  0.35989  0.72405  0.03279  1.0000
  H   H889      1.0  0.13679  0.70403  0.30408  1.0000
  S   S164      1.0  0.20848  0.64587  0.33577  1.0000
  S   S165      1.0  0.16079  0.64192  0.32632  1.0000
  S   S166      1.0  0.24931  0.60103  0.32961  1.0000
  C   C523      1.0  0.26210  0.70962  0.63499  1.0000
  H   H890      1.0  0.18075  0.60855  0.35072  1.0000
  H   H891      1.0  0.19277  0.52639  0.34065  1.0000
  H   H892      1.0  0.03797  0.57087  0.35281  1.0000
  H   H893      1.0  0.24320  0.67667  0.35364  1.0000
  H   H894      1.0  0.29058  0.73270  0.38014  1.0000
  H   H895      1.0  0.12824  0.55396  0.34511  1.0000
  C   C524      1.0  0.14145  0.65076  0.31400  1.0000
  C   C525      1.0  0.12351  0.64525  0.32202  1.0000
  H   H896      1.0  0.18294  0.67674  0.55090  1.0000
  S   S167      1.0  0.20025  0.49327  0.31937  1.0000
  H   H897      1.0  0.18206  0.69099  0.57610  1.0000
  H   H898      1.0  0.06724  0.68162  0.59634  1.0000
  S   S168      1.0  0.00742  0.50790  0.33379  1.0000
  C   C526      1.0  0.23309  0.55615  0.31482  1.0000
  C   C527      1.0  0.23828  0.71338  0.37796  1.0000
  H   H899      1.0  0.14385  0.72206  0.51491  1.0000
  C   C528      1.0  0.10695  0.67567  0.60324  1.0000
  Fe  Fe81      1.0  0.23159  0.62863  0.31737  1.0000
  C   C529      1.0  0.13724  0.56377  0.34725  1.0000
  H   H900      1.0  0.03448  0.72543  0.52211  1.0000
  H   H901      1.0  0.21724  0.70475  0.58796  1.0000
  H   H902      1.0  0.07198  0.69986  0.34262  1.0000
  C   C530      1.0  0.18151  0.55667  0.33976  1.0000
  C   C531      1.0  0.25549  0.56227  0.33909  1.0000
  C   C532      1.0  0.25379  0.54364  0.33822  1.0000
  C   C533      1.0  0.10740  0.65287  0.31316  1.0000
  C   C534      1.0  0.18491  0.59672  0.34241  1.0000
  S   S169      1.0  0.12151  0.73045  0.55844  1.0000
  H   H903      1.0  0.26431  0.56446  0.34842  1.0000
  H   H904      1.0  0.26127  0.53162  0.34694  1.0000
  C   C535      1.0  0.08530  0.71202  0.49250  1.0000
  H   H905      1.0  0.11809  0.52403  0.32072  1.0000
  H   H906      1.0  0.05682  0.66160  0.61078  1.0000
  H   H907      1.0  0.07186  0.69799  0.61667  1.0000
  H   H908      1.0  0.14657  0.69296  0.40248  1.0000
  C   C536      1.0  0.11138  0.68446  0.61662  1.0000
  H   H909      1.0  0.02499  0.55037  0.33731  1.0000
  H   H910      1.0  0.99820  0.58192  0.63487  1.0000
  H   H911      1.0  0.15221  0.72779  0.45876  1.0000
  H   H912      1.0  0.19542  0.69664  0.37822  1.0000
  Fe  Fe82      1.0  0.03638  0.49666  0.34209  1.0000
  H   H913      1.0  0.09823  0.65060  0.59851  1.0000
  H   H914      1.0  0.12197  0.63531  0.33530  1.0000
  H   H915      1.0  0.17025  0.72613  0.42118  1.0000
  H   H916      1.0  0.18028  0.71229  0.63646  1.0000
  C   C537      1.0  0.03074  0.57720  0.34086  1.0000
  Fe  Fe83      1.0  0.21950  0.67175  0.31781  1.0000
  S   S170      1.0  0.03967  0.61106  0.34401  1.0000
  H   H917      1.0  0.13185  0.72757  0.31052  1.0000
  H   H918      1.0  0.09357  0.64874  0.31955  1.0000
  C   C538      1.0  0.14604  0.70303  0.38876  1.0000
  H   H919      1.0  0.15882  0.58590  0.35534  1.0000
  H   H920      1.0  0.19373  0.66630  0.37066  1.0000
  H   H921      1.0  0.12538  0.69956  0.33610  1.0000
  C   C539      1.0  0.10411  0.68795  0.35805  1.0000
  H   H922      1.0  0.18024  0.73226  0.57831  1.0000
  H   H923      1.0  0.21387  0.49694  0.36744  1.0000
  H   H924      1.0  0.02645  0.55979  0.62532  1.0000
  H   H925      1.0  0.19273  0.70070  0.59787  1.0000
  H   H926      1.0  0.15639  0.70847  0.42128  1.0000
  C   C540      1.0  0.16953  0.71440  0.41394  1.0000
  N   N38       1.0  0.19438  0.71440  0.55740  1.0000
  H   H927      1.0  0.15310  0.65839  0.63643  1.0000
  H   H928      1.0  0.16469  0.71078  0.56967  1.0000
  H   H929      1.0  0.17650  0.55460  0.35536  1.0000
  Fe  Fe84      1.0  0.02235  0.52840  0.31123  1.0000
  H   H930      1.0  0.22999  0.72210  0.53227  1.0000
  H   H931      1.0  0.18761  0.53844  0.31793  1.0000
  H   H932      1.0  0.09993  0.69950  0.36667  1.0000
  H   H933      1.0  0.01761  0.62033  0.31368  1.0000
  S   S171      1.0  0.27581  0.72289  0.61571  1.0000
  S   S172      1.0  0.09340  0.62608  0.63516  1.0000
  H   H934      1.0  0.08872  0.56589  0.32683  1.0000
  H   H935      1.0  0.18269  0.70350  0.41574  1.0000
  H   H936      1.0  0.14286  0.69467  0.37907  1.0000
  H   H937      1.0  0.16798  0.67067  0.37417  1.0000
  H   H938      1.0  0.28598  0.68654  0.63929  1.0000
  C   C541      1.0  0.02318  0.73100  0.36046  1.0000
  H   H939      1.0  0.12061  0.72684  0.34439  1.0000
  H   H940      1.0  0.19675  0.55868  0.33792  1.0000
  H   H941      1.0  0.23341  0.71870  0.55655  1.0000
  C   C542      1.0  0.04934  0.70171  0.37745  1.0000
  H   H942      1.0  0.12552  0.72846  0.37870  1.0000
  C   C543      1.0  0.24478  0.69529  0.37260  1.0000
  H   H943      1.0  0.25492  0.68481  0.38008  1.0000
  H   H944      1.0  0.14166  0.58323  0.32123  1.0000
  C   C544      1.0  0.02888  0.59693  0.33412  1.0000
  C   C545      1.0  0.05047  0.71963  0.49500  1.0000
  C   C546      1.0  0.15237  0.72102  0.50057  1.0000
  N   N39       1.0  0.16517  0.70969  0.38115  1.0000
  S   S173      1.0  0.21675  0.69972  0.32842  1.0000
  S   S174      1.0  0.00830  0.65998  0.32529  1.0000
  H   H945      1.0  0.18025  0.68398  0.39677  1.0000
  H   H946      1.0  0.20102  0.72082  0.60165  1.0000
  C   C547      1.0  0.16644  0.59009  0.34061  1.0000
  C   C548      1.0  0.04864  0.72165  0.51388  1.0000
  H   H947      1.0  0.08335  0.68990  0.32222  1.0000
  C   C549      1.0  0.02441  0.71212  0.35796  1.0000
  C   C550      1.0  0.20189  0.71162  0.59105  1.0000
  H   H948      1.0  0.14423  0.71526  0.49247  1.0000
  C   C551      1.0  0.05857  0.70636  0.62372  1.0000
  C   C552      1.0  0.05367  0.67589  0.60186  1.0000
  H   H949      1.0  0.10668  0.68324  0.58888  1.0000
  C   C553      1.0  0.19486  0.72443  0.57331  1.0000
  H   H950      1.0  0.06155  0.56431  0.31042  1.0000
  H   H951      1.0  0.16514  0.68621  0.62933  1.0000
  C   C554      1.0  0.12817  0.71871  0.39201  1.0000
  H   H952      1.0  0.23572  0.73012  0.63447  1.0000
  H   H953      1.0  0.16563  0.71030  0.50249  1.0000
  H   H954      1.0  0.21628  0.68961  0.56409  1.0000
  S   S175      1.0  0.03009  0.72519  0.48411  1.0000
  C   C555      1.0  0.17531  0.69183  0.54892  1.0000
  Fe  Fe85      1.0  0.02357  0.68315  0.32780  1.0000
  H   H955      1.0  0.11517  0.71185  0.39751  1.0000
  H   H956      1.0  0.02432  0.68406  0.61569  1.0000
  C   C556      1.0  0.18094  0.69227  0.38210  1.0000
  H   H957      1.0  0.03796  0.68279  0.36538  1.0000
  C   C557      1.0  0.02357  0.56556  0.33195  1.0000
  C   C558      1.0  0.03796  0.68998  0.61229  1.0000
  S   S176      1.0  0.06507  0.72590  0.39122  1.0000
  H   H958      1.0  0.12905  0.72694  0.40283  1.0000
  C   C559      1.0  0.10224  0.64760  0.62733  1.0000
  C   C560      1.0  0.01922  0.60509  0.31890  1.0000
  H   H959      1.0  0.18191  0.68421  0.35425  1.0000
  C   C561      1.0  0.03728  0.69745  0.36677  1.0000
  Fe  Fe86      1.0  0.03703  0.64100  0.32759  1.0000
  C   C562      1.0  0.21917  0.72243  0.35282  1.0000
  Fe  Fe87      1.0  0.09707  0.72711  0.54587  1.0000
  H   H960      1.0  0.09197  0.68011  0.36001  1.0000
  S   S177      1.0  0.05133  0.66359  0.33289  1.0000
  H   H961      1.0  0.16074  0.73100  0.53707  1.0000
  H   H962      1.0  0.05172  0.70935  0.31888  1.0000
  H   H963      1.0  0.19297  0.60245  0.32847  1.0000
  H   H964      1.0  0.05486  0.71918  0.61289  1.0000
  N   N40       1.0  0.09745  0.71147  0.32736  1.0000
  S   S178      1.0  0.10435  0.71270  0.52063  1.0000
  H   H965      1.0  0.08157  0.72522  0.35109  1.0000
  S   S179      1.0  0.05058  0.51941  0.32173  1.0000
  H   H966      1.0  0.09945  0.70823  0.48423  1.0000
  H   H967      1.0  0.09103  0.51120  0.31491  1.0000
  C   C563      1.0  0.18084  0.67775  0.36948  1.0000
  C   C564      1.0  0.18056  0.57918  0.30982  1.0000
  H   H968      1.0  0.06379  0.72148  0.53632  1.0000
  C   C565      1.0  0.21331  0.70152  0.55217  1.0000
  H   H969      1.0  0.07022  0.71257  0.46999  1.0000
  C   C566      1.0  0.18239  0.53761  0.33336  1.0000
  C   C567      1.0  0.07952  0.70355  0.32788  1.0000
  C   C568      1.0  0.12005  0.51707  0.30861  1.0000
  H   H970      1.0  0.18007  0.69861  0.53413  1.0000
  C   C569      1.0  0.08354  0.71473  0.51113  1.0000
  H   H971      1.0  0.15958  0.69190  0.55042  1.0000
  H   H972      1.0  0.16820  0.53279  0.33724  1.0000
  S   S180      1.0  0.11512  0.70816  0.61104  1.0000
  C   C570      1.0  0.23821  0.69066  0.35759  1.0000
  C   C571      1.0  0.24269  0.54043  0.32609  1.0000
  C   C572      1.0  0.10233  0.65719  0.60863  1.0000
  C   C573      1.0  0.22549  0.70432  0.34753  1.0000
  H   H973      1.0  0.05954  0.69035  0.38394  1.0000
  S   S181      1.0  0.24137  0.51646  0.32592  1.0000
  N   N41       1.0  0.16967  0.57401  0.32965  1.0000
  C   C574      1.0  0.06521  0.71949  0.52188  1.0000
  H   H974      1.0  0.03522  0.70315  0.60156  1.0000
  H   H975      1.0  0.04853  0.67364  0.58939  1.0000
  H   H976      1.0  0.19464  0.58520  0.35012  1.0000
  H   H977      1.0  0.14533  0.55565  0.35850  1.0000
  H   H978      1.0  0.12758  0.57637  0.35253  1.0000
  C   C575      1.0  0.16896  0.72279  0.39287  1.0000
  H   H979      1.0  0.11604  0.67748  0.36380  1.0000
  C   C576      1.0  0.24588  0.57805  0.32807  1.0000
  S   S182      1.0  0.24744  0.71931  0.39616  1.0000
  H   H980      1.0  0.18299  0.72777  0.38666  1.0000
  H   H981      1.0  0.19528  0.72376  0.52689  1.0000
  S   S183      1.0  0.00954  0.70708  0.34410  1.0000
  C   C577      1.0  0.23107  0.71156  0.54556  1.0000
  H   H982      1.0  0.21274  0.69431  0.54038  1.0000
  H   H983      1.0  0.15655  0.60274  0.33446  1.0000
  H   H984      1.0  0.05829  0.73026  0.32264  1.0000
  C   C578      1.0  0.15031  0.57012  0.32827  1.0000
  Fe  Fe88      1.0  0.19073  0.64815  0.31347  1.0000
  C   C579      1.0  0.17874  0.70233  0.56386  1.0000
  Fe  Fe89      1.0  0.01661  0.48783  0.31294  1.0000
  H   H985      1.0  0.15723  0.48509  0.32357  1.0000
  C   C580      1.0  0.16460  0.71322  0.63700  1.0000
  C   C581      1.0  0.16623  0.71944  0.36058  1.0000
  Fe  Fe90      1.0  0.10187  0.72479  0.58612  1.0000
  H   H986      1.0  0.11467  0.68314  0.32935  1.0000
  C   C582      1.0  0.23453  0.57502  0.31597  1.0000
  C   C583      1.0  0.22522  0.72681  0.36815  1.0000
  H   H987      1.0  0.18125  0.71667  0.35261  1.0000
  S   S184      1.0  0.07845  0.71826  0.57377  1.0000
  H   H988      1.0  0.07553  0.72270  0.63323  1.0000
  C   C584      1.0  0.09150  0.72845  0.33742  1.0000
  C   C585      1.0  0.19059  0.72954  0.54036  1.0000
  C   C586      1.0  0.01475  0.57360  0.31616  1.0000
  C   C587      1.0  0.11119  0.69552  0.33693  1.0000
  C   C588      1.0  0.06878  0.71462  0.48440  1.0000
  C   C589      1.0  0.04832  0.72060  0.37969  1.0000
  H   H989      1.0  0.24421  0.70071  0.54252  1.0000
  H   H990      1.0  0.15175  0.55958  0.31879  1.0000
  H   H991      1.0  0.19579  0.57975  0.31003  1.0000
  C   C590      1.0  0.06415  0.71680  0.31699  1.0000
  H   H992      1.0  0.15754  0.71337  0.35321  1.0000
  H   H993      1.0  0.02231  0.72867  0.61396  1.0000
  C   C591      1.0  0.01790  0.72634  0.62956  1.0000
  N   N42       1.0  0.04257  0.69470  0.62974  1.0000
  H   H994      1.0  0.27769  0.72498  0.35923  1.0000
  C   C592      1.0  0.08564  0.57582  0.31361  1.0000
  H   H995      1.0  0.07558  0.58860  0.31807  1.0000
  H   H996      1.0  0.23843  0.49746  0.36777  1.0000
  C   C593      1.0  0.01227  0.59341  0.30988  1.0000
  C   C594      1.0  0.99607  0.72334  0.41042  1.0000
  C   C595      1.0  0.11196  0.67457  0.63507  1.0000
  H   H997      1.0  0.00956  0.71340  0.41339  1.0000
  H   H998      1.0  0.06353  0.66921  0.63703  1.0000
  H   H999      1.0  0.16135  0.72046  0.62279  1.0000
  S   S185      1.0  0.03849  0.48780  0.37286  1.0000
  H   H1000     1.0  0.03199  0.65716  0.63732  1.0000
  C   C596      1.0  0.22761  0.48788  0.37092  1.0000
  H   H1001     1.0  0.99338  0.70520  0.39207  1.0000
  H   H1002     1.0  0.99366  0.72196  0.46872  1.0000
  H   H1003     1.0  0.00187  0.72976  0.63245  1.0000
  H   H1004     1.0  0.20949  0.73317  0.34502  1.0000
  C   C597      1.0  0.06466  0.71327  0.63970  1.0000
  H   H1005     1.0  0.31064  0.73273  0.35400  1.0000
  C   C598      1.0  0.02457  0.70576  0.63981  1.0000
  H   H1006     1.0  0.22734  0.58715  0.30720  1.0000
  C   C599      1.0  0.10608  0.71741  0.30679  1.0000
  C   C600      1.0  0.27862  0.69596  0.73548  1.0000
  C   C601      1.0  0.00721  0.61317  0.71351  1.0000
  S   S186      1.0  0.25994  0.51353  0.66886  1.0000
  H   H1007     1.0  0.02123  0.60643  0.71701  1.0000
  S   S187      1.0  0.37711  0.52504  0.79934  1.0000
  S   S188      1.0  0.10675  0.60981  0.68562  1.0000
  H   H1008     1.0  0.03097  0.55386  0.70261  1.0000
  H   H1009     1.0  0.04201  0.64930  0.65840  1.0000
  C   C602      1.0  0.15727  0.65082  0.65016  1.0000
  Fe  Fe91      1.0  0.08291  0.59542  0.70403  1.0000
  Fe  Fe92      1.0  0.36306  0.61883  0.83822  1.0000
  S   S189      1.0  0.33173  0.63215  0.84062  1.0000
  S   S190      1.0  0.36933  0.58734  0.85026  1.0000
  Fe  Fe93      1.0  0.37660  0.65752  0.82401  1.0000
  S   S191      1.0  0.34613  0.67348  0.82543  1.0000
  S   S192      1.0  0.40065  0.67502  0.81271  1.0000
  Fe  Fe94      1.0  0.34045  0.65391  0.85342  1.0000
  S   S193      1.0  0.32368  0.66305  0.88077  1.0000
  Fe  Fe95      1.0  0.34069  0.65010  0.81231  1.0000
  S   S194      1.0  0.32765  0.65684  0.78532  1.0000
  S   S195      1.0  0.37122  0.63939  0.85279  1.0000
  S   S196      1.0  0.37175  0.63524  0.80908  1.0000
  Fe  Fe96      1.0  0.23831  0.64754  0.70354  1.0000
  S   S197      1.0  0.22205  0.64099  0.73337  1.0000
  S   S198      1.0  0.22849  0.67763  0.68837  1.0000
  Fe  Fe97      1.0  0.25977  0.60657  0.70513  1.0000
  S   S199      1.0  0.24525  0.59711  0.73470  1.0000
  S   S200      1.0  0.28211  0.58507  0.69070  1.0000
  Fe  Fe98      1.0  0.21834  0.61439  0.72480  1.0000
  S   S201      1.0  0.19177  0.60076  0.73142  1.0000
  Fe  Fe99      1.0  0.25060  0.62455  0.74052  1.0000
  S   S202      1.0  0.25919  0.62303  0.76904  1.0000
  S   S203      1.0  0.23254  0.62182  0.69460  1.0000
  S   S204      1.0  0.26724  0.63302  0.71134  1.0000
  C   C603      1.0  0.24138  0.68886  0.66710  1.0000
  H   H1010     1.0  0.07181  0.70115  0.64927  1.0000
  H   H1011     1.0  0.16834  0.51320  0.67822  1.0000
  C   C604      1.0  0.30864  0.64718  0.78113  1.0000
  C   C605      1.0  0.30611  0.64862  0.76234  1.0000
  C   C606      1.0  0.29106  0.64127  0.75837  1.0000
  C   C607      1.0  0.27821  0.63270  0.77320  1.0000
  C   C608      1.0  0.28070  0.63131  0.79197  1.0000
  C   C609      1.0  0.29589  0.63844  0.79593  1.0000
  H   H1012     1.0  0.31599  0.65529  0.75081  1.0000
  H   H1013     1.0  0.28950  0.64211  0.74387  1.0000
  H   H1014     1.0  0.27078  0.62474  0.80353  1.0000
  H   H1015     1.0  0.29758  0.63742  0.81044  1.0000
  C   C610      1.0  0.33770  0.66475  0.89712  1.0000
  S   S205      1.0  0.07144  0.61874  0.72149  1.0000
  C   C611      1.0  0.36820  0.66763  0.90444  1.0000
  C   C612      1.0  0.35725  0.66608  0.89132  1.0000
  H   H1016     1.0  0.29629  0.50375  0.69748  1.0000
  H   H1017     1.0  0.38331  0.66873  0.89979  1.0000
  H   H1018     1.0  0.36389  0.66630  0.87667  1.0000
  C   C613      1.0  0.42189  0.70710  0.84966  1.0000
  C   C614      1.0  0.41452  0.69018  0.85781  1.0000
  C   C615      1.0  0.40751  0.68045  0.84674  1.0000
  C   C616      1.0  0.40835  0.68730  0.82731  1.0000
  C   C617      1.0  0.41607  0.70402  0.81912  1.0000
  C   C618      1.0  0.42259  0.71404  0.83029  1.0000
  H   H1019     1.0  0.41413  0.68460  0.87276  1.0000
  H   H1020     1.0  0.40178  0.66748  0.85314  1.0000
  N   N43       1.0  0.14004  0.54740  0.67377  1.0000
  C   C619      1.0  0.13548  0.63667  0.71496  1.0000
  C   C620      1.0  0.15004  0.64571  0.71726  1.0000
  C   C621      1.0  0.16762  0.63486  0.72176  1.0000
  C   C622      1.0  0.17041  0.61486  0.72468  1.0000
  C   C623      1.0  0.15571  0.60580  0.72279  1.0000
  C   C624      1.0  0.13835  0.61667  0.71778  1.0000
  H   H1021     1.0  0.14768  0.66114  0.71556  1.0000
  H   H1022     1.0  0.17880  0.64192  0.72346  1.0000
  H   H1023     1.0  0.15771  0.59035  0.72515  1.0000
  H   H1024     1.0  0.12707  0.60957  0.71644  1.0000
  H   H1025     1.0  0.11683  0.57139  0.67894  1.0000
  C   C625      1.0  0.28680  0.50188  0.71153  1.0000
  C   C626      1.0  0.37424  0.54300  0.81298  1.0000
  C   C627      1.0  0.36135  0.54255  0.83019  1.0000
  C   C628      1.0  0.35911  0.55693  0.84096  1.0000
  C   C629      1.0  0.37002  0.57163  0.83483  1.0000
  C   C630      1.0  0.38274  0.57231  0.81748  1.0000
  C   C631      1.0  0.38478  0.55803  0.80653  1.0000
  H   H1026     1.0  0.35323  0.53102  0.83537  1.0000
  H   H1027     1.0  0.34902  0.55655  0.85417  1.0000
  H   H1028     1.0  0.39132  0.58356  0.81273  1.0000
  H   H1029     1.0  0.39475  0.55848  0.79319  1.0000
  C   C632      1.0  0.26506  0.53365  0.67547  1.0000
  C   C633      1.0  0.28258  0.53969  0.66699  1.0000
  C   C634      1.0  0.28738  0.55559  0.67167  1.0000
  C   C635      1.0  0.27456  0.56594  0.68462  1.0000
  C   C636      1.0  0.25674  0.56022  0.69297  1.0000
  C   C637      1.0  0.25208  0.54392  0.68850  1.0000
  H   H1030     1.0  0.33241  0.62179  0.90840  1.0000
  H   H1031     1.0  0.30108  0.55998  0.66510  1.0000
  H   H1032     1.0  0.24669  0.56829  0.70285  1.0000
  H   H1033     1.0  0.23834  0.53955  0.69464  1.0000
  C   C638      1.0  0.05308  0.52877  0.70123  1.0000
  C   C639      1.0  0.07197  0.52056  0.70383  1.0000
  C   C640      1.0  0.08348  0.53129  0.70902  1.0000
  C   C641      1.0  0.07628  0.55037  0.71109  1.0000
  H   H1034     1.0  0.07773  0.50598  0.70185  1.0000
  H   H1035     1.0  0.09806  0.52491  0.71103  1.0000
  C   C642      1.0  0.19329  0.65825  0.67231  1.0000
  S   S206      1.0  0.06232  0.60638  0.68344  1.0000
  H   H1036     1.0  0.36971  0.60955  0.96080  1.0000
  Fe  Fe100     1.0  0.05626  0.48746  0.68805  1.0000
  H   H1037     1.0  0.46504  0.70524  0.82549  1.0000
  Fe  Fe101     1.0  0.08516  0.62292  0.66675  1.0000
  C   C643      1.0  0.45426  0.73114  0.96451  1.0000
  H   H1038     1.0  0.45700  0.67671  0.85130  1.0000
  S   S207      1.0  0.03876  0.51569  0.69419  1.0000
  H   H1039     1.0  0.30502  0.49193  0.74422  1.0000
  H   H1040     1.0  0.17262  0.64382  0.64790  1.0000
  N   N44       1.0  0.20248  0.54481  0.75211  1.0000
  C   C644      1.0  0.20759  0.54823  0.73071  1.0000
  C   C645      1.0  0.21557  0.55439  0.75919  1.0000
  C   C646      1.0  0.18156  0.55371  0.75764  1.0000
  C   C647      1.0  0.20546  0.52345  0.75898  1.0000
  C   C648      1.0  0.19346  0.54325  0.72009  1.0000
  C   C649      1.0  0.23741  0.54708  0.75385  1.0000
  C   C650      1.0  0.17539  0.55976  0.77727  1.0000
  C   C651      1.0  0.20278  0.51638  0.78056  1.0000
  H   H1041     1.0  0.20886  0.56350  0.72501  1.0000
  H   H1042     1.0  0.22199  0.53986  0.72596  1.0000
  H   H1043     1.0  0.21240  0.55323  0.77479  1.0000
  H   H1044     1.0  0.21299  0.57009  0.75375  1.0000
  H   H1045     1.0  0.17766  0.56704  0.74749  1.0000
  H   H1046     1.0  0.17176  0.54403  0.75676  1.0000
  H   H1047     1.0  0.19528  0.51690  0.75394  1.0000
  H   H1048     1.0  0.21984  0.51624  0.75257  1.0000
  H   H1049     1.0  0.19949  0.54529  0.70468  1.0000
  H   H1050     1.0  0.19142  0.52817  0.72450  1.0000
  H   H1051     1.0  0.17925  0.55284  0.72178  1.0000
  H   H1052     1.0  0.24539  0.55431  0.76084  1.0000
  H   H1053     1.0  0.24127  0.53149  0.75879  1.0000
  H   H1054     1.0  0.24260  0.55069  0.73838  1.0000
  H   H1055     1.0  0.17925  0.54814  0.78896  1.0000
  H   H1056     1.0  0.15943  0.56418  0.78006  1.0000
  H   H1057     1.0  0.18157  0.57248  0.77754  1.0000
  H   H1058     1.0  0.18737  0.51577  0.78665  1.0000
  H   H1059     1.0  0.20844  0.52489  0.78826  1.0000
  H   H1060     1.0  0.21137  0.50174  0.78343  1.0000
  N   N45       1.0  0.38742  0.52413  0.88738  1.0000
  C   C652      1.0  0.36852  0.52171  0.88314  1.0000
  H   H1061     1.0  0.32007  0.51851  0.69795  1.0000
  C   C653      1.0  0.38956  0.54477  0.88014  1.0000
  C   C654      1.0  0.38686  0.51891  0.90852  1.0000
  C   C655      1.0  0.35003  0.53380  0.89256  1.0000
  H   H1062     1.0  0.33358  0.66653  0.94405  1.0000
  C   C656      1.0  0.12028  0.55894  0.67168  1.0000
  H   H1063     1.0  0.25037  0.49442  0.75834  1.0000
  H   H1064     1.0  0.36866  0.52468  0.86759  1.0000
  H   H1065     1.0  0.36632  0.50666  0.88785  1.0000
  S   S208      1.0  0.17255  0.49805  0.72083  1.0000
  C   C657      1.0  0.40647  0.51277  0.91551  1.0000
  H   H1066     1.0  0.38907  0.54851  0.86468  1.0000
  H   H1067     1.0  0.10833  0.64848  0.65460  1.0000
  C   C658      1.0  0.15854  0.69334  0.64177  1.0000
  Fe  Fe102     1.0  0.05259  0.63097  0.69930  1.0000
  H   H1068     1.0  0.34845  0.53098  0.90822  1.0000
  H   H1069     1.0  0.34910  0.54935  0.88707  1.0000
  H   H1070     1.0  0.33731  0.52974  0.88907  1.0000
  S   S209      1.0  0.02179  0.64675  0.70239  1.0000
  H   H1071     1.0  0.39277  0.62408  0.92168  1.0000
  H   H1072     1.0  0.39751  0.70622  0.96544  1.0000
  H   H1073     1.0  0.36102  0.69904  0.86053  1.0000
  H   H1074     1.0  0.40793  0.55016  0.89819  1.0000
  C   C659      1.0  0.46389  0.67543  0.83652  1.0000
  H   H1075     1.0  0.48097  0.68862  0.81212  1.0000
  H   H1076     1.0  0.26952  0.70264  0.74751  1.0000
  H   H1077     1.0  0.30740  0.67696  0.70090  1.0000
  H   H1078     1.0  0.16793  0.58053  0.66575  1.0000
  C   C660      1.0  0.15539  0.57821  0.66046  1.0000
  H   H1079     1.0  0.29616  0.69957  0.68868  1.0000
  H   H1080     1.0  0.31403  0.66408  0.92071  1.0000
  H   H1081     1.0  0.39103  0.48679  0.87429  1.0000
  H   H1082     1.0  0.29505  0.67825  0.68166  1.0000
  C   C661      1.0  0.25328  0.71961  0.69219  1.0000
  S   S210      1.0  0.43022  0.71896  0.86418  1.0000
  C   C662      1.0  0.13889  0.49099  0.71342  1.0000
  H   H1083     1.0  0.41093  0.72133  0.92856  1.0000
  S   S211      1.0  0.37415  0.66990  0.93925  1.0000
  H   H1084     1.0  0.05249  0.72182  0.64797  1.0000
  H   H1085     1.0  0.32218  0.49208  0.72286  1.0000
  H   H1086     1.0  0.43616  0.71314  0.92203  1.0000
  H   H1087     1.0  0.33833  0.48402  0.74969  1.0000
  C   C663      1.0  0.14201  0.54369  0.69440  1.0000
  N   N46       1.0  0.26685  0.69696  0.72040  1.0000
  H   H1088     1.0  0.34509  0.49238  0.93832  1.0000
  C   C664      1.0  0.24704  0.69296  0.73035  1.0000
  N   N47       1.0  0.30538  0.52001  0.72673  1.0000
  C   C665      1.0  0.28624  0.51781  0.72278  1.0000
  C   C666      1.0  0.30103  0.53290  0.74131  1.0000
  C   C667      1.0  0.31675  0.52850  0.70825  1.0000
  H   H1089     1.0  0.11257  0.48407  0.70886  1.0000
  C   C668      1.0  0.29112  0.55364  0.73497  1.0000
  C   C669      1.0  0.33620  0.53382  0.70889  1.0000
  H   H1090     1.0  0.47281  0.66106  0.83578  1.0000
  H   H1091     1.0  0.27931  0.53126  0.71464  1.0000
  H   H1092     1.0  0.31419  0.53410  0.74618  1.0000
  H   H1093     1.0  0.29180  0.52663  0.75440  1.0000
  C   C670      1.0  0.31559  0.50036  0.73450  1.0000
  H   H1094     1.0  0.30800  0.54144  0.70104  1.0000
  C   C671      1.0  0.47550  0.69148  0.82678  1.0000
  H   H1095     1.0  0.02292  0.54258  0.64652  1.0000
  C   C672      1.0  0.32128  0.71431  0.86865  1.0000
  H   H1096     1.0  0.28769  0.56137  0.74714  1.0000
  H   H1097     1.0  0.30077  0.56153  0.72351  1.0000
  H   H1098     1.0  0.27728  0.55445  0.73030  1.0000
  H   H1099     1.0  0.38353  0.70501  0.88597  1.0000
  H   H1100     1.0  0.33901  0.54610  0.69732  1.0000
  C   C673      1.0  0.42539  0.72493  0.92779  1.0000
  H   H1101     1.0  0.37579  0.60648  0.90832  1.0000
  C   C674      1.0  0.40232  0.48998  0.88082  1.0000
  H   H1102     1.0  0.12946  0.53752  0.70341  1.0000
  C   C675      1.0  0.15859  0.69157  0.67607  1.0000
  H   H1103     1.0  0.15538  0.65537  0.67867  1.0000
  H   H1104     1.0  0.16738  0.70303  0.67393  1.0000
  C   C676      1.0  0.14371  0.56086  0.70282  1.0000
  H   H1105     1.0  0.27898  0.66764  0.71741  1.0000
  H   H1106     1.0  0.25305  0.67515  0.75780  1.0000
  H   H1107     1.0  0.36719  0.57956  0.95588  1.0000
  H   H1108     1.0  0.99967  0.54160  0.70822  1.0000
  H   H1109     1.0  0.27797  0.72185  0.70263  1.0000
  C   C677      1.0  0.27571  0.68183  0.70832  1.0000
  Fe  Fe103     1.0  0.35954  0.50183  0.81302  1.0000
  C   C678      1.0  0.14066  0.52812  0.66863  1.0000
  N   N48       1.0  0.16381  0.68073  0.65979  1.0000
  H   H1110     1.0  0.39734  0.62412  0.94452  1.0000
  H   H1111     1.0  0.44196  0.69623  0.95347  1.0000
  C   C679      1.0  0.99969  0.56782  0.64458  1.0000
  H   H1112     1.0  0.37466  0.72707  0.82576  1.0000
  C   C680      1.0  0.33115  0.73200  0.86497  1.0000
  C   C681      1.0  0.10770  0.65606  0.64033  1.0000
  H   H1113     1.0  0.02150  0.66796  0.65818  1.0000
  H   H1114     1.0  0.11696  0.55505  0.64338  1.0000
  H   H1115     1.0  0.29255  0.53197  0.65676  1.0000
  H   H1116     1.0  0.26520  0.51160  0.77603  1.0000
  C   C682      1.0  0.40786  0.55078  0.88297  1.0000
  H   H1117     1.0  0.23843  0.71641  0.69677  1.0000
  C   C683      1.0  0.28698  0.48748  0.78357  1.0000
  H   H1118     1.0  0.21760  0.71211  0.66291  1.0000
  Fe  Fe104     1.0  0.32273  0.48841  0.81093  1.0000
  H   H1119     1.0  0.15625  0.72260  0.64716  1.0000
  H   H1120     1.0  0.36224  0.62896  0.91285  1.0000
  H   H1121     1.0  0.01894  0.58239  0.68068  1.0000
  S   S212      1.0  0.32857  0.51045  0.82531  1.0000
  H   H1122     1.0  0.37743  0.55463  0.88704  1.0000
  H   H1123     1.0  0.41892  0.51782  0.90558  1.0000
  H   H1124     1.0  0.02223  0.59215  0.65541  1.0000
  H   H1125     1.0  0.32547  0.50417  0.75976  1.0000
  H   H1126     1.0  0.15741  0.55457  0.64625  1.0000
  H   H1127     1.0  0.41684  0.70932  0.80408  1.0000
  H   H1128     1.0  0.17010  0.52023  0.65293  1.0000
  H   H1129     1.0  0.37841  0.53097  0.91563  1.0000
  H   H1130     1.0  0.13168  0.57303  0.70112  1.0000
  C   C684      1.0  0.16065  0.51495  0.66626  1.0000
  H   H1131     1.0  0.99502  0.58740  0.72311  1.0000
  C   C685      1.0  0.35686  0.57104  0.93393  1.0000
  H   H1132     1.0  0.01523  0.55368  0.67734  1.0000
  Fe  Fe105     1.0  0.24283  0.49320  0.68985  1.0000
  N   N49       1.0  0.31949  0.57889  0.78987  1.0000
  C   C686      1.0  0.32365  0.58850  0.80462  1.0000
  C   C687      1.0  0.29885  0.57567  0.79574  1.0000
  C   C688      1.0  0.32194  0.59226  0.77101  1.0000
  C   C689      1.0  0.33373  0.56040  0.78932  1.0000
  C   C690      1.0  0.34189  0.59790  0.79903  1.0000
  C   C691      1.0  0.29433  0.56227  0.81485  1.0000
  C   C692      1.0  0.31169  0.58948  0.75558  1.0000
  C   C693      1.0  0.33114  0.54686  0.77680  1.0000
  H   H1133     1.0  0.31135  0.59995  0.80861  1.0000
  H   H1134     1.0  0.32528  0.57815  0.81802  1.0000
  H   H1135     1.0  0.29417  0.56964  0.78515  1.0000
  H   H1136     1.0  0.28886  0.58962  0.79648  1.0000
  H   H1137     1.0  0.31629  0.60733  0.77301  1.0000
  H   H1138     1.0  0.33753  0.59174  0.76474  1.0000
  H   H1139     1.0  0.34871  0.56331  0.78428  1.0000
  H   H1140     1.0  0.33438  0.55191  0.80379  1.0000
  H   H1141     1.0  0.33981  0.61134  0.78856  1.0000
  H   H1142     1.0  0.34485  0.60194  0.81178  1.0000
  H   H1143     1.0  0.35486  0.58818  0.79338  1.0000
  H   H1144     1.0  0.30273  0.54762  0.81459  1.0000
  H   H1145     1.0  0.29675  0.56792  0.82689  1.0000
  H   H1146     1.0  0.27882  0.56100  0.81758  1.0000
  H   H1147     1.0  0.31550  0.57483  0.75239  1.0000
  H   H1148     1.0  0.31609  0.59932  0.74224  1.0000
  H   H1149     1.0  0.29576  0.59350  0.75938  1.0000
  H   H1150     1.0  0.33909  0.55035  0.76214  1.0000
  H   H1151     1.0  0.31592  0.54652  0.77660  1.0000
  H   H1152     1.0  0.33714  0.53190  0.78279  1.0000
  S   S213      1.0  0.09131  0.56419  0.71590  1.0000
  S   S214      1.0  0.32301  0.49337  0.87936  1.0000
  C   C694      1.0  0.34023  0.66631  0.92939  1.0000
  C   C695      1.0  0.05731  0.55845  0.70878  1.0000
  C   C696      1.0  0.04566  0.54759  0.70406  1.0000
  S   S215      1.0  0.11407  0.65065  0.70815  1.0000
  C   C697      1.0  0.32919  0.66497  0.91617  1.0000
  H   H1153     1.0  0.26762  0.66810  0.66736  1.0000
  N   N50       1.0  0.35871  0.60577  0.93666  1.0000
  S   S216      1.0  0.40350  0.53882  0.96228  1.0000
  H   H1154     1.0  0.34821  0.52161  0.70675  1.0000
  S   S217      1.0  0.07399  0.64846  0.68095  1.0000
  H   H1155     1.0  0.05151  0.57299  0.71092  1.0000
  C   C698      1.0  0.41122  0.69689  0.96060  1.0000
  H   H1156     1.0  0.33647  0.53888  0.72199  1.0000
  Fe  Fe106     1.0  0.09396  0.63398  0.70137  1.0000
  H   H1157     1.0  0.31680  0.60708  0.97159  1.0000
  H   H1158     1.0  0.49091  0.72352  0.82450  1.0000
  H   H1159     1.0  0.11496  0.68147  0.64552  1.0000
  H   H1160     1.0  0.40527  0.51855  0.92866  1.0000
  C   C699      1.0  0.35976  0.66773  0.92348  1.0000
  H   H1161     1.0  0.14217  0.58534  0.66865  1.0000
  N   N51       1.0  0.42854  0.72613  0.94718  1.0000
  H   H1162     1.0  0.41064  0.69257  0.94713  1.0000
  H   H1163     1.0  0.15492  0.53283  0.69714  1.0000
  H   H1164     1.0  0.28365  0.68080  0.74169  1.0000
  C   C700      1.0  0.01244  0.59253  0.66921  1.0000
  H   H1165     1.0  0.30656  0.70109  0.71717  1.0000
  H   H1166     1.0  0.40314  0.51628  0.86072  1.0000
  C   C701      1.0  0.36971  0.61598  0.94564  1.0000
  C   C702      1.0  0.40325  0.51157  0.87622  1.0000
  H   H1167     1.0  0.30486  0.70174  0.74156  1.0000
  H   H1168     1.0  0.10888  0.55031  0.67903  1.0000
  C   C703      1.0  0.44806  0.73149  0.94556  1.0000
  C   C704      1.0  0.15910  0.48601  0.71122  1.0000
  H   H1169     1.0  0.18760  0.64476  0.67436  1.0000
  C   C705      1.0  0.27104  0.49682  0.77492  1.0000
  C   C706      1.0  0.24661  0.67457  0.74551  1.0000
  H   H1170     1.0  0.16245  0.68206  0.68921  1.0000
  C   C707      1.0  0.36354  0.71836  0.83359  1.0000
  S   S218      1.0  0.22912  0.49847  0.71912  1.0000
  H   H1171     1.0  0.42132  0.54250  0.87617  1.0000
  H   H1172     1.0  0.45196  0.67644  0.82871  1.0000
  H   H1173     1.0  0.19031  0.66807  0.64306  1.0000
  H   H1174     1.0  0.15866  0.50044  0.66528  1.0000
  H   H1175     1.0  0.01120  0.60708  0.67243  1.0000
  C   C708      1.0  0.26061  0.68156  0.66022  1.0000
  C   C709      1.0  0.26264  0.48715  0.76491  1.0000
  H   H1176     1.0  0.30637  0.71896  0.86556  1.0000
  C   C710      1.0  0.33454  0.49177  0.91302  1.0000
  C   C711      1.0  0.11654  0.56662  0.65123  1.0000
  C   C712      1.0  0.04912  0.67675  0.64311  1.0000
  C   C713      1.0  0.99960  0.55374  0.67849  1.0000
  H   H1177     1.0  0.02665  0.70686  0.65414  1.0000
  H   H1178     1.0  0.10175  0.57529  0.65191  1.0000
  H   H1179     1.0  0.37960  0.71224  0.85587  1.0000
  H   H1180     1.0  0.37900  0.50668  0.91448  1.0000
  H   H1181     1.0  0.41780  0.51293  0.87786  1.0000
  H   H1182     1.0  0.23134  0.67293  0.75119  1.0000
  H   H1183     1.0  0.13703  0.66952  0.66695  1.0000
  H   H1184     1.0  0.20922  0.65460  0.66813  1.0000
  H   H1185     1.0  0.34296  0.72858  0.89709  1.0000
  H   H1186     1.0  0.33681  0.58779  0.97110  1.0000
  C   C714      1.0  0.15289  0.66425  0.66481  1.0000
  Fe  Fe107     1.0  0.39232  0.51131  0.97309  1.0000
  H   H1187     1.0  0.05126  0.68034  0.65644  1.0000
  H   H1188     1.0  0.14313  0.55623  0.71834  1.0000
  H   H1189     1.0  0.34317  0.50714  0.73826  1.0000
  C   C715      1.0  0.23244  0.70632  0.65762  1.0000
  H   H1190     1.0  0.36673  0.70472  0.82804  1.0000
  H   H1191     1.0  0.13148  0.50276  0.72061  1.0000
  H   H1192     1.0  0.41168  0.57434  0.96742  1.0000
  H   H1193     1.0  0.12930  0.68978  0.69215  1.0000
  H   H1194     1.0  0.27585  0.51499  0.73619  1.0000
  C   C716      1.0  0.35301  0.71933  0.88753  1.0000
  C   C717      1.0  0.13697  0.70014  0.68130  1.0000
  S   S219      1.0  0.21719  0.48404  0.68366  1.0000
  C   C718      1.0  0.36672  0.58468  0.94059  1.0000
  C   C719      1.0  0.37307  0.71575  0.89335  1.0000
  H   H1195     1.0  0.34314  0.59715  0.90662  1.0000
  H   H1196     1.0  0.29249  0.72153  0.72724  1.0000
  C   C720      1.0  0.03517  0.66218  0.64937  1.0000
  C   C721      1.0  0.34743  0.48578  0.92595  1.0000
  C   C722      1.0  0.36417  0.71376  0.85497  1.0000
  C   C723      1.0  0.18537  0.67378  0.65654  1.0000
  C   C724      1.0  0.29467  0.68450  0.69435  1.0000
  H   H1197     1.0  0.31554  0.50412  0.96340  1.0000
  H   H1198     1.0  0.34099  0.57518  0.93575  1.0000
  H   H1199     1.0  0.39987  0.60170  0.93722  1.0000
  H   H1200     1.0  0.19067  0.66331  0.68601  1.0000
  H   H1201     1.0  0.36293  0.56970  0.91894  1.0000
  H   H1202     1.0  0.35939  0.55666  0.94293  1.0000
  H   H1203     1.0  0.32833  0.60416  0.93897  1.0000
  H   H1204     1.0  0.32881  0.70386  0.85928  1.0000
  C   C725      1.0  0.33268  0.60351  0.96703  1.0000
  H   H1205     1.0  0.15637  0.58594  0.64557  1.0000
  H   H1206     1.0  0.45843  0.71628  0.97192  1.0000
  C   C726      1.0  0.33767  0.61030  0.94541  1.0000
  H   H1207     1.0  0.33245  0.62607  0.94251  1.0000
  C   C727      1.0  0.36162  0.61341  0.91558  1.0000
  H   H1208     1.0  0.40777  0.56600  0.87607  1.0000
  S   S220      1.0  0.36388  0.50755  0.96792  1.0000
  H   H1209     1.0  0.23879  0.70506  0.73752  1.0000
  H   H1210     1.0  0.38216  0.58177  0.93381  1.0000
  C   C728      1.0  0.34607  0.61183  0.90465  1.0000
  C   C729      1.0  0.26408  0.71689  0.70887  1.0000
  H   H1211     1.0  0.12934  0.70437  0.66907  1.0000
  C   C730      1.0  0.00374  0.63272  0.70604  1.0000
  H   H1212     1.0  0.15778  0.56563  0.69709  1.0000
  C   C731      1.0  0.42900  0.70628  0.95900  1.0000
  H   H1213     1.0  0.36256  0.63115  0.94564  1.0000
  H   H1214     1.0  0.35112  0.61631  0.88923  1.0000
  H   H1215     1.0  0.13046  0.51995  0.67932  1.0000
  H   H1216     1.0  0.25377  0.66153  0.73958  1.0000
  H   H1217     1.0  0.19325  0.68588  0.65480  1.0000
  H   H1218     1.0  0.23824  0.69167  0.72006  1.0000
  Fe  Fe108     1.0  0.33435  0.48686  0.84970  1.0000
  H   H1219     1.0  0.14276  0.69567  0.64181  1.0000
  S   S221      1.0  0.29777  0.50077  0.79475  1.0000
  C   C732      1.0  0.24269  0.71659  0.64154  1.0000
  N   N52       1.0  0.49176  0.69326  0.83598  1.0000
  H   H1220     1.0  0.01223  0.69797  0.64235  1.0000
  C   C733      1.0  0.29660  0.70569  0.72968  1.0000
  Fe  Fe109     1.0  0.20451  0.48666  0.71383  1.0000
  H   H1221     1.0  0.13559  0.71344  0.68705  1.0000
  C   C734      1.0  0.39111  0.61626  0.93651  1.0000
  H   H1222     1.0  0.03073  0.56445  0.64686  1.0000
  C   C735      1.0  0.15630  0.55654  0.66113  1.0000
  H   H1223     1.0  0.26523  0.67965  0.70011  1.0000
  C   C736      1.0  0.27098  0.69204  0.64435  1.0000
  H   H1224     1.0  0.14849  0.63926  0.65558  1.0000
  H   H1225     1.0  0.01316  0.48759  0.71179  1.0000
  H   H1226     1.0  0.26145  0.71086  0.68144  1.0000
  C   C737      1.0  0.33809  0.48402  0.89636  1.0000
  H   H1227     1.0  0.34810  0.70528  0.89143  1.0000
  H   H1228     1.0  0.32216  0.50291  0.91555  1.0000
  H   H1229     1.0  0.42827  0.72704  0.82386  1.0000
  H   H1230     1.0  0.17038  0.54901  0.66527  1.0000
  H   H1231     1.0  0.47233  0.71195  0.85373  1.0000
  H   H1232     1.0  0.13563  0.52973  0.65501  1.0000
  H   H1233     1.0  0.40973  0.49695  0.91974  1.0000
  C   C738      1.0  0.33153  0.49926  0.74605  1.0000
  H   H1234     1.0  0.00434  0.49962  0.68425  1.0000
  H   H1235     1.0  0.39971  0.48444  0.89625  1.0000
  H   H1236     1.0  0.45953  0.72175  0.93764  1.0000
  H   H1237     1.0  0.46232  0.49355  0.96022  1.0000
  H   H1238     1.0  0.12653  0.57630  0.64298  1.0000
  H   H1239     1.0  0.37913  0.72905  0.89110  1.0000
  H   H1240     1.0  0.37163  0.70973  0.90875  1.0000
  Fe  Fe110     1.0  0.36648  0.66095  0.97101  1.0000
  H   H1241     1.0  0.27205  0.50251  0.70884  1.0000
  H   H1242     1.0  0.29099  0.48733  0.71961  1.0000
  H   H1243     1.0  0.47542  0.68799  0.86480  1.0000
  H   H1244     1.0  0.34925  0.72534  0.83008  1.0000
  C   C739      1.0  0.48345  0.69873  0.85518  1.0000
  S   S222      1.0  0.08404  0.48367  0.66719  1.0000
  H   H1245     1.0  0.25618  0.72742  0.71815  1.0000
  N   N53       1.0  0.35213  0.72793  0.86700  1.0000
  H   H1246     1.0  0.31983  0.70704  0.88367  1.0000
  H   H1247     1.0  0.41231  0.68351  0.97130  1.0000
  H   H1248     1.0  0.49103  0.70352  0.88079  1.0000
  H   H1249     1.0  0.99889  0.53980  0.67487  1.0000
  H   H1250     1.0  0.48795  0.65918  0.86090  1.0000
  S   S223      1.0  0.40851  0.48350  0.96509  1.0000
  C   C740      1.0  0.02117  0.55820  0.64085  1.0000
  Fe  Fe111     1.0  0.46639  0.78134  0.02560  1.0000
  C   C741      1.0  0.45433  0.82373  0.06972  1.0000
  H   H1251     1.0  0.45844  0.77600  0.07090  1.0000
  H   H1252     1.0  0.42330  0.89041  0.24159  1.0000
  C   C742      1.0  0.41305  0.86568  0.26036  1.0000
  H   H1253     1.0  0.45588  0.83693  0.05983  1.0000
  H   H1254     1.0  0.42891  0.81074  0.29084  1.0000
  H   H1255     1.0  0.43539  0.84862  0.28438  1.0000
  C   C743      1.0  0.46259  0.94935  0.29147  1.0000
  H   H1256     1.0  0.43207  0.74463  0.08204  1.0000
  H   H1257     1.0  0.48895  0.78967  0.09312  1.0000
  C   C744      1.0  0.46951  0.83880  0.20715  1.0000
  S   S224      1.0  0.41542  0.74891  0.01490  1.0000
  S   S225      1.0  0.43678  0.77241  0.17494  1.0000
  S   S226      1.0  0.45945  0.89442  0.26483  1.0000
  Fe  Fe112     1.0  0.48094  0.76471  0.98915  1.0000
  H   H1258     1.0  0.46079  0.82110  0.19128  1.0000
  Fe  Fe113     1.0  0.46177  0.77575  0.18732  1.0000
  S   S227      1.0  0.46006  0.78392  0.21606  1.0000
  Fe  Fe114     1.0  0.45347  0.78491  0.14707  1.0000
  S   S228      1.0  0.43985  0.80855  0.12633  1.0000
  C   C745      1.0  0.45367  0.96348  0.30259  1.0000
  S   S229      1.0  0.46966  0.75687  0.13946  1.0000
  Fe  Fe115     1.0  0.45839  0.87586  0.29371  1.0000
  C   C746      1.0  0.44868  0.82414  0.08912  1.0000
  S   S230      1.0  0.45524  0.75497  0.04186  1.0000
  N   N54       1.0  0.41731  0.84412  0.26607  1.0000
  H   H1259     1.0  0.45598  0.93705  0.29237  1.0000
  H   H1260     1.0  0.43409  0.83723  0.23934  1.0000
  S   S231      1.0  0.47850  0.85061  0.28288  1.0000
  Fe  Fe116     1.0  0.48403  0.90442  0.27192  1.0000
  C   C747      1.0  0.46620  0.80547  0.21858  1.0000
  C   C748      1.0  0.46521  0.82167  0.20433  1.0000
  H   H1261     1.0  0.44895  0.77672  0.10558  1.0000
  C   C749      1.0  0.47520  0.83979  0.22402  1.0000
  C   C750      1.0  0.47617  0.82360  0.23827  1.0000
  C   C751      1.0  0.47154  0.80656  0.23561  1.0000
  H   H1262     1.0  0.36160  0.74467  0.09396  1.0000
  H   H1263     1.0  0.40111  0.82261  0.28399  1.0000
  S   S232      1.0  0.47825  0.74652  0.18304  1.0000
  H   H1264     1.0  0.41294  0.87290  0.27236  1.0000
  H   H1265     1.0  0.46842  0.85136  0.19616  1.0000
  C   C752      1.0  0.45779  0.80645  0.06301  1.0000
  H   H1266     1.0  0.44581  0.83764  0.09409  1.0000
  H   H1267     1.0  0.39838  0.87046  0.25654  1.0000
  C   C753      1.0  0.45051  0.78977  0.09555  1.0000
  H   H1268     1.0  0.45171  0.80967  0.27483  1.0000
  C   C754      1.0  0.45575  0.78941  0.07595  1.0000
  C   C755      1.0  0.48800  0.96775  0.27718  1.0000
  H   H1269     1.0  0.44229  0.87089  0.24613  1.0000
  H   H1270     1.0  0.44814  0.84209  0.26319  1.0000
  C   C756      1.0  0.41986  0.83552  0.24847  1.0000
  S   S233      1.0  0.46581  0.80692  0.03850  1.0000
  C   C757      1.0  0.41846  0.81416  0.25120  1.0000
  H   H1271     1.0  0.42867  0.80470  0.25989  1.0000
  H   H1272     1.0  0.42663  0.87039  0.23001  1.0000
  H   H1273     1.0  0.38096  0.73472  0.04393  1.0000
  C   C758      1.0  0.39612  0.84584  0.29906  1.0000
  Fe  Fe117     1.0  0.48109  0.86989  0.25459  1.0000
  H   H1274     1.0  0.40352  0.81160  0.25708  1.0000
  S   S234      1.0  0.48165  0.88765  0.30157  1.0000
  S   S235      1.0  0.45311  0.78279  0.00008  1.0000
  H   H1275     1.0  0.47228  0.79408  0.24671  1.0000
  H   H1276     1.0  0.39528  0.75458  0.06129  1.0000
  C   C759      1.0  0.44695  0.80720  0.10211  1.0000
  H   H1277     1.0  0.42231  0.80968  0.23709  1.0000
  H   H1278     1.0  0.36555  0.74663  0.06110  1.0000
  H   H1279     1.0  0.38673  0.84326  0.27376  1.0000
  S   S236      1.0  0.47679  0.79072  0.16000  1.0000
  H   H1280     1.0  0.40879  0.84332  0.23967  1.0000
  C   C760      1.0  0.42726  0.87456  0.24354  1.0000
  H   H1281     1.0  0.39218  0.86167  0.29710  1.0000
  C   C761      1.0  0.43558  0.83906  0.27435  1.0000
  H   H1282     1.0  0.48047  0.82425  0.25131  1.0000
  C   C762      1.0  0.44117  0.81828  0.28452  1.0000
  Fe  Fe118     1.0  0.45459  0.74446  0.16819  1.0000
  H   H1283     1.0  0.44580  0.74680  0.09882  1.0000
  C   C763      1.0  0.40005  0.83835  0.28017  1.0000
  Fe  Fe119     1.0  0.48324  0.73960  0.02789  1.0000
  C   C764      1.0  0.43925  0.73652  0.09405  1.0000
  H   H1284     1.0  0.34038  0.73485  0.09397  1.0000
  S   S237      1.0  0.49093  0.93443  0.26400  1.0000
  S   S238      1.0  0.48185  0.86117  0.22633  1.0000
  H   H1285     1.0  0.48800  0.75501  0.08925  1.0000
  C   C765      1.0  0.47974  0.95149  0.27869  1.0000
  Fe  Fe120     1.0  0.44467  0.75476  0.01534  1.0000
  H   H1286     1.0  0.42046  0.74021  0.14707  1.0000
  C   C766      1.0  0.46201  0.97967  0.30118  1.0000
  H   H1287     1.0  0.44812  0.81846  0.29663  1.0000
  C   C767      1.0  0.47927  0.98172  0.28851  1.0000
  C   C768      1.0  0.39574  0.73884  0.06454  1.0000
  S   S239      1.0  0.47165  0.73673  0.00288  1.0000
  H   H1288     1.0  0.44293  0.73915  0.97412  1.0000
  C   C769      1.0  0.37759  0.73429  0.05949  1.0000
  H   H1289     1.0  0.39661  0.73464  0.07977  1.0000
  H   H1290     1.0  0.39555  0.73734  0.20008  1.0000
  H   H1291     1.0  0.40856  0.84104  0.30665  1.0000
  Fe  Fe121     1.0  0.49170  0.76144  0.15489  1.0000
  H   H1292     1.0  0.36682  0.73449  0.19133  1.0000
  Fe  Fe122     1.0  0.10689  0.76088  0.55757  1.0000
  H   H1293     1.0  0.16596  0.74479  0.49971  1.0000
  S   S240      1.0  0.12723  0.78210  0.54665  1.0000
  H   H1294     1.0  0.27239  0.91193  0.62778  1.0000
  C   C770      1.0  0.44007  0.95152  0.37537  1.0000
  Fe  Fe123     1.0  0.33222  0.90936  0.59669  1.0000
  S   S241      1.0  0.35906  0.91830  0.57885  1.0000
  Fe  Fe124     1.0  0.33034  0.89665  0.41649  1.0000
  Fe  Fe125     1.0  0.34501  0.86788  0.59185  1.0000
  S   S242      1.0  0.37359  0.87332  0.57390  1.0000
  S   S243      1.0  0.33653  0.83837  0.60057  1.0000
  Fe  Fe126     1.0  0.37461  0.89170  0.59474  1.0000
  S   S244      1.0  0.40207  0.89669  0.60198  1.0000
  Fe  Fe127     1.0  0.35590  0.89945  0.55952  1.0000
  S   S245      1.0  0.36243  0.90913  0.52782  1.0000
  S   S246      1.0  0.34772  0.88389  0.61412  1.0000
  S   S247      1.0  0.32728  0.89291  0.57602  1.0000
  Fe  Fe128     1.0  0.22136  0.76875  0.58825  1.0000
  S   S248      1.0  0.24110  0.74268  0.57931  1.0000
  S   S249      1.0  0.19032  0.76527  0.59942  1.0000
  Fe  Fe129     1.0  0.25452  0.79118  0.58187  1.0000
  S   S250      1.0  0.27651  0.76643  0.57300  1.0000
  S   S251      1.0  0.26265  0.82066  0.57763  1.0000
  Fe  Fe130     1.0  0.25513  0.76344  0.55603  1.0000
  S   S252      1.0  0.26605  0.75960  0.52560  1.0000
  Fe  Fe131     1.0  0.26025  0.74806  0.59729  1.0000
  S   S253      1.0  0.23384  0.78917  0.56347  1.0000
  S   S254      1.0  0.23980  0.77317  0.60771  1.0000
  C   C771      1.0  0.31553  0.92073  0.46359  1.0000
  S   S255      1.0  0.03272  0.77342  0.45313  1.0000
  C   C772      1.0  0.27391  0.73772  0.34848  1.0000
  C   C773      1.0  0.01702  0.74934  0.55749  1.0000
  S   S256      1.0  0.04718  0.77752  0.40743  1.0000
  H   H1295     1.0  0.43791  0.90756  0.32266  1.0000
  Fe  Fe132     1.0  0.06085  0.77325  0.43332  1.0000
  S   S257      1.0  0.08079  0.78972  0.44052  1.0000
  Fe  Fe133     1.0  0.01932  0.77464  0.42801  1.0000
  H   H1296     1.0  0.37722  0.94790  0.35786  1.0000
  C   C774      1.0  0.27193  0.90647  0.59317  1.0000
  H   H1297     1.0  0.16953  0.73744  0.47769  1.0000
  H   H1298     1.0  0.30197  0.84864  0.63948  1.0000
  H   H1299     1.0  0.02430  0.82736  0.47317  1.0000
  S   S258      1.0  0.21995  0.77257  0.39030  1.0000
  H   H1300     1.0  0.40139  0.93560  0.56364  1.0000
  Fe  Fe134     1.0  0.21197  0.76087  0.44502  1.0000
  S   S259      1.0  0.19830  0.78867  0.42913  1.0000
  S   S260      1.0  0.20402  0.75681  0.47695  1.0000
  Fe  Fe135     1.0  0.19197  0.77081  0.41048  1.0000
  S   S261      1.0  0.16650  0.77109  0.39703  1.0000
  Fe  Fe136     1.0  0.22765  0.78774  0.41064  1.0000
  S   S262      1.0  0.23917  0.81567  0.40113  1.0000
  H   H1301     1.0  0.99472  0.77559  0.59173  1.0000
  S   S263      1.0  0.24167  0.76068  0.42741  1.0000
  Fe  Fe137     1.0  0.36847  0.86987  0.41070  1.0000
  S   S264      1.0  0.40030  0.86808  0.39767  1.0000
  Fe  Fe138     1.0  0.34133  0.86618  0.44943  1.0000
  C   C775      1.0  0.13118  0.75007  0.47206  1.0000
  S   S265      1.0  0.33573  0.85822  0.48140  1.0000
  Fe  Fe139     1.0  0.33073  0.85441  0.41580  1.0000
  S   S266      1.0  0.32101  0.82794  0.41140  1.0000
  S   S267      1.0  0.35657  0.84520  0.43043  1.0000
  H   H1302     1.0  0.29650  0.89024  0.61913  1.0000
  C   C776      1.0  0.26165  0.81897  0.40480  1.0000
  C   C777      1.0  0.27548  0.80345  0.41072  1.0000
  C   C778      1.0  0.29364  0.80647  0.41250  1.0000
  C   C779      1.0  0.29784  0.82510  0.40916  1.0000
  C   C780      1.0  0.28380  0.84067  0.40376  1.0000
  C   C781      1.0  0.26586  0.83758  0.40135  1.0000
  H   H1303     1.0  0.27221  0.78914  0.41377  1.0000
  H   H1304     1.0  0.30445  0.79436  0.41673  1.0000
  H   H1305     1.0  0.28693  0.85505  0.40101  1.0000
  H   H1306     1.0  0.25520  0.84967  0.39676  1.0000
  C   C782      1.0  0.42047  0.87183  0.33352  1.0000
  C   C783      1.0  0.43393  0.86664  0.34574  1.0000
  C   C784      1.0  0.42755  0.86496  0.36546  1.0000
  C   C785      1.0  0.40774  0.86862  0.37304  1.0000
  C   C786      1.0  0.39435  0.87356  0.36078  1.0000
  C   C787      1.0  0.40069  0.87507  0.34112  1.0000
  H   H1307     1.0  0.37909  0.87643  0.36640  1.0000
  H   H1308     1.0  0.28574  0.73883  0.33608  1.0000
  H   H1309     1.0  0.44133  0.90199  0.35599  1.0000
  H   H1310     1.0  0.25231  0.79589  0.35381  1.0000
  H   H1311     1.0  0.30344  0.73848  0.40516  1.0000
  H   H1312     1.0  0.34543  0.91908  0.46506  1.0000
  H   H1313     1.0  0.35766  0.92344  0.40090  1.0000
  C   C788      1.0  0.33451  0.94481  0.48699  1.0000
  C   C789      1.0  0.48789  0.96594  0.63341  1.0000
  H   H1314     1.0  0.43817  0.94457  0.39048  1.0000
  C   C790      1.0  0.27349  0.78086  0.37213  1.0000
  C   C791      1.0  0.10462  0.78467  0.42847  1.0000
  C   C792      1.0  0.10892  0.77405  0.41385  1.0000
  C   C793      1.0  0.12794  0.77026  0.40415  1.0000
  C   C794      1.0  0.14286  0.77652  0.40941  1.0000
  C   C795      1.0  0.13862  0.78705  0.42413  1.0000
  C   C796      1.0  0.11944  0.79132  0.43350  1.0000
  H   H1315     1.0  0.09750  0.76908  0.40977  1.0000
  H   H1316     1.0  0.13103  0.76257  0.39248  1.0000
  H   H1317     1.0  0.15004  0.79223  0.42797  1.0000
  H   H1318     1.0  0.11605  0.79982  0.44461  1.0000
  C   C797      1.0  0.38485  0.94566  0.62625  1.0000
  C   C798      1.0  0.25042  0.85230  0.61851  1.0000
  S   S268      1.0  0.08861  0.75558  0.58635  1.0000
  H   H1319     1.0  0.28642  0.90866  0.59412  1.0000
  C   C799      1.0  0.31063  0.95225  0.61140  1.0000
  C   C800      1.0  0.24868  0.75933  0.51203  1.0000
  C   C801      1.0  0.25479  0.75454  0.49389  1.0000
  C   C802      1.0  0.24122  0.75410  0.48281  1.0000
  C   C803      1.0  0.22146  0.75856  0.48980  1.0000
  C   C804      1.0  0.21538  0.76390  0.50770  1.0000
  C   C805      1.0  0.22893  0.76419  0.51886  1.0000
  H   H1320     1.0  0.27006  0.75083  0.48851  1.0000
  H   H1321     1.0  0.30837  0.77436  0.35582  1.0000
  H   H1322     1.0  0.20011  0.76784  0.51296  1.0000
  H   H1323     1.0  0.22409  0.76818  0.53273  1.0000
  C   C806      1.0  0.35603  0.89405  0.51519  1.0000
  C   C807      1.0  0.36332  0.89499  0.49577  1.0000
  C   C808      1.0  0.35739  0.88382  0.48532  1.0000
  C   C809      1.0  0.34399  0.87186  0.49421  1.0000
  C   C810      1.0  0.33698  0.87070  0.51369  1.0000
  C   C811      1.0  0.34306  0.88167  0.52417  1.0000
  H   H1324     1.0  0.37363  0.90427  0.48881  1.0000
  H   H1325     1.0  0.36326  0.88440  0.47041  1.0000
  H   H1326     1.0  0.32657  0.86156  0.52070  1.0000
  H   H1327     1.0  0.33742  0.88078  0.53913  1.0000
  C   C812      1.0  0.31711  0.83284  0.59269  1.0000
  C   C813      1.0  0.30722  0.84591  0.57953  1.0000
  C   C814      1.0  0.29066  0.84187  0.57495  1.0000
  C   C815      1.0  0.28414  0.82452  0.58305  1.0000
  C   C816      1.0  0.29448  0.81107  0.59560  1.0000
  C   C817      1.0  0.31085  0.81528  0.60046  1.0000
  H   H1328     1.0  0.31210  0.85929  0.57315  1.0000
  H   H1329     1.0  0.28281  0.85230  0.56513  1.0000
  C   C818      1.0  0.40827  0.94411  0.35703  1.0000
  H   H1330     1.0  0.40387  0.96651  0.54958  1.0000
  C   C819      1.0  0.39034  0.93729  0.35399  1.0000
  C   C820      1.0  0.26961  0.85555  0.62244  1.0000
  H   H1331     1.0  0.99608  0.78249  0.50861  1.0000
  C   C821      1.0  0.38164  0.95765  0.49651  1.0000
  C   C822      1.0  0.00072  0.74899  0.54982  1.0000
  H   H1332     1.0  0.39626  0.92842  0.52511  1.0000
  C   C823      1.0  0.01496  0.75914  0.57249  1.0000
  C   C824      1.0  0.12818  0.76069  0.50212  1.0000
  H   H1333     1.0  0.29452  0.76352  0.40132  1.0000
  H   H1334     1.0  0.36977  0.93568  0.44335  1.0000
  C   C825      1.0  0.99473  0.79631  0.51327  1.0000
  C   C826      1.0  0.40600  0.89275  0.62555  1.0000
  C   C827      1.0  0.14453  0.77862  0.56140  1.0000
  C   C828      1.0  0.16239  0.78472  0.55432  1.0000
  C   C829      1.0  0.17673  0.78064  0.56574  1.0000
  C   C830      1.0  0.17300  0.77092  0.58444  1.0000
  C   C831      1.0  0.15511  0.76504  0.59149  1.0000
  C   C832      1.0  0.14105  0.76865  0.57997  1.0000
  H   H1335     1.0  0.16525  0.79227  0.53990  1.0000
  H   H1336     1.0  0.19052  0.78519  0.56019  1.0000
  H   H1337     1.0  0.15215  0.75749  0.60590  1.0000
  H   H1338     1.0  0.12744  0.76376  0.58554  1.0000
  H   H1339     1.0  0.33623  0.95799  0.49146  1.0000
  H   H1340     1.0  0.15347  0.75188  0.44609  1.0000
  C   C833      1.0  0.30060  0.76471  0.35143  1.0000
  C   C834      1.0  0.32479  0.96363  0.40789  1.0000
  C   C835      1.0  0.99644  0.76802  0.58010  1.0000
  H   H1341     1.0  0.00246  0.74173  0.53796  1.0000
  H   H1342     1.0  0.13566  0.76359  0.51275  1.0000
  H   H1343     1.0  0.16019  0.74627  0.34109  1.0000
  H   H1344     1.0  0.45471  0.92593  0.36414  1.0000
  H   H1345     1.0  0.24605  0.74988  0.46907  1.0000
  C   C836      1.0  0.31315  0.96135  0.46332  1.0000
  Fe  Fe140     1.0  0.06658  0.74974  0.57151  1.0000
  H   H1346     1.0  0.30886  0.91835  0.47869  1.0000
  H   H1347     1.0  0.12042  0.76234  0.46663  1.0000
  C   C837      1.0  0.39261  0.93787  0.53596  1.0000
  H   H1348     1.0  0.30465  0.92921  0.45496  1.0000
  H   H1349     1.0  0.38771  0.92328  0.36257  1.0000
  H   H1350     1.0  0.26106  0.77910  0.38399  1.0000
  H   H1351     1.0  0.25420  0.75514  0.36706  1.0000
  C   C838      1.0  0.42925  0.91318  0.35145  1.0000
  H   H1352     1.0  0.28405  0.78614  0.37793  1.0000
  C   C839      1.0  0.25799  0.88595  0.63416  1.0000
  N   N55       1.0  0.39438  0.95822  0.52675  1.0000
  C   C840      1.0  0.05634  0.76894  0.49501  1.0000
  C   C841      1.0  0.41830  0.97790  0.50322  1.0000
  S   S269      1.0  0.30795  0.92859  0.61183  1.0000
  H   H1353     1.0  0.31963  0.90643  0.45926  1.0000
  H   H1354     1.0  0.09830  0.77135  0.49762  1.0000
  C   C842      1.0  0.04486  0.79004  0.52708  1.0000
  H   H1355     1.0  0.33531  0.95307  0.58886  1.0000
  H   H1356     1.0  0.42820  0.96383  0.37321  1.0000
  H   H1357     1.0  0.26048  0.91621  0.60096  1.0000
  S   S270      1.0  0.34380  0.87785  0.39458  1.0000
  H   H1358     1.0  0.01337  0.74246  0.35356  1.0000
  H   H1359     1.0  0.36913  0.96423  0.48930  1.0000
  C   C843      1.0  0.26913  0.88548  0.59968  1.0000
  C   C844      1.0  0.37259  0.97175  0.55542  1.0000
  H   H1360     1.0  0.42545  0.95358  0.52407  1.0000
  H   H1361     1.0  0.11418  0.78787  0.48589  1.0000
  H   H1362     1.0  0.25414  0.88552  0.59797  1.0000
  C   C845      1.0  0.35742  0.97062  0.40034  1.0000
  C   C846      1.0  0.28584  0.74746  0.38308  1.0000
  S   S271      1.0  0.02302  0.74278  0.43119  1.0000
  H   H1363     1.0  0.26372  0.76759  0.34455  1.0000
  C   C847      1.0  0.34808  0.95876  0.45494  1.0000
  H   H1364     1.0  0.42999  0.97557  0.49089  1.0000
  H   H1365     1.0  0.49184  0.95093  0.63085  1.0000
  C   C848      1.0  0.33747  0.97678  0.40484  1.0000
  H   H1366     1.0  0.03434  0.74988  0.37291  1.0000
  H   H1367     1.0  0.39116  0.93702  0.33876  1.0000
  H   H1368     1.0  0.49016  0.97541  0.61949  1.0000
  N   N56       1.0  0.14210  0.75608  0.48456  1.0000
  H   H1369     1.0  0.28143  0.84721  0.61351  1.0000
  H   H1370     1.0  0.03118  0.74234  0.55158  1.0000
  H   H1371     1.0  0.10223  0.74396  0.35408  1.0000
  H   H1372     1.0  0.20403  0.73574  0.56841  1.0000
  H   H1373     1.0  0.40490  0.91231  0.38479  1.0000
  Fe  Fe141     1.0  0.23115  0.74542  0.40869  1.0000
  H   H1374     1.0  0.37906  0.95606  0.44479  1.0000
  H   H1375     1.0  0.05146  0.81076  0.49480  1.0000
  H   H1376     1.0  0.38366  0.84006  0.30855  1.0000
  H   H1377     1.0  0.06247  0.78095  0.48530  1.0000
  H   H1378     1.0  0.45364  0.95749  0.37227  1.0000
  H   H1379     1.0  0.24903  0.83703  0.62378  1.0000
  H   H1380     1.0  0.43152  0.90576  0.61764  1.0000
  H   H1381     1.0  0.33702  0.92189  0.63767  1.0000
  C   C849      1.0  0.16043  0.74149  0.35647  1.0000
  N   N57       1.0  0.32159  0.80143  0.52962  1.0000
  C   C850      1.0  0.30097  0.80489  0.52635  1.0000
  C   C851      1.0  0.33066  0.78150  0.52601  1.0000
  C   C852      1.0  0.33193  0.81576  0.51523  1.0000
  C   C853      1.0  0.32128  0.80405  0.54957  1.0000
  C   C854      1.0  0.28961  0.82546  0.52666  1.0000
  C   C855      1.0  0.32071  0.76522  0.53866  1.0000
  C   C856      1.0  0.35337  0.81487  0.51578  1.0000
  C   C857      1.0  0.33921  0.79423  0.55873  1.0000
  H   H1382     1.0  0.30043  0.80115  0.51252  1.0000
  H   H1383     1.0  0.29228  0.79544  0.53732  1.0000
  H   H1384     1.0  0.34603  0.77784  0.52755  1.0000
  H   H1385     1.0  0.33088  0.78049  0.51100  1.0000
  H   H1386     1.0  0.33092  0.81458  0.50056  1.0000
  H   H1387     1.0  0.32500  0.83062  0.51695  1.0000
  H   H1388     1.0  0.31894  0.81956  0.55029  1.0000
  H   H1389     1.0  0.30876  0.79847  0.55932  1.0000
  H   H1390     1.0  0.29394  0.83526  0.51327  1.0000
  H   H1391     1.0  0.27397  0.82537  0.52801  1.0000
  H   H1392     1.0  0.29122  0.83130  0.53887  1.0000
  H   H1393     1.0  0.31837  0.76604  0.55390  1.0000
  H   H1394     1.0  0.30675  0.76506  0.53456  1.0000
  H   H1395     1.0  0.35513  0.81922  0.52883  1.0000
  H   H1396     1.0  0.35924  0.82548  0.50378  1.0000
  H   H1397     1.0  0.36236  0.80079  0.51392  1.0000
  H   H1398     1.0  0.34230  0.80408  0.56700  1.0000
  H   H1399     1.0  0.35267  0.79045  0.54881  1.0000
  H   H1400     1.0  0.33606  0.78133  0.56928  1.0000
  C   C858      1.0  0.31898  0.93572  0.50197  1.0000
  H   H1401     1.0  0.38226  0.94192  0.49945  1.0000
  H   H1402     1.0  0.33000  0.75121  0.53671  1.0000
  C   C859      1.0  0.36455  0.95137  0.39896  1.0000
  N   N58       1.0  0.25450  0.81669  0.47479  1.0000
  C   C860      1.0  0.25901  0.81044  0.49459  1.0000
  C   C861      1.0  0.27210  0.80915  0.46138  1.0000
  C   C862      1.0  0.23734  0.80805  0.47391  1.0000
  C   C863      1.0  0.24983  0.83827  0.47095  1.0000
  C   C864      1.0  0.24207  0.81466  0.51089  1.0000
  C   C865      1.0  0.29095  0.81616  0.46128  1.0000
  C   C866      1.0  0.23630  0.80278  0.45488  1.0000
  C   C867      1.0  0.24723  0.84778  0.45061  1.0000
  H   H1403     1.0  0.26463  0.79475  0.49728  1.0000
  H   H1404     1.0  0.27059  0.81750  0.49643  1.0000
  H   H1405     1.0  0.26961  0.81294  0.44656  1.0000
  H   H1406     1.0  0.27511  0.79318  0.46452  1.0000
  H   H1407     1.0  0.23690  0.79435  0.48411  1.0000
  H   H1408     1.0  0.22348  0.81752  0.47839  1.0000
  H   H1409     1.0  0.23625  0.84350  0.48028  1.0000
  H   H1410     1.0  0.26125  0.84449  0.47445  1.0000
  H   H1411     1.0  0.24721  0.80875  0.52454  1.0000
  H   H1412     1.0  0.23704  0.83023  0.51058  1.0000
  H   H1413     1.0  0.22972  0.80764  0.51116  1.0000
  H   H1414     1.0  0.29628  0.81108  0.47489  1.0000
  H   H1415     1.0  0.30246  0.81008  0.45038  1.0000
  H   H1416     1.0  0.28955  0.83195  0.45731  1.0000
  H   H1417     1.0  0.24764  0.79037  0.45157  1.0000
  H   H1418     1.0  0.23743  0.81476  0.44284  1.0000
  H   H1419     1.0  0.22219  0.79829  0.45606  1.0000
  H   H1420     1.0  0.26049  0.84452  0.44014  1.0000
  H   H1421     1.0  0.24423  0.86358  0.44969  1.0000
  H   H1422     1.0  0.23475  0.84395  0.44661  1.0000
  H   H1423     1.0  0.44921  0.86398  0.34003  1.0000
  H   H1424     1.0  0.31849  0.80503  0.61056  1.0000
  C   C868      1.0  0.37875  0.96578  0.51488  1.0000
  H   H1425     1.0  0.08253  0.74040  0.32923  1.0000
  H   H1426     1.0  0.28960  0.79764  0.60190  1.0000
  H   H1427     1.0  0.44018  0.96201  0.31213  1.0000
  H   H1428     1.0  0.37988  0.94654  0.39561  1.0000
  H   H1429     1.0  0.43800  0.86096  0.37488  1.0000
  S   S272      1.0  0.31483  0.87410  0.43607  1.0000
  H   H1430     1.0  0.39019  0.87904  0.33175  1.0000
  H   H1431     1.0  0.14107  0.78337  0.46504  1.0000
  C   C869      1.0  0.15097  0.77323  0.47380  1.0000
  C   C870      1.0  0.31566  0.74647  0.34804  1.0000
  S   S273      1.0  0.08375  0.75814  0.54256  1.0000
  C   C871      1.0  0.40531  0.92843  0.55110  1.0000
  H   H1432     1.0  0.04242  0.80765  0.46798  1.0000
  H   H1433     1.0  0.22008  0.74078  0.37204  1.0000
  H   H1434     1.0  0.36447  0.96282  0.52313  1.0000
  H   H1435     1.0  0.05360  0.80271  0.54752  1.0000
  N   N59       1.0  0.28235  0.76201  0.36556  1.0000
  S   S274      1.0  0.06763  0.74129  0.43702  1.0000
  H   H1436     1.0  0.10716  0.78510  0.51082  1.0000
  H   H1437     1.0  0.44578  0.94527  0.34736  1.0000
  C   C872      1.0  0.15732  0.78492  0.48597  1.0000
  C   C873      1.0  0.36855  0.94655  0.45234  1.0000
  H   H1438     1.0  0.41394  0.95294  0.34341  1.0000
  H   H1439     1.0  0.38973  0.93018  0.62573  1.0000
  H   H1440     1.0  0.34349  0.95377  0.63181  1.0000
  H   H1441     1.0  0.06576  0.76211  0.50563  1.0000
  N   N60       1.0  0.42419  0.92851  0.36356  1.0000
  H   H1442     1.0  0.40289  0.91342  0.55633  1.0000
  C   C874      1.0  0.37948  0.95564  0.60687  1.0000
  N   N61       1.0  0.33202  0.94853  0.46654  1.0000
  H   H1443     1.0  0.36425  0.95624  0.60602  1.0000
  H   H1444     1.0  0.41171  0.93073  0.39285  1.0000
  H   H1445     1.0  0.27058  0.91085  0.57798  1.0000
  S   S275      1.0  0.35570  0.89002  0.43138  1.0000
  H   H1446     1.0  0.12231  0.73917  0.48025  1.0000
  H   H1447     1.0  0.32221  0.91986  0.50359  1.0000
  C   C875      1.0  0.03504  0.73523  0.37139  1.0000
  H   H1448     1.0  0.42093  0.92763  0.54534  1.0000
  S   S276      1.0  0.31605  0.92779  0.41147  1.0000
  C   C876      1.0  0.11101  0.77714  0.49878  1.0000
  H   H1449     1.0  0.00290  0.76259  0.48366  1.0000
  H   H1450     1.0  0.40304  0.95417  0.36730  1.0000
  H   H1451     1.0  0.38781  0.94712  0.59593  1.0000
  H   H1452     1.0  0.30413  0.94107  0.49918  1.0000
  H   H1453     1.0  0.27203  0.74667  0.39331  1.0000
  S   S277      1.0  0.03502  0.76143  0.58174  1.0000
  C   C877      1.0  0.44186  0.93724  0.36195  1.0000
  H   H1454     1.0  0.01812  0.80417  0.47870  1.0000
  H   H1455     1.0  0.15791  0.73596  0.39270  1.0000
  H   H1456     1.0  0.31887  0.93962  0.51585  1.0000
  H   H1457     1.0  0.41793  0.94757  0.50532  1.0000
  H   H1458     1.0  0.04168  0.82017  0.53061  1.0000
  C   C878      1.0  0.29751  0.96265  0.62411  1.0000
  H   H1459     1.0  0.31442  0.75334  0.38476  1.0000
  H   H1460     1.0  0.27696  0.79954  0.34384  1.0000
  H   H1461     1.0  0.32889  0.74638  0.35360  1.0000
  H   H1462     1.0  0.42562  0.89956  0.40841  1.0000
  C   C879      1.0  0.32534  0.96087  0.59895  1.0000
  H   H1463     1.0  0.04369  0.77626  0.53710  1.0000
  H   H1464     1.0  0.32033  0.74675  0.33255  1.0000
  S   S278      1.0  0.20287  0.74301  0.42809  1.0000
  H   H1465     1.0  0.16589  0.79542  0.47649  1.0000
  H   H1466     1.0  0.34914  0.97116  0.46117  1.0000
  C   C880      1.0  0.01110  0.79658  0.52364  1.0000
  H   H1467     1.0  0.44982  0.92477  0.32717  1.0000
  C   C881      1.0  0.33201  0.94429  0.40665  1.0000
  C   C882      1.0  0.35195  0.93823  0.40215  1.0000
  S   S279      1.0  0.42760  0.87473  0.30869  1.0000
  H   H1468     1.0  0.44529  0.91016  0.39405  1.0000
  H   H1469     1.0  0.37055  0.95757  0.56398  1.0000
  H   H1470     1.0  0.33806  0.93222  0.44379  1.0000
  C   C883      1.0  0.33374  0.93003  0.45949  1.0000
  H   H1471     1.0  0.02611  0.77592  0.49427  1.0000
  H   H1472     1.0  0.41697  0.90555  0.35317  1.0000
  H   H1473     1.0  0.12153  0.74804  0.50970  1.0000
  C   C884      1.0  0.03533  0.77506  0.50477  1.0000
  H   H1474     1.0  0.30309  0.86947  0.60906  1.0000
  H   H1475     1.0  0.16658  0.77584  0.49590  1.0000
  C   C885      1.0  0.30045  0.75114  0.39397  1.0000
  H   H1476     1.0  0.02811  0.80539  0.54991  1.0000
  H   H1477     1.0  0.30936  0.96841  0.41127  1.0000
  H   H1478     1.0  0.03144  0.76288  0.51607  1.0000
  C   C886      1.0  0.41424  0.95832  0.51491  1.0000
  C   C887      1.0  0.26778  0.75642  0.35664  1.0000
  H   H1479     1.0  0.34503  0.96498  0.44046  1.0000
  N   N62       1.0  0.27240  0.87614  0.61945  1.0000
  H   H1480     1.0  0.05675  0.75802  0.48631  1.0000
  C   C888      1.0  0.39188  0.97080  0.54131  1.0000
  C   C889      1.0  0.03565  0.81048  0.49804  1.0000
  H   H1481     1.0  0.27881  0.87719  0.58913  1.0000
  C   C890      1.0  0.04164  0.80569  0.53931  1.0000
  C   C891      1.0  0.41731  0.91959  0.38377  1.0000
  H   H1482     1.0  0.26314  0.81111  0.36278  1.0000
  N   N63       1.0  0.03155  0.79321  0.51289  1.0000
  H   H1483     1.0  0.11194  0.74863  0.32911  1.0000
  H   H1484     1.0  0.00766  0.81065  0.52846  1.0000
  H   H1485     1.0  0.36116  0.92116  0.62507  1.0000
  H   H1486     1.0  0.37311  0.93944  0.46598  1.0000
  H   H1487     1.0  0.17128  0.74854  0.35984  1.0000
  H   H1488     1.0  0.30053  0.95470  0.47100  1.0000
  C   C892      1.0  0.43235  0.90445  0.39352  1.0000
  H   H1489     1.0  0.34833  0.93501  0.48889  1.0000
  C   C893      1.0  0.02963  0.81208  0.47864  1.0000
  H   H1490     1.0  0.43670  0.89151  0.38684  1.0000
  H   H1491     1.0  0.23768  0.86117  0.62578  1.0000
  Fe  Fe142     1.0  0.05192  0.74520  0.41269  1.0000
  C   C894      1.0  0.42172  0.89912  0.62928  1.0000
  H   H1492     1.0  0.02881  0.82396  0.50352  1.0000
  H   H1493     1.0  0.16399  0.76883  0.46331  1.0000
  H   H1494     1.0  0.25026  0.85484  0.60307  1.0000
  H   H1495     1.0  0.37741  0.93679  0.54264  1.0000
  H   H1496     1.0  0.31189  0.96357  0.44808  1.0000
  C   C895      1.0  0.29310  0.87574  0.62089  1.0000
  H   H1497     1.0  0.06021  0.78880  0.51985  1.0000
  C   C896      1.0  0.26619  0.79759  0.35702  1.0000
  H   H1498     1.0  0.29698  0.77225  0.33741  1.0000
  H   H1499     1.0  0.00943  0.78573  0.53680  1.0000
  H   H1500     1.0  0.14472  0.79319  0.49412  1.0000
  H   H1501     1.0  0.16903  0.75344  0.53040  1.0000
  H   H1502     1.0  0.39465  0.96138  0.48635  1.0000
  C   C897      1.0  0.43572  0.91989  0.33008  1.0000
  H   H1503     1.0  0.42483  0.93114  0.32367  1.0000
  H   H1504     1.0  0.14604  0.74686  0.36419  1.0000
  C   C898      1.0  0.14365  0.74213  0.45463  1.0000
  H   H1505     1.0  0.24354  0.89023  0.62982  1.0000
  C   C899      1.0  0.15826  0.74032  0.49023  1.0000
  H   H1506     1.0  0.19943  0.74083  0.53863  1.0000
  H   H1507     1.0  0.99383  0.78737  0.39206  1.0000
  H   H1508     1.0  0.38130  0.87918  0.63790  1.0000
  H   H1509     1.0  0.16293  0.74357  0.55496  1.0000
  C   C900      1.0  0.32689  0.97983  0.59937  1.0000
  Fe  Fe143     1.0  0.03824  0.74179  0.45498  1.0000
  H   H1510     1.0  0.26148  0.73513  0.34319  1.0000
  H   H1511     1.0  0.38303  0.97028  0.60297  1.0000
  H   H1512     1.0  0.36006  0.97804  0.54818  1.0000
  H   H1513     1.0  0.13400  0.74052  0.44529  1.0000
  H   H1514     1.0  0.28607  0.95615  0.63369  1.0000
  C   C901      1.0  0.16956  0.73990  0.54089  1.0000
  H   H1515     1.0  0.39831  0.95055  0.62683  1.0000
  H   H1516     1.0  0.02289  0.73699  0.63539  1.0000
  C   C902      1.0  0.29949  0.86428  0.63945  1.0000
  C   C903      1.0  0.35174  0.92351  0.63876  1.0000
  H   H1517     1.0  0.27052  0.84826  0.63727  1.0000
  C   C904      1.0  0.29905  0.98143  0.62454  1.0000
  H   H1518     1.0  0.31078  0.98046  0.48385  1.0000
  H   H1519     1.0  0.37666  0.98160  0.51104  1.0000
  H   H1520     1.0  0.45822  0.96307  0.63668  1.0000
  H   H1521     1.0  0.99332  0.80855  0.50144  1.0000
  C   C905      1.0  0.30990  0.98131  0.46878  1.0000
  H   H1522     1.0  0.37257  0.98132  0.56540  1.0000
  H   H1523     1.0  0.00048  0.73564  0.39978  1.0000
  C   C906      1.0  0.10769  0.73732  0.34118  1.0000
  C   C907      1.0  0.26310  0.90374  0.63917  1.0000
  H   H1524     1.0  0.42129  0.85855  0.71878  1.0000
  H   H1525     1.0  0.40908  0.88626  0.84408  1.0000
  S   S280      1.0  0.46764  0.79141  0.84289  1.0000
  H   H1526     1.0  0.25192  0.73479  0.68493  1.0000
  S   S281      1.0  0.42674  0.77483  0.85699  1.0000
  Fe  Fe144     1.0  0.44458  0.78606  0.82933  1.0000
  S   S282      1.0  0.42915  0.80908  0.80885  1.0000
  Fe  Fe145     1.0  0.45103  0.77785  0.87021  1.0000
  S   S283      1.0  0.44189  0.79018  0.89710  1.0000
  S   S284      1.0  0.45938  0.75656  0.82413  1.0000
  Fe  Fe146     1.0  0.43752  0.89878  0.69523  1.0000
  S   S285      1.0  0.43051  0.90386  0.72540  1.0000
  H   H1527     1.0  0.41815  0.83673  0.75145  1.0000
  H   H1528     1.0  0.47665  0.90993  0.76585  1.0000
  S   S286      1.0  0.47182  0.91846  0.71727  1.0000
  H   H1529     1.0  0.36587  0.93598  0.67349  1.0000
  Fe  Fe147     1.0  0.46141  0.89034  0.72662  1.0000
  S   S287      1.0  0.47458  0.86918  0.75003  1.0000
  Fe  Fe148     1.0  0.44166  0.93148  0.71319  1.0000
  S   S288      1.0  0.42724  0.96073  0.71969  1.0000
  S   S289      1.0  0.46794  0.88348  0.69720  1.0000
  S   S290      1.0  0.44613  0.92746  0.68304  1.0000
  H   H1530     1.0  0.39919  0.92929  0.67831  1.0000
  H   H1531     1.0  0.40529  0.85170  0.87131  1.0000
  H   H1532     1.0  0.42532  0.80962  0.71098  1.0000
  C   C908      1.0  0.45549  0.79670  0.70983  1.0000
  H   H1533     1.0  0.44945  0.82486  0.74204  1.0000
  H   H1534     1.0  0.43088  0.85166  0.82353  1.0000
  H   H1535     1.0  0.42521  0.73945  0.89877  1.0000
  C   C909      1.0  0.39342  0.88415  0.64064  1.0000
  H   H1536     1.0  0.35634  0.91207  0.65036  1.0000
  C   C910      1.0  0.44345  0.83398  0.86739  1.0000
  H   H1537     1.0  0.47974  0.84055  0.70939  1.0000
  H   H1538     1.0  0.39180  0.82779  0.86063  1.0000
  C   C911      1.0  0.46111  0.85042  0.82339  1.0000
  S   S291      1.0  0.41486  0.88637  0.68678  1.0000
  H   H1539     1.0  0.42814  0.89873  0.84317  1.0000
  H   H1540     1.0  0.44282  0.82916  0.83296  1.0000
  C   C912      1.0  0.44137  0.84466  0.83320  1.0000
  H   H1541     1.0  0.48283  0.93100  0.75059  1.0000
  C   C913      1.0  0.43457  0.86850  0.85526  1.0000
  C   C914      1.0  0.36714  0.96916  0.64693  1.0000
  C   C915      1.0  0.40767  0.82673  0.85910  1.0000
  H   H1542     1.0  0.44958  0.87067  0.85388  1.0000
  C   C916      1.0  0.46465  0.83463  0.86762  1.0000
  C   C917      1.0  0.44200  0.82564  0.79258  1.0000
  C   C918      1.0  0.43174  0.84173  0.78234  1.0000
  C   C919      1.0  0.44153  0.85515  0.76916  1.0000
  C   C920      1.0  0.46168  0.85264  0.76629  1.0000
  C   C921      1.0  0.47192  0.83669  0.77672  1.0000
  C   C922      1.0  0.46214  0.82317  0.78976  1.0000
  H   H1543     1.0  0.41613  0.84381  0.78461  1.0000
  H   H1544     1.0  0.43349  0.86750  0.76133  1.0000
  N   N64       1.0  0.43993  0.83151  0.71478  1.0000
  H   H1545     1.0  0.47018  0.81081  0.79758  1.0000
  C   C923      1.0  0.45745  0.78355  0.91384  1.0000
  C   C924      1.0  0.45077  0.78854  0.93182  1.0000
  C   C925      1.0  0.46254  0.78304  0.94572  1.0000
  H   H1546     1.0  0.26975  0.89974  0.65213  1.0000
  H   H1547     1.0  0.39616  0.84785  0.74332  1.0000
  C   C926      1.0  0.47617  0.77331  0.90966  1.0000
  H   H1548     1.0  0.43637  0.79659  0.93510  1.0000
  H   H1549     1.0  0.45719  0.78695  0.95952  1.0000
  H   H1550     1.0  0.44353  0.81930  0.86519  1.0000
  H   H1551     1.0  0.43079  0.88346  0.82631  1.0000
  H   H1552     1.0  0.35614  0.75382  0.87496  1.0000
  C   C927      1.0  0.35412  0.76145  0.84571  1.0000
  H   H1553     1.0  0.41022  0.84286  0.71075  1.0000
  C   C928      1.0  0.42022  0.84319  0.72027  1.0000
  H   H1554     1.0  0.48752  0.83467  0.77458  1.0000
  H   H1555     1.0  0.41200  0.81682  0.87186  1.0000
  H   H1556     1.0  0.46889  0.95837  0.71054  1.0000
  C   C929      1.0  0.40950  0.83714  0.74057  1.0000
  H   H1557     1.0  0.40433  0.85637  0.84668  1.0000
  S   S292      1.0  0.46671  0.74807  0.86839  1.0000
  H   H1558     1.0  0.45979  0.85937  0.80925  1.0000
  H   H1559     1.0  0.39812  0.73813  0.95379  1.0000
  C   C930      1.0  0.41210  0.88860  0.66305  1.0000
  H   H1560     1.0  0.46287  0.83374  0.68993  1.0000
  H   H1561     1.0  0.40831  0.93766  0.65414  1.0000
  C   C931      1.0  0.39657  0.88194  0.65932  1.0000
  H   H1562     1.0  0.42188  0.76593  0.93782  1.0000
  H   H1563     1.0  0.49198  0.92247  0.77270  1.0000
  H   H1564     1.0  0.34051  0.94525  0.65628  1.0000
  C   C932      1.0  0.44216  0.97831  0.71392  1.0000
  H   H1565     1.0  0.41122  0.73578  0.97237  1.0000
  N   N65       1.0  0.43345  0.84859  0.85304  1.0000
  C   C933      1.0  0.43675  0.83701  0.67939  1.0000
  C   C934      1.0  0.42472  0.89715  0.64798  1.0000
  H   H1566     1.0  0.43015  0.96424  0.65820  1.0000
  H   H1567     1.0  0.43536  0.83491  0.88204  1.0000
  H   H1568     1.0  0.44414  0.84313  0.66516  1.0000
  H   H1569     1.0  0.41950  0.76535  0.96298  1.0000
  C   C935      1.0  0.47471  0.82949  0.72132  1.0000
  H   H1570     1.0  0.41434  0.82041  0.84627  1.0000
  H   H1571     1.0  0.48152  0.76951  0.89577  1.0000
  H   H1572     1.0  0.46517  0.80311  0.69741  1.0000
  H   H1573     1.0  0.36200  0.96991  0.66226  1.0000
  C   C936      1.0  0.42638  0.74299  0.91245  1.0000
  C   C937      1.0  0.41229  0.84689  0.85761  1.0000
  Fe  Fe149     1.0  0.48126  0.76116  0.83983  1.0000
  H   H1574     1.0  0.40487  0.82312  0.74237  1.0000
  H   H1575     1.0  0.47432  0.83167  0.85430  1.0000
  H   H1576     1.0  0.44960  0.84895  0.73036  1.0000
  C   C938      1.0  0.42502  0.88496  0.84129  1.0000
  H   H1577     1.0  0.46651  0.84809  0.87130  1.0000
  Fe  Fe150     1.0  0.47591  0.91277  0.68784  1.0000
  H   H1578     1.0  0.44027  0.74815  0.91000  1.0000
  C   C939      1.0  0.48132  0.77301  0.94156  1.0000
  H   H1579     1.0  0.46967  0.82294  0.87895  1.0000
  H   H1580     1.0  0.41400  0.75457  0.91551  1.0000
  H   H1581     1.0  0.42779  0.87091  0.86991  1.0000
  H   H1582     1.0  0.38676  0.87529  0.67093  1.0000
  H   H1583     1.0  0.47196  0.83741  0.82090  1.0000
  Fe  Fe151     1.0  0.44355  0.74579  0.85307  1.0000
  H   H1584     1.0  0.43358  0.80495  0.73257  1.0000
  H   H1585     1.0  0.44903  0.74596  0.93718  1.0000
  C   C940      1.0  0.46227  0.97321  0.70979  1.0000
  C   C941      1.0  0.37723  0.93564  0.66053  1.0000
  H   H1586     1.0  0.28898  0.86777  0.65217  1.0000
  H   H1587     1.0  0.39351  0.95416  0.66916  1.0000
  H   H1588     1.0  0.33879  0.76835  0.84915  1.0000
  C   C942      1.0  0.44750  0.83972  0.69450  1.0000
  C   C943      1.0  0.48862  0.91823  0.76030  1.0000
  C   C944      1.0  0.36028  0.74629  0.86254  1.0000
  H   H1589     1.0  0.46725  0.85849  0.83109  1.0000
  H   H1590     1.0  0.45057  0.78537  0.70491  1.0000
  H   H1591     1.0  0.46394  0.78970  0.72125  1.0000
  C   C945      1.0  0.43770  0.81089  0.71728  1.0000
  C   C946      1.0  0.48816  0.76825  0.92345  1.0000
  H   H1592     1.0  0.42169  0.84486  0.68082  1.0000
  H   H1593     1.0  0.38069  0.92053  0.65837  1.0000
  C   C947      1.0  0.39560  0.93972  0.66554  1.0000
  C   C948      1.0  0.45264  0.83389  0.72782  1.0000
  H   H1594     1.0  0.47990  0.81513  0.71754  1.0000
  H   H1595     1.0  0.43700  0.82170  0.67933  1.0000
  H   H1596     1.0  0.44721  0.85534  0.69301  1.0000
  H   H1597     1.0  0.25595  0.87574  0.64782  1.0000
  H   H1598     1.0  0.32259  0.74180  0.87475  1.0000
  C   C949      1.0  0.41361  0.76118  0.95190  1.0000
  H   H1599     1.0  0.38115  0.97450  0.64307  1.0000
  H   H1600     1.0  0.43677  0.90225  0.65072  1.0000
  H   H1601     1.0  0.46719  0.95967  0.65811  1.0000
  H   H1602     1.0  0.36292  0.77297  0.84283  1.0000
  N   N66       1.0  0.36989  0.94879  0.64365  1.0000
  H   H1603     1.0  0.48187  0.83004  0.73317  1.0000
  H   H1604     1.0  0.24955  0.91388  0.64283  1.0000
  H   H1605     1.0  0.32895  0.73975  0.85066  1.0000
  H   H1606     1.0  0.44759  0.98053  0.67624  1.0000
  H   H1607     1.0  0.35646  0.75567  0.83249  1.0000
  H   H1608     1.0  0.37640  0.74316  0.85982  1.0000
  C   C950      1.0  0.46686  0.96922  0.64403  1.0000
  H   H1609     1.0  0.39881  0.76972  0.95233  1.0000
  C   C951      1.0  0.42496  0.97860  0.66212  1.0000
  H   H1610     1.0  0.41556  0.97661  0.67629  1.0000
  C   C952      1.0  0.35082  0.94374  0.64278  1.0000
  C   C953      1.0  0.41223  0.73965  0.95671  1.0000
  H   H1611     1.0  0.46726  0.73798  0.96162  1.0000
  H   H1612     1.0  0.48946  0.98327  0.70135  1.0000
  H   H1613     1.0  0.33748  0.98254  0.64314  1.0000
  H   H1614     1.0  0.31352  0.86771  0.64046  1.0000
  C   C954      1.0  0.65353  0.15881  0.28177  1.0000
  C   C955      1.0  0.64220  0.98918  0.28059  1.0000
  H   H1615     1.0  0.54569  0.11883  0.27328  1.0000
  H   H1616     1.0  0.53988  0.08496  0.29262  1.0000
  S   S293      1.0  0.64744  0.10560  0.27735  1.0000
  C   C956      1.0  0.64778  0.00092  0.29069  1.0000
  C   C957      1.0  0.57437  0.21770  0.25455  1.0000
  C   C958      1.0  0.53137  0.09464  0.28238  1.0000
  N   N67       1.0  0.52870  0.12150  0.30135  1.0000
  H   H1617     1.0  0.57429  0.18708  0.26027  1.0000
  H   H1618     1.0  0.51633  0.09180  0.28580  1.0000
  C   C959      1.0  0.52606  0.14301  0.29900  1.0000
  H   H1619     1.0  0.64203  0.14627  0.26329  1.0000
  H   H1620     1.0  0.53762  0.09100  0.26811  1.0000
  H   H1621     1.0  0.64990  0.17334  0.27447  1.0000
  C   C960      1.0  0.64906  0.14349  0.27549  1.0000
  H   H1622     1.0  0.55361  0.20014  0.27286  1.0000
  S   S294      1.0  0.67596  0.22527  0.28065  1.0000
  H   H1623     1.0  0.49477  0.12226  0.25758  1.0000
  C   C961      1.0  0.57913  0.98942  0.28043  1.0000
  H   H1624     1.0  0.54670  0.14892  0.27212  1.0000
  S   S295      1.0  0.63219  0.21953  0.28046  1.0000
  H   H1625     1.0  0.57045  0.04821  0.27543  1.0000
  H   H1626     1.0  0.53891  0.22980  0.27511  1.0000
  H   H1627     1.0  0.52067  0.12468  0.27390  1.0000
  H   H1628     1.0  0.56943  0.09515  0.29600  1.0000
  C   C962      1.0  0.56436  0.04880  0.29015  1.0000
  Fe  Fe152     1.0  0.65623  0.20486  0.29648  1.0000
  H   H1629     1.0  0.60288  0.99112  0.29306  1.0000
  S   S296      1.0  0.53279  0.03697  0.28377  1.0000
  C   C963      1.0  0.58695  0.99571  0.29570  1.0000
  S   S297      1.0  0.62840  0.05616  0.29939  1.0000
  H   H1630     1.0  0.56732  0.22040  0.21852  1.0000
  H   H1631     1.0  0.59683  0.20781  0.30451  1.0000
  H   H1632     1.0  0.58562  0.21591  0.24174  1.0000
  Fe  Fe153     1.0  0.64284  0.08046  0.30080  1.0000
  C   C964      1.0  0.54623  0.04367  0.29784  1.0000
  H   H1633     1.0  0.58823  0.05942  0.29539  1.0000
  H   H1634     1.0  0.57369  0.18703  0.30394  1.0000
  H   H1635     1.0  0.63867  0.99504  0.26665  1.0000
  H   H1636     1.0  0.64875  0.01567  0.28443  1.0000
  H   H1637     1.0  0.56849  0.12062  0.28835  1.0000
  S   S298      1.0  0.51125  0.20350  0.26941  1.0000
  H   H1638     1.0  0.55562  0.20035  0.24776  1.0000
  Fe  Fe154     1.0  0.50225  0.03920  0.29968  1.0000
  C   C965      1.0  0.66262  0.12109  0.30078  1.0000
  H   H1639     1.0  0.49817  0.12089  0.30406  1.0000
  H   H1640     1.0  0.58447  0.01164  0.29225  1.0000
  Fe  Fe155     1.0  0.50581  0.20283  0.30069  1.0000
  C   C966      1.0  0.65346  0.12462  0.28507  1.0000
  C   C967      1.0  0.54262  0.15266  0.28647  1.0000
  C   C968      1.0  0.53179  0.11585  0.28213  1.0000
  H   H1641     1.0  0.58258  0.21573  0.26627  1.0000
  H   H1642     1.0  0.53768  0.16838  0.28435  1.0000
  H   H1643     1.0  0.53799  0.23035  0.24296  1.0000
  H   H1644     1.0  0.55528  0.14986  0.29365  1.0000
  C   C969      1.0  0.56357  0.20058  0.25906  1.0000
  C   C970      1.0  0.56557  0.10925  0.30066  1.0000
  C   C971      1.0  0.57441  0.05515  0.30144  1.0000
  H   H1645     1.0  0.51271  0.14978  0.29305  1.0000
  H   H1646     1.0  0.58824  0.99338  0.26642  1.0000
  C   C972      1.0  0.66287  0.15518  0.29738  1.0000
  H   H1647     1.0  0.56418  0.99708  0.27939  1.0000
  S   S299      1.0  0.66822  0.17377  0.30627  1.0000
  C   C973      1.0  0.66761  0.13629  0.30670  1.0000
  H   H1648     1.0  0.70562  0.20766  0.30632  1.0000
  Fe  Fe156     1.0  0.77182  0.10902  0.54520  1.0000
  S   S300      1.0  0.74493  0.12503  0.56020  1.0000
  S   S301      1.0  0.79932  0.12079  0.53364  1.0000
  H   H1649     1.0  0.83313  0.13357  0.53623  1.0000
  S   S302      1.0  0.73599  0.09623  0.61117  1.0000
  Fe  Fe157     1.0  0.72973  0.11356  0.54257  1.0000
  S   S303      1.0  0.70472  0.13301  0.53097  1.0000
  C   C974      1.0  0.77958  0.17200  0.60135  1.0000
  Fe  Fe158     1.0  0.79020  0.21919  0.56618  1.0000
  S   S304      1.0  0.75895  0.21785  0.56923  1.0000
  S   S305      1.0  0.81366  0.19559  0.55642  1.0000
  Fe  Fe159     1.0  0.75562  0.22871  0.59641  1.0000
  H   H1650     1.0  0.64824  0.12318  0.34504  1.0000
  C   C975      1.0  0.57481  0.23007  0.31488  1.0000
  H   H1651     1.0  0.64036  0.16024  0.33735  1.0000
  H   H1652     1.0  0.66313  0.18328  0.49226  1.0000
  H   H1653     1.0  0.69693  0.16809  0.42191  1.0000
  H   H1654     1.0  0.78213  0.98668  0.48875  1.0000
  H   H1655     1.0  0.67056  0.20178  0.45927  1.0000
  H   H1656     1.0  0.81422  0.21657  0.45316  1.0000
  H   H1657     1.0  0.72607  0.19789  0.45048  1.0000
  S   S306      1.0  0.64522  0.22063  0.32097  1.0000
  C   C976      1.0  0.70447  0.02153  0.61975  1.0000
  H   H1658     1.0  0.72890  0.16431  0.42717  1.0000
  H   H1659     1.0  0.73834  0.00267  0.36319  1.0000
  H   H1660     1.0  0.82726  0.06092  0.45066  1.0000
  S   S307      1.0  0.66202  0.00705  0.32048  1.0000
  C   C977      1.0  0.56841  0.20072  0.30849  1.0000
  Fe  Fe160     1.0  0.78118  0.21319  0.40057  1.0000
  S   S308      1.0  0.80316  0.18898  0.39005  1.0000
  Fe  Fe161     1.0  0.64266  0.06919  0.34282  1.0000
  H   H1661     1.0  0.79274  0.07632  0.45877  1.0000
  H   H1662     1.0  0.75203  0.00775  0.49850  1.0000
  H   H1663     1.0  0.77341  0.11400  0.60198  1.0000
  Fe  Fe162     1.0  0.73261  0.09331  0.39770  1.0000
  S   S309      1.0  0.75934  0.07417  0.40650  1.0000
  S   S310      1.0  0.72777  0.09914  0.36754  1.0000
  Fe  Fe163     1.0  0.71610  0.10176  0.43699  1.0000
  S   S311      1.0  0.74102  0.08308  0.44926  1.0000
  S   S312      1.0  0.69087  0.11890  0.45333  1.0000
  Fe  Fe164     1.0  0.75903  0.09692  0.42320  1.0000
  S   S313      1.0  0.78616  0.10558  0.42671  1.0000
  Fe  Fe165     1.0  0.73891  0.06209  0.43168  1.0000
  S   S314      1.0  0.73418  0.11710  0.41210  1.0000
  S   S315      1.0  0.71221  0.07955  0.42176  1.0000
  H   H1664     1.0  0.54598  0.99464  0.34777  1.0000
  H   H1665     1.0  0.72027  0.05414  0.34243  1.0000
  C   C978      1.0  0.76183  0.02308  0.55334  1.0000
  H   H1666     1.0  0.68007  0.19066  0.36116  1.0000
  H   H1667     1.0  0.76022  0.16191  0.57887  1.0000
  H   H1668     1.0  0.68981  0.01830  0.62061  1.0000
  Fe  Fe166     1.0  0.75791  0.22380  0.43778  1.0000
  H   H1669     1.0  0.70970  0.19281  0.35661  1.0000
  H   H1670     1.0  0.75866  0.03349  0.40621  1.0000
  C   C979      1.0  0.68247  0.08752  0.35035  1.0000
  C   C980      1.0  0.70040  0.09237  0.35017  1.0000
  C   C981      1.0  0.70432  0.09672  0.36651  1.0000
  C   C982      1.0  0.68979  0.09777  0.38244  1.0000
  H   H1671     1.0  0.67971  0.08362  0.33791  1.0000
  H   H1672     1.0  0.71148  0.09197  0.33764  1.0000
  H   H1673     1.0  0.81603  0.07031  0.43046  1.0000
  C   C983      1.0  0.79784  0.16583  0.39939  1.0000
  C   C984      1.0  0.77882  0.16230  0.40372  1.0000
  C   C985      1.0  0.77507  0.14374  0.41170  1.0000
  C   C986      1.0  0.79027  0.12875  0.41563  1.0000
  C   C987      1.0  0.80921  0.13233  0.41137  1.0000
  C   C988      1.0  0.81301  0.15070  0.40294  1.0000
  H   H1674     1.0  0.76709  0.17375  0.40047  1.0000
  H   H1675     1.0  0.76043  0.14109  0.41493  1.0000
  H   H1676     1.0  0.82104  0.12082  0.41432  1.0000
  H   H1677     1.0  0.82772  0.15330  0.39954  1.0000
  H   H1678     1.0  0.68799  0.04803  0.35753  1.0000
  N   N68       1.0  0.70440  0.02922  0.37779  1.0000
  H   H1679     1.0  0.49681  0.13777  0.32999  1.0000
  H   H1680     1.0  0.67377  0.18260  0.42907  1.0000
  C   C989      1.0  0.75555  0.01918  0.41133  1.0000
  C   C990      1.0  0.73027  0.04409  0.35114  1.0000
  H   H1681     1.0  0.60219  0.01715  0.33429  1.0000
  H   H1682     1.0  0.51398  0.11855  0.34076  1.0000
  H   H1683     1.0  0.81117  0.16245  0.59970  1.0000
  S   S316      1.0  0.53256  0.19123  0.31403  1.0000
  C   C991      1.0  0.81600  0.05902  0.44335  1.0000
  C   C992      1.0  0.60375  0.11895  0.36439  1.0000
  H   H1684     1.0  0.68383  0.05168  0.39007  1.0000
  H   H1685     1.0  0.71571  0.05534  0.37574  1.0000
  H   H1686     1.0  0.65830  0.13572  0.35767  1.0000
  C   C993      1.0  0.53854  0.04432  0.31691  1.0000
  S   S317      1.0  0.62801  0.04424  0.34554  1.0000
  H   H1687     1.0  0.54175  0.05225  0.34254  1.0000
  H   H1688     1.0  0.74302  0.05102  0.34967  1.0000
  H   H1689     1.0  0.73349  0.18148  0.34973  1.0000
  H   H1690     1.0  0.69038  0.20926  0.42996  1.0000
  H   H1691     1.0  0.70988  0.13248  0.33176  1.0000
  H   H1692     1.0  0.71360  0.19276  0.47372  1.0000
  C   C994      1.0  0.67573  0.17914  0.35622  1.0000
  S   S318      1.0  0.75332  0.21020  0.46865  1.0000
  H   H1693     1.0  0.82034  0.04808  0.48085  1.0000
  C   C995      1.0  0.70118  0.12853  0.50954  1.0000
  C   C996      1.0  0.68272  0.13368  0.50480  1.0000
  C   C997      1.0  0.67963  0.13050  0.48759  1.0000
  C   C998      1.0  0.69502  0.12222  0.47502  1.0000
  C   C999      1.0  0.71358  0.11757  0.47953  1.0000
  C   C1000     1.0  0.71663  0.12051  0.49686  1.0000
  H   H1694     1.0  0.67077  0.14002  0.51452  1.0000
  H   H1695     1.0  0.66530  0.13436  0.48405  1.0000
  H   H1696     1.0  0.72566  0.11207  0.46956  1.0000
  H   H1697     1.0  0.73098  0.11695  0.50020  1.0000
  C   C1001     1.0  0.80224  0.14207  0.53982  1.0000
  C   C1002     1.0  0.78661  0.15662  0.54415  1.0000
  C   C1003     1.0  0.78985  0.17356  0.54859  1.0000
  C   C1004     1.0  0.80862  0.17565  0.54930  1.0000
  C   C1005     1.0  0.82411  0.16118  0.54468  1.0000
  C   C1006     1.0  0.82096  0.14462  0.53977  1.0000
  H   H1698     1.0  0.77213  0.15498  0.54372  1.0000
  H   H1699     1.0  0.77783  0.18486  0.55158  1.0000
  H   H1700     1.0  0.83867  0.16272  0.54501  1.0000
  C   C1007     1.0  0.75089  0.99527  0.49251  1.0000
  H   H1701     1.0  0.74156  0.15246  0.33787  1.0000
  H   H1702     1.0  0.60427  0.11376  0.37969  1.0000
  H   H1703     1.0  0.62565  0.15005  0.31463  1.0000
  H   H1704     1.0  0.81494  0.22827  0.51806  1.0000
  C   C1008     1.0  0.54170  0.22443  0.31963  1.0000
  C   C1009     1.0  0.58153  0.21246  0.30879  1.0000
  C   C1010     1.0  0.67086  0.10554  0.63148  1.0000
  H   H1705     1.0  0.75018  0.14339  0.59473  1.0000
  S   S319      1.0  0.64580  0.10693  0.63891  1.0000
  H   H1706     1.0  0.59178  0.11318  0.36145  1.0000
  C   C1011     1.0  0.53359  0.14756  0.62247  1.0000
  N   N69       1.0  0.78769  0.14687  0.47488  1.0000
  C   C1012     1.0  0.79957  0.13008  0.46615  1.0000
  C   C1013     1.0  0.78106  0.16200  0.45889  1.0000
  C   C1014     1.0  0.77059  0.13996  0.48864  1.0000
  C   C1015     1.0  0.80028  0.15381  0.48505  1.0000
  C   C1016     1.0  0.80661  0.11210  0.48019  1.0000
  C   C1017     1.0  0.79683  0.17193  0.44505  1.0000
  C   C1018     1.0  0.75161  0.15451  0.49169  1.0000
  C   C1019     1.0  0.79099  0.17153  0.49420  1.0000
  H   H1707     1.0  0.79122  0.12545  0.45725  1.0000
  H   H1708     1.0  0.81276  0.13406  0.45639  1.0000
  H   H1709     1.0  0.77037  0.17381  0.46422  1.0000
  H   H1710     1.0  0.77351  0.15590  0.45040  1.0000
  H   H1711     1.0  0.76630  0.12800  0.48404  1.0000
  H   H1712     1.0  0.77453  0.13389  0.50287  1.0000
  H   H1713     1.0  0.80510  0.14251  0.49668  1.0000
  H   H1714     1.0  0.81381  0.15697  0.47532  1.0000
  H   H1715     1.0  0.81372  0.10042  0.47209  1.0000
  H   H1716     1.0  0.81756  0.11464  0.48754  1.0000
  H   H1717     1.0  0.79465  0.10673  0.49085  1.0000
  H   H1718     1.0  0.80848  0.16180  0.43808  1.0000
  H   H1719     1.0  0.79010  0.18200  0.43364  1.0000
  H   H1720     1.0  0.80308  0.18073  0.45200  1.0000
  H   H1721     1.0  0.74151  0.14822  0.50398  1.0000
  H   H1722     1.0  0.74438  0.15753  0.47919  1.0000
  H   H1723     1.0  0.75355  0.16821  0.49468  1.0000
  H   H1724     1.0  0.78560  0.18391  0.48384  1.0000
  H   H1725     1.0  0.80196  0.17583  0.50029  1.0000
  H   H1726     1.0  0.77913  0.16829  0.50608  1.0000
  H   H1727     1.0  0.74761  0.06965  0.49529  1.0000
  H   H1728     1.0  0.76937  0.00920  0.38523  1.0000
  H   H1729     1.0  0.66114  0.09264  0.39545  1.0000
  C   C1020     1.0  0.69242  0.16291  0.35086  1.0000
  H   H1730     1.0  0.76697  0.11596  0.63344  1.0000
  C   C1021     1.0  0.67203  0.09264  0.38274  1.0000
  C   C1022     1.0  0.75045  0.21646  0.50455  1.0000
  H   H1731     1.0  0.79814  0.16571  0.62325  1.0000
  C   C1023     1.0  0.60221  0.00670  0.32519  1.0000
  H   H1732     1.0  0.58928  0.19810  0.34799  1.0000
  C   C1024     1.0  0.79932  0.02700  0.47035  1.0000
  S   S320      1.0  0.64742  0.07782  0.36888  1.0000
  H   H1733     1.0  0.74928  0.22120  0.53278  1.0000
  Fe  Fe167     1.0  0.60932  0.06369  0.32612  1.0000
  Fe  Fe168     1.0  0.64832  0.03831  0.31886  1.0000
  H   H1734     1.0  0.81526  0.02384  0.46578  1.0000
  C   C1025     1.0  0.68371  0.05524  0.59305  1.0000
  H   H1735     1.0  0.66354  0.02895  0.37587  1.0000
  C   C1026     1.0  0.74192  0.99562  0.43626  1.0000
  H   H1736     1.0  0.70079  0.15676  0.45261  1.0000
  H   H1737     1.0  0.76885  0.18267  0.60873  1.0000
  C   C1027     1.0  0.71863  0.17846  0.35580  1.0000
  C   C1028     1.0  0.67556  0.02245  0.36568  1.0000
  H   H1738     1.0  0.73533  0.03079  0.34518  1.0000
  N   N70       1.0  0.57856  0.98901  0.31619  1.0000
  C   C1029     1.0  0.76546  0.02182  0.57158  1.0000
  H   H1739     1.0  0.69030  0.20481  0.32876  1.0000
  S   S321      1.0  0.57727  0.06591  0.33445  1.0000
  H   H1740     1.0  0.70435  0.22758  0.44245  1.0000
  C   C1030     1.0  0.70286  0.22017  0.45744  1.0000
  H   H1741     1.0  0.54248  0.09709  0.31928  1.0000
  H   H1742     1.0  0.71332  0.19568  0.42318  1.0000
  H   H1743     1.0  0.67888  0.14476  0.62959  1.0000
  H   H1744     1.0  0.75957  0.00713  0.53255  1.0000
  H   H1745     1.0  0.76589  0.03469  0.57656  1.0000
  C   C1031     1.0  0.71675  0.22220  0.63317  1.0000
  S   S322      1.0  0.62197  0.08920  0.32595  1.0000
  H   H1746     1.0  0.68770  0.17160  0.49098  1.0000
  C   C1032     1.0  0.72391  0.13759  0.32778  1.0000
  H   H1747     1.0  0.75374  0.20104  0.50839  1.0000
  C   C1033     1.0  0.54847  0.20669  0.31382  1.0000
  H   H1748     1.0  0.62892  0.15967  0.36141  1.0000
  S   S323      1.0  0.66480  0.06189  0.31770  1.0000
  H   H1749     1.0  0.54461  0.14678  0.60938  1.0000
  H   H1750     1.0  0.70448  0.16429  0.38349  1.0000
  C   C1034     1.0  0.78979  0.02152  0.45577  1.0000
  H   H1751     1.0  0.76794  0.03811  0.49384  1.0000
  H   H1752     1.0  0.76278  0.04995  0.47154  1.0000
  H   H1753     1.0  0.79230  0.03060  0.44158  1.0000
  H   H1754     1.0  0.77408  0.02212  0.46071  1.0000
  H   H1755     1.0  0.79603  0.00652  0.45394  1.0000
  H   H1756     1.0  0.52636  0.22904  0.32396  1.0000
  S   S324      1.0  0.49497  0.01562  0.32374  1.0000
  H   H1757     1.0  0.66996  0.02456  0.35226  1.0000
  C   C1035     1.0  0.77156  0.05012  0.48227  1.0000
  C   C1036     1.0  0.76185  0.00625  0.54681  1.0000
  C   C1037     1.0  0.75557  0.15674  0.59425  1.0000
  S   S325      1.0  0.75308  0.20693  0.41761  1.0000
  H   H1758     1.0  0.63784  0.12520  0.36951  1.0000
  H   H1759     1.0  0.67915  0.00679  0.37043  1.0000
  C   C1038     1.0  0.71189  0.00827  0.38407  1.0000
  H   H1760     1.0  0.54999  0.00456  0.31292  1.0000
  H   H1761     1.0  0.67193  0.04573  0.62994  1.0000
  C   C1039     1.0  0.73787  0.17123  0.60130  1.0000
  C   C1040     1.0  0.76874  0.00381  0.58333  1.0000
  H   H1762     1.0  0.71251  0.04265  0.40868  1.0000
  H   H1763     1.0  0.67256  0.17681  0.46088  1.0000
  C   C1041     1.0  0.50267  0.12218  0.33179  1.0000
  H   H1764     1.0  0.68573  0.06265  0.57803  1.0000
  H   H1765     1.0  0.68891  0.19012  0.40727  1.0000
  H   H1766     1.0  0.81190  0.21243  0.50342  1.0000
  H   H1767     1.0  0.58829  0.17154  0.33481  1.0000
  H   H1768     1.0  0.72575  0.13993  0.35585  1.0000
  C   C1042     1.0  0.71997  0.04568  0.62772  1.0000
  C   C1043     1.0  0.58145  0.00277  0.32774  1.0000
  C   C1044     1.0  0.69091  0.15169  0.63049  1.0000
  H   H1769     1.0  0.76532  0.08178  0.47914  1.0000
  H   H1770     1.0  0.79375  0.21772  0.52314  1.0000
  H   H1771     1.0  0.73220  0.16716  0.61659  1.0000
  H   H1772     1.0  0.74106  0.18597  0.59836  1.0000
  C   C1045     1.0  0.59906  0.18470  0.35281  1.0000
  H   H1773     1.0  0.61113  0.17850  0.32491  1.0000
  C   C1046     1.0  0.76164  0.00539  0.39947  1.0000
  C   C1047     1.0  0.78331  0.12158  0.59067  1.0000
  S   S326      1.0  0.75684  0.09974  0.52576  1.0000
  H   H1774     1.0  0.66522  0.17313  0.36826  1.0000
  N   N71       1.0  0.71219  0.16805  0.34313  1.0000
  H   H1775     1.0  0.77167  0.00286  0.59739  1.0000
  C   C1048     1.0  0.60272  0.17134  0.33814  1.0000
  C   C1049     1.0  0.70160  0.05527  0.60145  1.0000
  C   C1050     1.0  0.74587  0.01427  0.42984  1.0000
  H   H1776     1.0  0.79990  0.21389  0.47629  1.0000
  H   H1777     1.0  0.49269  0.18817  0.59733  1.0000
  C   C1051     1.0  0.71305  0.17971  0.32336  1.0000
  C   C1052     1.0  0.69327  0.03245  0.36177  1.0000
  C   C1053     1.0  0.59900  0.13960  0.31912  1.0000
  N   N72       1.0  0.77241  0.15324  0.60452  1.0000
  H   H1778     1.0  0.70259  0.02783  0.34885  1.0000
  C   C1054     1.0  0.72451  0.99739  0.36866  1.0000
  H   H1779     1.0  0.73583  0.14622  0.44625  1.0000
  H   H1780     1.0  0.73012  0.15512  0.37743  1.0000
  C   C1055     1.0  0.70539  0.20140  0.32154  1.0000
  C   C1056     1.0  0.64442  0.13278  0.35563  1.0000
  H   H1781     1.0  0.71690  0.99777  0.35692  1.0000
  H   H1782     1.0  0.72214  0.17783  0.38463  1.0000
  H   H1783     1.0  0.71322  0.02331  0.51471  1.0000
  H   H1784     1.0  0.58890  0.13189  0.33016  1.0000
  H   H1785     1.0  0.74049  0.16979  0.44441  1.0000
  C   C1057     1.0  0.71873  0.16808  0.37646  1.0000
  C   C1058     1.0  0.71132  0.19861  0.45890  1.0000
  N   N73       1.0  0.69999  0.18680  0.45233  1.0000
  C   C1059     1.0  0.79568  0.06152  0.45571  1.0000
  C   C1060     1.0  0.78873  0.13883  0.59622  1.0000
  H   H1786     1.0  0.67859  0.02834  0.39950  1.0000
  H   H1787     1.0  0.75778  0.15904  0.63250  1.0000
  H   H1788     1.0  0.78151  0.17857  0.58608  1.0000
  H   H1789     1.0  0.52976  0.13304  0.62736  1.0000
  C   C1061     1.0  0.69965  0.03561  0.41202  1.0000
  C   C1062     1.0  0.54482  0.11183  0.31222  1.0000
  C   C1063     1.0  0.72073  0.04066  0.37224  1.0000
  C   C1064     1.0  0.63151  0.15194  0.34932  1.0000
  H   H1790     1.0  0.76987  0.06933  0.50234  1.0000
  H   H1791     1.0  0.81615  0.02716  0.50836  1.0000
  H   H1792     1.0  0.67050  0.06340  0.60054  1.0000
  S   S327      1.0  0.74104  0.21360  0.62438  1.0000
  H   H1793     1.0  0.73529  0.12457  0.32818  1.0000
  H   H1794     1.0  0.59644  0.22699  0.63048  1.0000
  H   H1795     1.0  0.61259  0.18912  0.35387  1.0000
  H   H1796     1.0  0.59192  0.17831  0.36697  1.0000
  C   C1065     1.0  0.56604  0.05680  0.32023  1.0000
  H   H1797     1.0  0.69972  0.00046  0.39079  1.0000
  H   H1798     1.0  0.60764  0.01333  0.31047  1.0000
  S   S328      1.0  0.75724  0.04530  0.53818  1.0000
  H   H1799     1.0  0.71432  0.05187  0.59049  1.0000
  C   C1066     1.0  0.76339  0.06888  0.49008  1.0000
  C   C1067     1.0  0.75639  0.12956  0.63235  1.0000
  H   H1800     1.0  0.57701  0.99772  0.34318  1.0000
  C   C1068     1.0  0.68902  0.18292  0.42222  1.0000
  H   H1801     1.0  0.71224  0.16105  0.46996  1.0000
  H   H1802     1.0  0.74603  0.12894  0.62345  1.0000
  H   H1803     1.0  0.80173  0.06593  0.48876  1.0000
  C   C1069     1.0  0.76489  0.98828  0.55861  1.0000
  H   H1804     1.0  0.79636  0.01664  0.48372  1.0000
  H   H1805     1.0  0.70163  0.00073  0.49853  1.0000
  H   H1806     1.0  0.58436  0.14547  0.35826  1.0000
  Fe  Fe169     1.0  0.74320  0.09701  0.57976  1.0000
  C   C1070     1.0  0.71098  0.10119  0.61886  1.0000
  H   H1807     1.0  0.69227  0.10232  0.39465  1.0000
  H   H1808     1.0  0.70340  0.14623  0.62006  1.0000
  N   N74       1.0  0.70305  0.04247  0.62039  1.0000
  H   H1809     1.0  0.70403  0.11145  0.59089  1.0000
  H   H1810     1.0  0.68881  0.04326  0.42235  1.0000
  C   C1071     1.0  0.69839  0.10803  0.60585  1.0000
  H   H1811     1.0  0.79056  0.03015  0.51072  1.0000
  H   H1812     1.0  0.72531  0.99947  0.60650  1.0000
  S   S329      1.0  0.72545  0.08676  0.56354  1.0000
  S   S330      1.0  0.77153  0.08153  0.56625  1.0000
  H   H1813     1.0  0.60008  0.14603  0.37364  1.0000
  H   H1814     1.0  0.71748  0.06058  0.63047  1.0000
  C   C1072     1.0  0.66860  0.08689  0.36693  1.0000
  S   S331      1.0  0.73896  0.03102  0.44533  1.0000
  N   N75       1.0  0.79282  0.04727  0.47387  1.0000
  H   H1815     1.0  0.72780  0.02265  0.59370  1.0000
  H   H1816     1.0  0.61743  0.11215  0.35661  1.0000
  C   C1073     1.0  0.59969  0.14116  0.36035  1.0000
  H   H1817     1.0  0.72761  0.03102  0.49180  1.0000
  Fe  Fe170     1.0  0.75393  0.07352  0.54821  1.0000
  C   C1074     1.0  0.70352  0.09735  0.63822  1.0000
  C   C1075     1.0  0.76827  0.98699  0.57697  1.0000
  H   H1818     1.0  0.69273  0.15103  0.36330  1.0000
  H   H1819     1.0  0.80074  0.04704  0.51801  1.0000
  C   C1076     1.0  0.71703  0.01395  0.60204  1.0000
  H   H1820     1.0  0.80225  0.18575  0.60506  1.0000
  H   H1821     1.0  0.70152  0.07036  0.60251  1.0000
  H   H1822     1.0  0.59122  0.15363  0.31292  1.0000
  H   H1823     1.0  0.66865  0.11495  0.60200  1.0000
  H   H1824     1.0  0.71823  0.00689  0.47788  1.0000
  C   C1077     1.0  0.67835  0.11010  0.61216  1.0000
  H   H1825     1.0  0.50970  0.15653  0.60802  1.0000
  H   H1826     1.0  0.52131  0.17553  0.60904  1.0000
  H   H1827     1.0  0.71124  0.22686  0.46453  1.0000
  N   N76       1.0  0.61269  0.15099  0.34388  1.0000
  C   C1078     1.0  0.54812  0.05137  0.32791  1.0000
  C   C1079     1.0  0.69069  0.03652  0.39440  1.0000
  H   H1828     1.0  0.68149  0.04055  0.59324  1.0000
  C   C1080     1.0  0.68492  0.04872  0.63397  1.0000
  H   H1829     1.0  0.70779  0.01196  0.59251  1.0000
  H   H1830     1.0  0.62586  0.12738  0.32858  1.0000
  N   N77       1.0  0.50031  0.16796  0.63418  1.0000
  C   C1081     1.0  0.80282  0.03798  0.50703  1.0000
  C   C1082     1.0  0.69876  0.19442  0.43176  1.0000
  H   H1831     1.0  0.70352  0.02066  0.41932  1.0000
  H   H1832     1.0  0.68233  0.06452  0.63337  1.0000
  H   H1833     1.0  0.73247  0.03405  0.38056  1.0000
  C   C1083     1.0  0.61683  0.14172  0.32655  1.0000
  C   C1084     1.0  0.79888  0.17106  0.60786  1.0000
  H   H1834     1.0  0.82004  0.04513  0.43830  1.0000
  C   C1085     1.0  0.80472  0.05062  0.48708  1.0000
  H   H1835     1.0  0.78509  0.06159  0.44659  1.0000
  H   H1836     1.0  0.79664  0.11108  0.58721  1.0000
  C   C1086     1.0  0.67820  0.18477  0.48541  1.0000
  H   H1837     1.0  0.72826  0.17842  0.31561  1.0000
  H   H1838     1.0  0.68149  0.19717  0.48996  1.0000
  H   H1839     1.0  0.52525  0.03919  0.32337  1.0000
  C   C1087     1.0  0.67979  0.18782  0.46368  1.0000
  C   C1088     1.0  0.75789  0.98668  0.40594  1.0000
  H   H1840     1.0  0.52396  0.14765  0.31293  1.0000
  H   H1841     1.0  0.50749  0.19616  0.63046  1.0000
  C   C1089     1.0  0.71000  0.16619  0.45506  1.0000
  C   C1090     1.0  0.72990  0.16169  0.44240  1.0000
  H   H1842     1.0  0.57591  0.10872  0.31014  1.0000
  H   H1843     1.0  0.66804  0.18550  0.34412  1.0000
  C   C1091     1.0  0.72646  0.14961  0.34186  1.0000
  H   H1844     1.0  0.74060  0.05157  0.60089  1.0000
  H   H1845     1.0  0.73419  0.99181  0.45042  1.0000
  C   C1092     1.0  0.51580  0.16260  0.61775  1.0000
  H   H1846     1.0  0.71479  0.20883  0.32659  1.0000
  H   H1847     1.0  0.54473  0.11957  0.32382  1.0000
  H   H1848     1.0  0.67500  0.13336  0.31867  1.0000
  C   C1093     1.0  0.73997  0.04239  0.61508  1.0000
  C   C1094     1.0  0.71621  0.00455  0.49364  1.0000
  H   H1849     1.0  0.77690  0.12610  0.57762  1.0000
  H   H1850     1.0  0.65738  0.99386  0.63645  1.0000
  C   C1095     1.0  0.71499  0.02419  0.49919  1.0000
  H   H1851     1.0  0.79924  0.13297  0.60607  1.0000
  H   H1852     1.0  0.73203  0.99699  0.52745  1.0000
  H   H1853     1.0  0.70213  0.03404  0.49453  1.0000
  H   H1854     1.0  0.61241  0.99362  0.32973  1.0000
  H   H1855     1.0  0.57211  0.01687  0.32442  1.0000
  H   H1856     1.0  0.77972  0.14325  0.63248  1.0000
  H   H1857     1.0  0.74496  0.02708  0.61401  1.0000
  H   H1858     1.0  0.68758  0.16739  0.62585  1.0000
  C   C1096     1.0  0.76674  0.14702  0.62560  1.0000
  H   H1859     1.0  0.72081  0.00630  0.39522  1.0000
  H   H1860     1.0  0.72611  0.17165  0.59349  1.0000
  H   H1861     1.0  0.79716  0.14587  0.58296  1.0000
  H   H1862     1.0  0.68763  0.15673  0.34035  1.0000
  C   C1097     1.0  0.55707  0.98982  0.31839  1.0000
  H   H1863     1.0  0.82892  0.22785  0.47582  1.0000
  H   H1864     1.0  0.75217  0.00017  0.47688  1.0000
  H   H1865     1.0  0.70996  0.01241  0.63241  1.0000
  C   C1098     1.0  0.74794  0.22787  0.51841  1.0000
  H   H1866     1.0  0.75061  0.04644  0.62182  1.0000
  N   N78       1.0  0.73175  0.98873  0.50058  1.0000
  H   H1867     1.0  0.68758  0.22297  0.46446  1.0000
  H   H1868     1.0  0.70508  0.17410  0.31489  1.0000
  H   H1869     1.0  0.54052  0.15093  0.63313  1.0000
  C   C1099     1.0  0.80496  0.22463  0.46408  1.0000
  S   S332      1.0  0.78744  0.22782  0.42204  1.0000
  C   C1100     1.0  0.74905  0.22495  0.48575  1.0000
  H   H1870     1.0  0.63145  0.22659  0.63360  1.0000
  S   S333      1.0  0.78738  0.22783  0.59445  1.0000
  C   C1101     1.0  0.80441  0.22401  0.51142  1.0000
  H   H1871     1.0  0.67994  0.22388  0.38101  1.0000
  H   H1872     1.0  0.72564  0.14533  0.31294  1.0000
  H   H1873     1.0  0.51134  0.09967  0.31558  1.0000
  C   C1102     1.0  0.51002  0.11556  0.31249  1.0000
  C   C1103     1.0  0.65274  0.99336  0.30853  1.0000
  H   H1874     1.0  0.66983  0.23218  0.34947  1.0000
  C   C1104     1.0  0.68871  0.23143  0.36910  1.0000
  C   C1105     1.0  0.54642  0.98402  0.33875  1.0000
  S   S334      1.0  0.71148  0.23156  0.39472  1.0000
  H   H1875     1.0  0.69767  0.98657  0.52748  1.0000
  H   H1876     1.0  0.66616  0.10659  0.30818  1.0000
  H   H1877     1.0  0.60398  0.13110  0.30749  1.0000
  C   C1106     1.0  0.72959  0.98477  0.52189  1.0000
  H   H1878     1.0  0.53115  0.98376  0.33826  1.0000
  H   H1879     1.0  0.79231  0.23308  0.45802  1.0000
  S   S335      1.0  0.57003  0.09700  0.71252  1.0000
  S   S336      1.0  0.65804  0.10172  0.72656  1.0000
  S   S337      1.0  0.62081  0.11219  0.69076  1.0000
  H   H1880     1.0  0.65059  0.17658  0.68459  1.0000
  H   H1881     1.0  0.51844  0.17820  0.75572  1.0000
  H   H1882     1.0  0.52479  0.00151  0.72453  1.0000
  C   C1107     1.0  0.56229  0.04305  0.69943  1.0000
  S   S338      1.0  0.66475  0.18392  0.73862  1.0000
  Fe  Fe171     1.0  0.50327  0.21670  0.69551  1.0000
  H   H1883     1.0  0.52373  0.04651  0.66610  1.0000
  H   H1884     1.0  0.61210  0.02718  0.68413  1.0000
  H   H1885     1.0  0.54594  0.16180  0.74402  1.0000
  H   H1886     1.0  0.56860  0.14701  0.70807  1.0000
  H   H1887     1.0  0.55771  0.05810  0.69259  1.0000
  H   H1888     1.0  0.50539  0.03228  0.71853  1.0000
  C   C1108     1.0  0.67771  0.17418  0.66347  1.0000
  C   C1109     1.0  0.56565  0.20795  0.70641  1.0000
  H   H1889     1.0  0.53196  0.14261  0.76670  1.0000
  H   H1890     1.0  0.57676  0.10003  0.67165  1.0000
  H   H1891     1.0  0.58671  0.05138  0.70672  1.0000
  C   C1110     1.0  0.69671  0.12371  0.68953  1.0000
  C   C1111     1.0  0.57569  0.21753  0.71481  1.0000
  H   H1892     1.0  0.59102  0.20162  0.66781  1.0000
  H   H1893     1.0  0.71322  0.09223  0.64835  1.0000
  C   C1112     1.0  0.50642  0.17238  0.75306  1.0000
  H   H1894     1.0  0.50628  0.13214  0.71384  1.0000
  C   C1113     1.0  0.60412  0.99907  0.69225  1.0000
  C   C1114     1.0  0.53227  0.12954  0.76115  1.0000
  H   H1895     1.0  0.54682  0.12048  0.76104  1.0000
  H   H1896     1.0  0.54241  0.99286  0.70529  1.0000
  C   C1115     1.0  0.53057  0.04492  0.71969  1.0000
  H   H1897     1.0  0.67200  0.18066  0.65026  1.0000
  Fe  Fe172     1.0  0.63464  0.05617  0.69722  1.0000
  C   C1116     1.0  0.63067  0.00801  0.70203  1.0000
  H   H1898     1.0  0.65897  0.19865  0.67434  1.0000
  H   H1899     1.0  0.63576  0.16297  0.66539  1.0000
  H   H1900     1.0  0.67799  0.09673  0.65942  1.0000
  H   H1901     1.0  0.50024  0.05001  0.73259  1.0000
  Fe  Fe173     1.0  0.60179  0.08983  0.70093  1.0000
  H   H1902     1.0  0.53675  0.04604  0.73198  1.0000
  C   C1117     1.0  0.68351  0.09962  0.64451  1.0000
  H   H1903     1.0  0.65340  0.16431  0.64370  1.0000
  H   H1904     1.0  0.51300  0.02668  0.74137  1.0000
  H   H1905     1.0  0.68065  0.98617  0.66321  1.0000
  H   H1906     1.0  0.68518  0.11559  0.68982  1.0000
  C   C1118     1.0  0.52937  0.14963  0.70852  1.0000
  H   H1907     1.0  0.68467  0.21847  0.67477  1.0000
  C   C1119     1.0  0.64810  0.15483  0.65680  1.0000
  Fe  Fe174     1.0  0.64021  0.09258  0.70943  1.0000
  C   C1120     1.0  0.55466  0.09831  0.69658  1.0000
  C   C1121     1.0  0.56161  0.09974  0.67712  1.0000
  C   C1122     1.0  0.63488  0.98931  0.71203  1.0000
  C   C1123     1.0  0.52923  0.10060  0.67172  1.0000
  C   C1124     1.0  0.52232  0.09943  0.69114  1.0000
  H   H1908     1.0  0.55426  0.10193  0.64962  1.0000
  C   C1125     1.0  0.69015  0.22307  0.65996  1.0000
  C   C1126     1.0  0.65817  0.12513  0.72971  1.0000
  C   C1127     1.0  0.67246  0.12736  0.73890  1.0000
  C   C1128     1.0  0.67402  0.14546  0.74147  1.0000
  C   C1129     1.0  0.66126  0.16171  0.73498  1.0000
  C   C1130     1.0  0.64665  0.15969  0.72588  1.0000
  C   C1131     1.0  0.64509  0.14133  0.72323  1.0000
  H   H1909     1.0  0.68250  0.11496  0.74406  1.0000
  H   H1910     1.0  0.68523  0.14685  0.74861  1.0000
  H   H1911     1.0  0.63652  0.17216  0.72110  1.0000
  H   H1912     1.0  0.63380  0.13966  0.71638  1.0000
  H   H1913     1.0  0.52959  0.09705  0.71861  1.0000
  H   H1914     1.0  0.55292  0.01441  0.73260  1.0000
  C   C1132     1.0  0.53075  0.04977  0.67687  1.0000
  S   S339      1.0  0.61486  0.07310  0.67736  1.0000
  C   C1133     1.0  0.55203  0.01342  0.71787  1.0000
  S   S340      1.0  0.65667  0.07545  0.68722  1.0000
  H   H1915     1.0  0.51099  0.14349  0.65457  1.0000
  C   C1134     1.0  0.60518  0.22624  0.66655  1.0000
  H   H1916     1.0  0.56574  0.13137  0.73087  1.0000
  H   H1917     1.0  0.51989  0.05991  0.68462  1.0000
  S   S341      1.0  0.62014  0.07143  0.72148  1.0000
  H   H1918     1.0  0.51098  0.18015  0.72272  1.0000
  H   H1919     1.0  0.59008  0.21115  0.71738  1.0000
  H   H1920     1.0  0.57246  0.03599  0.68818  1.0000
  H   H1921     1.0  0.52228  0.12117  0.77171  1.0000
  H   H1922     1.0  0.70296  0.15242  0.68349  1.0000
  H   H1923     1.0  0.54163  0.13816  0.70454  1.0000
  H   H1924     1.0  0.54307  0.05682  0.66897  1.0000
  H   H1925     1.0  0.52477  0.02341  0.69427  1.0000
  S   S342      1.0  0.64617  0.02426  0.70063  1.0000
  C   C1135     1.0  0.53502  0.09819  0.70356  1.0000
  Fe  Fe175     1.0  0.63591  0.09368  0.66920  1.0000
  H   H1926     1.0  0.67095  0.18225  0.69177  1.0000
  H   H1927     1.0  0.66944  0.04290  0.66290  1.0000
  H   H1928     1.0  0.54610  0.17361  0.72061  1.0000
  H   H1929     1.0  0.52721  0.06009  0.71266  1.0000
  H   H1930     1.0  0.71012  0.15129  0.64948  1.0000
  C   C1136     1.0  0.57429  0.04425  0.71417  1.0000
  C   C1137     1.0  0.68437  0.03935  0.65501  1.0000
  H   H1931     1.0  0.56698  0.00755  0.71142  1.0000
  H   H1932     1.0  0.51527  0.14038  0.68948  1.0000
  C   C1138     1.0  0.54582  0.15928  0.72971  1.0000
  C   C1139     1.0  0.56527  0.14646  0.72364  1.0000
  N   N79       1.0  0.68151  0.15257  0.66654  1.0000
  H   H1933     1.0  0.57248  0.19433  0.70227  1.0000
  C   C1140     1.0  0.51031  0.16672  0.73338  1.0000
  C   C1141     1.0  0.69023  0.14559  0.68433  1.0000
  H   H1934     1.0  0.53558  0.12106  0.73435  1.0000
  N   N80       1.0  0.54513  0.03297  0.70692  1.0000
  C   C1142     1.0  0.51143  0.14446  0.70373  1.0000
  H   H1935     1.0  0.70025  0.12028  0.70404  1.0000
  C   C1143     1.0  0.70932  0.21613  0.65229  1.0000
  C   C1144     1.0  0.52630  0.13277  0.74148  1.0000
  S   S343      1.0  0.62958  0.21733  0.70587  1.0000
  H   H1936     1.0  0.53246  0.16298  0.69855  1.0000
  C   C1145     1.0  0.54886  0.10095  0.66468  1.0000
  H   H1937     1.0  0.70020  0.13016  0.65264  1.0000
  H   H1938     1.0  0.54842  0.02183  0.68111  1.0000
  C   C1146     1.0  0.53731  0.03096  0.69003  1.0000
  H   H1939     1.0  0.67980  0.14982  0.69689  1.0000
  C   C1147     1.0  0.66346  0.14411  0.66907  1.0000
  H   H1940     1.0  0.71004  0.11842  0.67999  1.0000
  C   C1148     1.0  0.54687  0.21604  0.70330  1.0000
  C   C1149     1.0  0.51142  0.03776  0.72852  1.0000
  H   H1941     1.0  0.65584  0.14316  0.68404  1.0000
  H   H1942     1.0  0.50712  0.09984  0.69661  1.0000
  H   H1943     1.0  0.71852  0.20626  0.66129  1.0000
  H   H1944     1.0  0.64187  0.14410  0.65231  1.0000
  H   H1945     1.0  0.66725  0.12907  0.66658  1.0000
  H   H1946     1.0  0.59247  0.00275  0.68422  1.0000
  N   N81       1.0  0.52799  0.15191  0.72881  1.0000
  H   H1947     1.0  0.58047  0.02998  0.72149  1.0000
  H   H1948     1.0  0.56595  0.05320  0.72470  1.0000
  C   C1150     1.0  0.54038  0.99744  0.71921  1.0000
  H   H1949     1.0  0.57709  0.15181  0.72739  1.0000
  C   C1151     1.0  0.66371  0.18318  0.67957  1.0000
  H   H1950     1.0  0.65845  0.01067  0.65010  1.0000
  Fe  Fe176     1.0  0.64926  0.21282  0.72687  1.0000
  H   H1951     1.0  0.51126  0.12996  0.74382  1.0000
  C   C1152     1.0  0.61519  0.01290  0.69219  1.0000
  S   S344      1.0  0.53500  0.20472  0.69150  1.0000
  C   C1153     1.0  0.69644  0.14600  0.65034  1.0000
  S   S345      1.0  0.51351  0.10156  0.65617  1.0000
  H   H1952     1.0  0.52078  0.18888  0.66200  1.0000
  H   H1953     1.0  0.63888  0.99737  0.65711  1.0000
  H   H1954     1.0  0.69151  0.17965  0.66142  1.0000
  H   H1955     1.0  0.61422  0.19560  0.67450  1.0000
  H   H1956     1.0  0.61270  0.20264  0.64997  1.0000
  C   C1154     1.0  0.60564  0.20547  0.66431  1.0000
  H   H1957     1.0  0.49946  0.15687  0.70306  1.0000
  H   H1958     1.0  0.49386  0.13932  0.64271  1.0000
  C   C1155     1.0  0.52270  0.17902  0.65178  1.0000
  H   H1959     1.0  0.52461  0.16456  0.66046  1.0000
  C   C1156     1.0  0.49754  0.15044  0.64908  1.0000
  H   H1960     1.0  0.69383  0.04518  0.66167  1.0000
  C   C1157     1.0  0.65454  0.99642  0.65118  1.0000
  H   H1961     1.0  0.68818  0.02354  0.65704  1.0000
  H   H1962     1.0  0.54600  0.98464  0.72913  1.0000
  H   H1963     1.0  0.50256  0.16036  0.76443  1.0000
  C   C1158     1.0  0.50491  0.18377  0.64197  1.0000
  H   H1964     1.0  0.49692  0.16177  0.73258  1.0000
  H   H1965     1.0  0.74744  0.13053  0.64656  1.0000
  H   H1966     1.0  0.57040  0.22641  0.65651  1.0000
  H   H1967     1.0  0.72157  0.03619  0.64155  1.0000
  H   H1968     1.0  0.59916  0.22693  0.68165  1.0000
  H   H1969     1.0  0.64684  0.98549  0.71968  1.0000
  H   H1970     1.0  0.62035  0.22839  0.66469  1.0000
  H   H1971     1.0  0.49359  0.18398  0.75386  1.0000
  H   H1972     1.0  0.53607  0.18094  0.64129  1.0000
  C   C1159     1.0  0.49690  0.26516  0.11960  1.0000
  Fe  Fe177     1.0  0.66889  0.39049  0.98242  1.0000
  H   H1973     1.0  0.72134  0.25842  0.23971  1.0000
  Fe  Fe178     1.0  0.63486  0.37688  0.01027  1.0000
  S   S346      1.0  0.64115  0.40614  0.99672  1.0000
  S   S347      1.0  0.62014  0.37288  0.04099  1.0000
  H   H1974     1.0  0.51074  0.28702  0.21840  1.0000
  C   C1160     1.0  0.58191  0.35070  0.99232  1.0000
  H   H1975     1.0  0.84056  0.47443  0.24005  1.0000
  H   H1976     1.0  0.54195  0.36659  0.19887  1.0000
  S   S348      1.0  0.61971  0.37454  0.98721  1.0000
  S   S349      1.0  0.66353  0.36126  0.99757  1.0000
  C   C1161     1.0  0.49474  0.28994  0.19589  1.0000
  C   C1162     1.0  0.67350  0.29936  0.28384  1.0000
  H   H1977     1.0  0.51011  0.27090  0.11193  1.0000
  S   S350      1.0  0.70239  0.46920  0.01343  1.0000
  S   S351      1.0  0.63995  0.26004  0.28954  1.0000
  S   S352      1.0  0.75983  0.46888  0.99645  1.0000
  Fe  Fe179     1.0  0.62390  0.38463  0.15021  1.0000
  S   S353      1.0  0.63823  0.35385  0.15175  1.0000
  S   S354      1.0  0.59189  0.39527  0.15166  1.0000
  Fe  Fe180     1.0  0.66172  0.39869  0.14910  1.0000
  S   S355      1.0  0.67897  0.36881  0.15079  1.0000
  S   S356      1.0  0.67129  0.42748  0.14535  1.0000
  Fe  Fe181     1.0  0.66158  0.36562  0.12968  1.0000
  S   S357      1.0  0.67427  0.35332  0.10297  1.0000
  Fe  Fe182     1.0  0.65381  0.35966  0.17282  1.0000
  S   S358      1.0  0.65291  0.34320  0.20306  1.0000
  S   S359      1.0  0.64606  0.39597  0.12659  1.0000
  S   S360      1.0  0.63793  0.38995  0.17256  1.0000
  Fe  Fe183     1.0  0.51776  0.35553  0.98337  1.0000
  H   H1978     1.0  0.59530  0.36401  0.22582  1.0000
  Fe  Fe184     1.0  0.75586  0.47295  0.16157  1.0000
  S   S361      1.0  0.65368  0.25453  0.23555  1.0000
  H   H1979     1.0  0.56637  0.36942  0.21237  1.0000
  H   H1980     1.0  0.52149  0.25916  0.27617  1.0000
  H   H1981     1.0  0.59504  0.32260  0.16756  1.0000
  C   C1163     1.0  0.54517  0.35072  0.20066  1.0000
  S   S362      1.0  0.78450  0.47812  0.14373  1.0000
  N   N82       1.0  0.70167  0.28928  0.25725  1.0000
  H   H1982     1.0  0.59473  0.24101  0.26679  1.0000
  S   S363      1.0  0.74837  0.44368  0.16309  1.0000
  H   H1983     1.0  0.69013  0.29409  0.22217  1.0000
  H   H1984     1.0  0.59926  0.30910  0.19052  1.0000
  C   C1164     1.0  0.57524  0.25199  0.24570  1.0000
  H   H1985     1.0  0.49745  0.45798  0.97712  1.0000
  C   C1165     1.0  0.71751  0.42283  0.98759  1.0000
  C   C1166     1.0  0.54926  0.23956  0.23773  1.0000
  C   C1167     1.0  0.51284  0.34549  0.03139  1.0000
  H   H1986     1.0  0.58649  0.24816  0.23346  1.0000
  H   H1987     1.0  0.57466  0.31863  0.21810  1.0000
  S   S364      1.0  0.52904  0.34112  0.01040  1.0000
  C   C1168     1.0  0.73345  0.26950  0.26738  1.0000
  H   H1988     1.0  0.49606  0.28337  0.08549  1.0000
  H   H1989     1.0  0.57637  0.26118  0.27232  1.0000
  Fe  Fe185     1.0  0.51268  0.34671  0.13534  1.0000
  H   H1990     1.0  0.70815  0.27953  0.28566  1.0000
  S   S365      1.0  0.54516  0.34129  0.12965  1.0000
  H   H1991     1.0  0.49405  0.25482  0.11183  1.0000
  C   C1169     1.0  0.74298  0.47075  0.11100  1.0000
  N   N83       1.0  0.58214  0.34480  0.19980  1.0000
  S   S366      1.0  0.49835  0.25702  0.24759  1.0000
  H   H1992     1.0  0.73610  0.46584  0.07435  1.0000
  H   H1993     1.0  0.66032  0.31042  0.28583  1.0000
  C   C1170     1.0  0.69375  0.27168  0.25692  1.0000
  S   S367      1.0  0.87686  0.47023  0.27216  1.0000
  C   C1171     1.0  0.49375  0.35460  0.03076  1.0000
  Fe  Fe186     1.0  0.72871  0.48299  0.00273  1.0000
  S   S368      1.0  0.50219  0.32506  0.12410  1.0000
  H   H1994     1.0  0.54885  0.23770  0.20870  1.0000
  H   H1995     1.0  0.93275  0.47241  0.21877  1.0000
  C   C1172     1.0  0.60066  0.33999  0.18628  1.0000
  H   H1996     1.0  0.60848  0.33375  0.22636  1.0000
  C   C1173     1.0  0.69894  0.30474  0.22257  1.0000
  H   H1997     1.0  0.90629  0.45928  0.23933  1.0000
  C   C1174     1.0  0.51901  0.33960  0.04898  1.0000
  C   C1175     1.0  0.71166  0.29793  0.23805  1.0000
  H   H1998     1.0  0.53370  0.33241  0.04957  1.0000
  H   H1999     1.0  0.88596  0.46672  0.20490  1.0000
  H   H2000     1.0  0.59331  0.34625  0.00120  1.0000
  H   H2001     1.0  0.71415  0.38187  0.03980  1.0000
  C   C1176     1.0  0.57232  0.31705  0.98006  1.0000
  H   H2002     1.0  0.49324  0.43450  0.00491  1.0000
  H   H2003     1.0  0.74256  0.27310  0.25337  1.0000
  S   S369      1.0  0.69838  0.39839  0.97814  1.0000
  C   C1177     1.0  0.60344  0.32093  0.17907  1.0000
  H   H2004     1.0  0.68928  0.31858  0.22443  1.0000
  H   H2005     1.0  0.83113  0.46138  0.21525  1.0000
  C   C1178     1.0  0.57895  0.38073  0.14479  1.0000
  C   C1179     1.0  0.55872  0.38521  0.14740  1.0000
  C   C1180     1.0  0.54808  0.37317  0.14288  1.0000
  C   C1181     1.0  0.55772  0.35664  0.13576  1.0000
  C   C1182     1.0  0.57792  0.35223  0.13309  1.0000
  C   C1183     1.0  0.58853  0.36433  0.13744  1.0000
  H   H2006     1.0  0.55128  0.39794  0.15306  1.0000
  H   H2007     1.0  0.53248  0.37667  0.14489  1.0000
  H   H2008     1.0  0.58544  0.33947  0.12753  1.0000
  H   H2009     1.0  0.60410  0.36095  0.13507  1.0000
  C   C1184     1.0  0.65148  0.31873  0.21139  1.0000
  C   C1185     1.0  0.64691  0.31244  0.23102  1.0000
  C   C1186     1.0  0.64682  0.29294  0.23855  1.0000
  C   C1187     1.0  0.65172  0.27942  0.22653  1.0000
  C   C1188     1.0  0.65573  0.28577  0.20683  1.0000
  C   C1189     1.0  0.65553  0.30537  0.19926  1.0000
  H   H2010     1.0  0.64356  0.32273  0.24049  1.0000
  H   H2011     1.0  0.64338  0.28834  0.25370  1.0000
  H   H2012     1.0  0.65944  0.27543  0.19739  1.0000
  H   H2013     1.0  0.65910  0.31004  0.18411  1.0000
  C   C1190     1.0  0.72584  0.43921  0.16068  1.0000
  C   C1191     1.0  0.71013  0.45399  0.15804  1.0000
  C   C1192     1.0  0.69317  0.45002  0.15412  1.0000
  C   C1193     1.0  0.69170  0.43128  0.15298  1.0000
  C   C1194     1.0  0.70716  0.41643  0.15628  1.0000
  C   C1195     1.0  0.72415  0.42040  0.16007  1.0000
  H   H2014     1.0  0.71121  0.46850  0.15855  1.0000
  H   H2015     1.0  0.68125  0.46158  0.15160  1.0000
  H   H2016     1.0  0.70622  0.40197  0.15540  1.0000
  H   H2017     1.0  0.73622  0.40889  0.16217  1.0000
  H   H2018     1.0  0.51399  0.38293  0.08198  1.0000
  C   C1196     1.0  0.53707  0.26022  0.27197  1.0000
  H   H2019     1.0  0.91467  0.44983  0.21738  1.0000
  C   C1197     1.0  0.82938  0.47671  0.21434  1.0000
  H   H2020     1.0  0.57098  0.33828  0.22989  1.0000
  C   C1198     1.0  0.90183  0.45566  0.22717  1.0000
  H   H2021     1.0  0.60949  0.31226  0.21745  1.0000
  H   H2022     1.0  0.71338  0.45892  0.10155  1.0000
  H   H2023     1.0  0.51092  0.33814  0.07934  1.0000
  H   H2024     1.0  0.80360  0.47552  0.06608  1.0000
  H   H2025     1.0  0.50008  0.25726  0.13365  1.0000
  S   S370      1.0  0.49374  0.34206  0.16396  1.0000
  H   H2026     1.0  0.56598  0.32876  0.18878  1.0000
  H   H2027     1.0  0.73251  0.44216  0.99513  1.0000
  C   C1199     1.0  0.69951  0.41816  0.98785  1.0000
  C   C1200     1.0  0.59602  0.37021  0.21057  1.0000
  H   H2028     1.0  0.56724  0.35213  0.17577  1.0000
  H   H2029     1.0  0.61890  0.31672  0.17293  1.0000
  H   H2030     1.0  0.67928  0.27592  0.25275  1.0000
  H   H2031     1.0  0.57878  0.37522  0.18883  1.0000
  C   C1201     1.0  0.63518  0.36681  0.05827  1.0000
  C   C1202     1.0  0.65447  0.35799  0.05408  1.0000
  C   C1203     1.0  0.66616  0.35329  0.06808  1.0000
  C   C1204     1.0  0.65877  0.35767  0.08626  1.0000
  C   C1205     1.0  0.63948  0.36650  0.09045  1.0000
  C   C1206     1.0  0.62769  0.37091  0.07654  1.0000
  H   H2032     1.0  0.66035  0.35461  0.04011  1.0000
  H   H2033     1.0  0.68106  0.34643  0.06477  1.0000
  H   H2034     1.0  0.63363  0.36995  0.10441  1.0000
  H   H2035     1.0  0.61285  0.37781  0.07993  1.0000
  H   H2036     1.0  0.72946  0.25518  0.26918  1.0000
  C   C1207     1.0  0.68266  0.42973  0.99518  1.0000
  C   C1208     1.0  0.68371  0.44561  0.00262  1.0000
  C   C1209     1.0  0.70166  0.45003  0.00279  1.0000
  C   C1210     1.0  0.71859  0.43878  0.99506  1.0000
  H   H2037     1.0  0.70827  0.30730  0.20844  1.0000
  C   C1211     1.0  0.60642  0.31355  0.98431  1.0000
  H   H2038     1.0  0.67056  0.45454  0.00822  1.0000
  C   C1212     1.0  0.58099  0.33122  0.21858  1.0000
  H   H2039     1.0  0.61359  0.33953  0.19247  1.0000
  H   H2040     1.0  0.75810  0.47089  0.07695  1.0000
  C   C1213     1.0  0.57996  0.36524  0.20253  1.0000
  H   H2041     1.0  0.53864  0.27068  0.25862  1.0000
  H   H2042     1.0  0.56007  0.29104  0.98580  1.0000
  H   H2043     1.0  0.61068  0.36617  0.20253  1.0000
  C   C1214     1.0  0.61243  0.29177  0.98526  1.0000
  C   C1215     1.0  0.55976  0.23543  0.21801  1.0000
  N   N84       1.0  0.56389  0.36877  0.06959  1.0000
  C   C1216     1.0  0.57720  0.35327  0.08025  1.0000
  C   C1217     1.0  0.56888  0.38771  0.07046  1.0000
  C   C1218     1.0  0.56759  0.36560  0.04930  1.0000
  C   C1219     1.0  0.54337  0.36711  0.07892  1.0000
  C   C1220     1.0  0.57581  0.33242  0.07983  1.0000
  C   C1221     1.0  0.56642  0.39252  0.09045  1.0000
  C   C1222     1.0  0.56317  0.38328  0.03394  1.0000
  C   C1223     1.0  0.52723  0.38224  0.07095  1.0000
  H   H2044     1.0  0.59256  0.35493  0.07479  1.0000
  H   H2045     1.0  0.57446  0.35435  0.09547  1.0000
  H   H2046     1.0  0.56028  0.39992  0.06231  1.0000
  H   H2047     1.0  0.58415  0.38833  0.06350  1.0000
  H   H2048     1.0  0.58311  0.35958  0.04475  1.0000
  H   H2049     1.0  0.55935  0.35474  0.04789  1.0000
  H   H2050     1.0  0.54010  0.35315  0.07777  1.0000
  H   H2051     1.0  0.54109  0.36652  0.09449  1.0000
  H   H2052     1.0  0.58715  0.32266  0.08714  1.0000
  H   H2053     1.0  0.56179  0.32865  0.08775  1.0000
  H   H2054     1.0  0.57843  0.32937  0.06524  1.0000
  H   H2055     1.0  0.57724  0.38317  0.09864  1.0000
  H   H2056     1.0  0.56897  0.40737  0.08907  1.0000
  H   H2057     1.0  0.55166  0.39195  0.09865  1.0000
  H   H2058     1.0  0.54850  0.39159  0.03717  1.0000
  H   H2059     1.0  0.56425  0.37848  0.02031  1.0000
  H   H2060     1.0  0.57404  0.39278  0.03157  1.0000
  H   H2061     1.0  0.72029  0.44539  0.12289  1.0000
  H   H2062     1.0  0.53046  0.39692  0.06760  1.0000
  Fe  Fe187     1.0  0.65083  0.24196  0.26703  1.0000
  N   N85       1.0  0.74423  0.45361  0.10186  1.0000
  S   S371      1.0  0.78580  0.48251  0.03322  1.0000
  C   C1224     1.0  0.75896  0.43773  0.11008  1.0000
  C   C1225     1.0  0.72472  0.44757  0.10731  1.0000
  C   C1226     1.0  0.74932  0.45937  0.08061  1.0000
  S   S372      1.0  0.50047  0.38529  0.98094  1.0000
  C   C1227     1.0  0.77888  0.44302  0.10902  1.0000
  C   C1228     1.0  0.72287  0.42917  0.10118  1.0000
  C   C1229     1.0  0.76079  0.44371  0.06922  1.0000
  H   H2063     1.0  0.74065  0.46665  0.12673  1.0000
  H   H2064     1.0  0.67439  0.30819  0.25417  1.0000
  H   H2065     1.0  0.76152  0.42497  0.10325  1.0000
  H   H2066     1.0  0.75351  0.43250  0.12532  1.0000
  H   H2067     1.0  0.69950  0.26059  0.23019  1.0000
  C   C1230     1.0  0.60013  0.32275  0.22596  1.0000
  H   H2068     1.0  0.61986  0.31987  0.97942  1.0000
  H   H2069     1.0  0.66862  0.28546  0.28603  1.0000
  C   C1231     1.0  0.97561  0.47580  0.30149  1.0000
  C   C1232     1.0  0.54925  0.24003  0.27088  1.0000
  C   C1233     1.0  0.58621  0.25462  0.26067  1.0000
  H   H2070     1.0  0.78395  0.45166  0.09516  1.0000
  H   H2071     1.0  0.77839  0.45103  0.12048  1.0000
  H   H2072     1.0  0.78971  0.42974  0.11133  1.0000
  H   H2073     1.0  0.73330  0.41655  0.10628  1.0000
  H   H2074     1.0  0.72377  0.43126  0.08565  1.0000
  H   H2075     1.0  0.70829  0.42581  0.10775  1.0000
  H   H2076     1.0  0.77591  0.43951  0.07166  1.0000
  H   H2077     1.0  0.76157  0.44961  0.05385  1.0000
  H   H2078     1.0  0.75409  0.43079  0.07216  1.0000
  N   N86       1.0  0.67589  0.41536  0.05828  1.0000
  C   C1234     1.0  0.66014  0.41131  0.04972  1.0000
  C   C1235     1.0  0.69492  0.40794  0.04663  1.0000
  C   C1236     1.0  0.67353  0.43680  0.05642  1.0000
  C   C1237     1.0  0.67363  0.40592  0.07887  1.0000
  C   C1238     1.0  0.63916  0.41880  0.05859  1.0000
  C   C1239     1.0  0.69872  0.38637  0.04584  1.0000
  C   C1240     1.0  0.68874  0.44444  0.06327  1.0000
  C   C1241     1.0  0.69181  0.40100  0.08826  1.0000
  H   H2079     1.0  0.66196  0.41718  0.03424  1.0000
  H   H2080     1.0  0.66097  0.39565  0.05096  1.0000
  H   H2081     1.0  0.70743  0.41073  0.05145  1.0000
  H   H2082     1.0  0.69601  0.41572  0.03174  1.0000
  H   H2083     1.0  0.67333  0.44382  0.04142  1.0000
  H   H2084     1.0  0.65944  0.44266  0.06462  1.0000
  H   H2085     1.0  0.66216  0.41484  0.08765  1.0000
  H   H2086     1.0  0.66849  0.39217  0.08065  1.0000
  H   H2087     1.0  0.63543  0.43461  0.05505  1.0000
  H   H2088     1.0  0.62920  0.41292  0.05256  1.0000
  H   H2089     1.0  0.63620  0.41398  0.07416  1.0000
  H   H2090     1.0  0.91512  0.47720  0.18638  1.0000
  H   H2091     1.0  0.69572  0.37746  0.06005  1.0000
  H   H2092     1.0  0.69014  0.38321  0.03631  1.0000
  H   H2093     1.0  0.68780  0.44035  0.07884  1.0000
  H   H2094     1.0  0.68562  0.46035  0.06015  1.0000
  H   H2095     1.0  0.70359  0.44021  0.05570  1.0000
  H   H2096     1.0  0.68748  0.40351  0.10313  1.0000
  H   H2097     1.0  0.70330  0.40938  0.08142  1.0000
  H   H2098     1.0  0.69788  0.38547  0.08942  1.0000
  H   H2099     1.0  0.59695  0.31485  0.24068  1.0000
  H   H2100     1.0  0.53451  0.34650  0.19406  1.0000
  H   H2101     1.0  0.54286  0.34432  0.21591  1.0000
  C   C1242     1.0  0.68515  0.30449  0.26377  1.0000
  C   C1243     1.0  0.88903  0.47252  0.21659  1.0000
  H   H2102     1.0  0.60129  0.31551  0.99928  1.0000
  H   H2103     1.0  0.94461  0.47006  0.19537  1.0000
  C   C1244     1.0  0.56572  0.34373  0.19041  1.0000
  H   H2104     1.0  0.56870  0.34516  0.00005  1.0000
  H   H2105     1.0  0.75680  0.47635  0.10702  1.0000
  H   H2106     1.0  0.52381  0.37845  0.05829  1.0000
  C   C1245     1.0  0.94275  0.47423  0.29881  1.0000
  H   H2107     1.0  0.66879  0.42666  0.99493  1.0000
  H   H2108     1.0  0.59372  0.38601  0.20957  1.0000
  H   H2109     1.0  0.57005  0.24534  0.21122  1.0000
  H   H2110     1.0  0.71764  0.31054  0.23919  1.0000
  C   C1246     1.0  0.50615  0.34287  0.06583  1.0000
  H   H2111     1.0  0.50122  0.30176  0.18723  1.0000
  H   H2112     1.0  0.54079  0.26624  0.28318  1.0000
  H   H2113     1.0  0.72041  0.29813  0.27202  1.0000
  H   H2114     1.0  0.57822  0.36656  0.99038  1.0000
  H   H2115     1.0  0.60153  0.35152  0.17358  1.0000
  H   H2116     1.0  0.56960  0.31455  0.99585  1.0000
  H   H2117     1.0  0.72443  0.28803  0.23231  1.0000
  H   H2118     1.0  0.69038  0.31805  0.26320  1.0000
  H   H2119     1.0  0.69134  0.26301  0.27141  1.0000
  C   C1247     1.0  0.50017  0.28151  0.21354  1.0000
  H   H2120     1.0  0.59662  0.26446  0.25386  1.0000
  H   H2121     1.0  0.56732  0.26632  0.24023  1.0000
  C   C1248     1.0  0.71543  0.28486  0.27113  1.0000
  S   S373      1.0  0.76181  0.48231  0.18669  1.0000
  H   H2122     1.0  0.56034  0.32857  0.97581  1.0000
  H   H2123     1.0  0.89343  0.44387  0.23308  1.0000
  H   H2124     1.0  0.49295  0.30602  0.09244  1.0000
  Fe  Fe188     1.0  0.66379  0.24185  0.30434  1.0000
  C   C1249     1.0  0.70571  0.25809  0.24333  1.0000
  H   H2125     1.0  0.62417  0.28660  0.99377  1.0000
  H   H2126     1.0  0.73061  0.41402  0.98175  1.0000
  N   N87       1.0  0.56200  0.23736  0.25218  1.0000
  H   H2127     1.0  0.55807  0.23641  0.28221  1.0000
  H   H2128     1.0  0.92915  0.46948  0.30496  1.0000
  H   H2129     1.0  0.68172  0.29930  0.29505  1.0000
  H   H2130     1.0  0.54092  0.25436  0.23538  1.0000
  H   H2131     1.0  0.74255  0.26834  0.27820  1.0000
  H   H2132     1.0  0.70434  0.24311  0.25005  1.0000
  Fe  Fe189     1.0  0.86318  0.46864  0.30310  1.0000
  H   H2133     1.0  0.87496  0.47541  0.22628  1.0000
  S   S374      1.0  0.81688  0.47936  0.18079  1.0000
  Fe  Fe190     1.0  0.62258  0.23684  0.30378  1.0000
  H   H2134     1.0  0.60038  0.28416  0.99273  1.0000
  C   C1250     1.0  0.93461  0.48016  0.20400  1.0000
  C   C1251     1.0  0.56923  0.29899  0.97386  1.0000
  Fe  Fe191     1.0  0.88702  0.36214  0.58975  1.0000
  Fe  Fe192     1.0  0.87585  0.37380  0.55038  1.0000
  S   S375      1.0  0.88468  0.48298  0.31067  1.0000
  S   S376      1.0  0.85757  0.39570  0.53186  1.0000
  C   C1252     1.0  0.70481  0.23497  0.62161  1.0000
  Fe  Fe193     1.0  0.91657  0.35474  0.55462  1.0000
  H   H2135     1.0  0.83867  0.32482  0.58119  1.0000
  S   S377      1.0  0.86259  0.35685  0.57771  1.0000
  S   S378      1.0  0.89815  0.38154  0.56334  1.0000
  H   H2136     1.0  0.90714  0.39863  0.33768  1.0000
  N   N88       1.0  0.97055  0.38873  0.61434  1.0000
  H   H2137     1.0  0.77231  0.29340  0.47165  1.0000
  H   H2138     1.0  0.82729  0.32393  0.62085  1.0000
  Fe  Fe194     1.0  0.86287  0.36245  0.43696  1.0000
  S   S379      1.0  0.87428  0.33286  0.45060  1.0000
  S   S380      1.0  0.84279  0.38370  0.45338  1.0000
  Fe  Fe195     1.0  0.88423  0.35678  0.39783  1.0000
  S   S381      1.0  0.89350  0.36906  0.36697  1.0000
  Fe  Fe196     1.0  0.86805  0.32372  0.42538  1.0000
  S   S382      1.0  0.85662  0.29584  0.42940  1.0000
  S   S383      1.0  0.85424  0.35323  0.41295  1.0000
  S   S384      1.0  0.89149  0.36879  0.42071  1.0000
  H   H2139     1.0  0.85700  0.35442  0.36109  1.0000
  H   H2140     1.0  0.84146  0.26417  0.46289  1.0000
  S   S385      1.0  0.89510  0.34859  0.53958  1.0000
  H   H2141     1.0  0.96394  0.35622  0.47546  1.0000
  H   H2142     1.0  0.62737  0.25233  0.62646  1.0000
  H   H2143     1.0  0.86183  0.31630  0.60390  1.0000
  C   C1253     1.0  0.96312  0.39781  0.48439  1.0000
  C   C1254     1.0  0.86607  0.31927  0.37723  1.0000
  H   H2144     1.0  0.82198  0.36593  0.52354  1.0000
  H   H2145     1.0  0.89736  0.26531  0.60086  1.0000
  C   C1255     1.0  0.88752  0.33334  0.33849  1.0000
  H   H2146     1.0  0.88532  0.29688  0.39234  1.0000
  C   C1256     1.0  0.98104  0.35864  0.54956  1.0000
  H   H2147     1.0  0.93867  0.33600  0.48483  1.0000
  H   H2148     1.0  0.97604  0.31830  0.59346  1.0000
  S   S386      1.0  0.94706  0.35666  0.53979  1.0000
  C   C1257     1.0  0.98526  0.35532  0.63096  1.0000
  H   H2149     1.0  0.85535  0.32011  0.39050  1.0000
  H   H2150     1.0  0.86086  0.40332  0.41736  1.0000
  H   H2151     1.0  0.86427  0.45253  0.63569  1.0000
  C   C1258     1.0  0.83569  0.29272  0.42208  1.0000
  C   C1259     1.0  0.82136  0.30817  0.41703  1.0000
  C   C1260     1.0  0.80503  0.30503  0.41116  1.0000
  C   C1261     1.0  0.98372  0.34223  0.43187  1.0000
  H   H2152     1.0  0.82279  0.32251  0.41777  1.0000
  H   H2153     1.0  0.79408  0.31708  0.40711  1.0000
  C   C1262     1.0  0.86191  0.42393  0.33485  1.0000
  C   C1263     1.0  0.88205  0.41925  0.33100  1.0000
  C   C1264     1.0  0.89158  0.40241  0.34102  1.0000
  C   C1265     1.0  0.88109  0.39046  0.35529  1.0000
  C   C1266     1.0  0.86098  0.39530  0.35936  1.0000
  C   C1267     1.0  0.85142  0.41187  0.34903  1.0000
  H   H2154     1.0  0.85275  0.38615  0.37024  1.0000
  H   H2155     1.0  0.83583  0.41542  0.35201  1.0000
  S   S387      1.0  0.74159  0.26242  0.53052  1.0000
  C   C1268     1.0  0.96648  0.33636  0.44212  1.0000
  H   H2156     1.0  0.86909  0.28769  0.38304  1.0000
  Fe  Fe197     1.0  0.73994  0.23483  0.40161  1.0000
  S   S388      1.0  0.92879  0.33190  0.44687  1.0000
  C   C1269     1.0  0.85436  0.43580  0.43404  1.0000
  H   H2157     1.0  0.99149  0.38222  0.63348  1.0000
  C   C1270     1.0  0.83191  0.27253  0.47338  1.0000
  H   H2158     1.0  0.84868  0.29697  0.36296  1.0000
  H   H2159     1.0  0.97552  0.38616  0.48697  1.0000
  C   C1271     1.0  0.97453  0.42018  0.62352  1.0000
  S   S389      1.0  0.78827  0.24951  0.55044  1.0000
  C   C1272     1.0  0.70547  0.23685  0.37174  1.0000
  C   C1273     1.0  0.85488  0.39211  0.50960  1.0000
  C   C1274     1.0  0.83897  0.40294  0.50189  1.0000
  C   C1275     1.0  0.83567  0.40030  0.48458  1.0000
  C   C1276     1.0  0.84841  0.38700  0.47456  1.0000
  C   C1277     1.0  0.86479  0.37650  0.48184  1.0000
  C   C1278     1.0  0.86793  0.37894  0.49947  1.0000
  H   H2160     1.0  0.82890  0.41321  0.50954  1.0000
  H   H2161     1.0  0.82305  0.40851  0.47902  1.0000
  H   H2162     1.0  0.87478  0.36626  0.47410  1.0000
  H   H2163     1.0  0.88030  0.37059  0.50524  1.0000
  S   S390      1.0  0.89777  0.32654  0.40855  1.0000
  C   C1279     1.0  0.89582  0.40182  0.61161  1.0000
  H   H2164     1.0  0.81420  0.34952  0.54493  1.0000
  H   H2165     1.0  0.89421  0.40226  0.59720  1.0000
  S   S391      1.0  0.90702  0.33557  0.58172  1.0000
  C   C1280     1.0  0.82162  0.31791  0.52968  1.0000
  H   H2166     1.0  0.88991  0.29658  0.36763  1.0000
  H   H2167     1.0  0.91261  0.30896  0.62831  1.0000
  H   H2168     1.0  0.83188  0.36362  0.54429  1.0000
  H   H2169     1.0  0.83493  0.44540  0.37780  1.0000
  C   C1281     1.0  0.96453  0.35006  0.55447  1.0000
  S   S392      1.0  0.79127  0.28382  0.58588  1.0000
  H   H2170     1.0  0.89685  0.32804  0.34941  1.0000
  C   C1282     1.0  0.84738  0.45294  0.37402  1.0000
  C   C1283     1.0  0.81804  0.30635  0.58359  1.0000
  H   H2171     1.0  0.90244  0.28385  0.62297  1.0000
  H   H2172     1.0  0.88118  0.32465  0.51506  1.0000
  H   H2173     1.0  0.83166  0.31188  0.37651  1.0000
  C   C1284     1.0  0.98515  0.35012  0.41259  1.0000
  C   C1285     1.0  0.71662  0.24671  0.35626  1.0000
  H   H2174     1.0  0.98703  0.39857  0.34567  1.0000
  H   H2175     1.0  0.80582  0.31655  0.58886  1.0000
  C   C1286     1.0  0.83329  0.27411  0.42163  1.0000
  H   H2176     1.0  0.95656  0.40615  0.57764  1.0000
  C   C1287     1.0  0.87562  0.31747  0.50593  1.0000
  C   C1288     1.0  0.84147  0.31217  0.36254  1.0000
  C   C1289     1.0  0.82815  0.35004  0.37354  1.0000
  C   C1290     1.0  0.79237  0.26649  0.47122  1.0000
  H   H2177     1.0  0.83327  0.41383  0.38956  1.0000
  H   H2178     1.0  0.82380  0.24527  0.45584  1.0000
  H   H2179     1.0  0.88802  0.41565  0.41655  1.0000
  S   S393      1.0  0.88374  0.36664  0.62023  1.0000
  H   H2180     1.0  0.82153  0.34915  0.50189  1.0000
  H   H2181     1.0  0.83047  0.40204  0.41391  1.0000
  C   C1291     1.0  0.95344  0.39203  0.58559  1.0000
  H   H2182     1.0  0.84594  0.34635  0.49216  1.0000
  C   C1292     1.0  0.81686  0.27094  0.41597  1.0000
  H   H2183     1.0  0.85526  0.34730  0.52109  1.0000
  H   H2184     1.0  0.84943  0.45781  0.35841  1.0000
  S   S394      1.0  0.78227  0.28329  0.40232  1.0000
  H   H2185     1.0  0.80793  0.32795  0.52745  1.0000
  H   H2186     1.0  0.87444  0.32694  0.49211  1.0000
  H   H2187     1.0  0.84014  0.31332  0.48436  1.0000
  C   C1293     1.0  0.55487  0.23599  0.32035  1.0000
  C   C1294     1.0  0.95093  0.39295  0.47166  1.0000
  H   H2188     1.0  0.98261  0.36968  0.53711  1.0000
  H   H2189     1.0  0.88323  0.32752  0.61764  1.0000
  C   C1295     1.0  0.92864  0.37374  0.46659  1.0000
  C   C1296     1.0  0.92414  0.38343  0.49804  1.0000
  H   H2190     1.0  0.83019  0.24855  0.49586  1.0000
  H   H2191     1.0  0.90445  0.42952  0.60552  1.0000
  C   C1297     1.0  0.91433  0.39027  0.45758  1.0000
  C   C1298     1.0  0.91344  0.40444  0.49653  1.0000
  Fe  Fe198     1.0  0.77209  0.25467  0.40634  1.0000
  C   C1299     1.0  0.81503  0.28873  0.58075  1.0000
  C   C1300     1.0  0.98898  0.39327  0.36059  1.0000
  H   H2192     1.0  0.93959  0.36847  0.45478  1.0000
  H   H2193     1.0  0.85217  0.27091  0.63607  1.0000
  H   H2194     1.0  0.92007  0.36214  0.47291  1.0000
  H   H2195     1.0  0.91304  0.37403  0.50213  1.0000
  H   H2196     1.0  0.93143  0.38080  0.51048  1.0000
  H   H2197     1.0  0.95398  0.33035  0.50207  1.0000
  H   H2198     1.0  0.93061  0.34424  0.50743  1.0000
  H   H2199     1.0  0.81537  0.25657  0.41539  1.0000
  N   N89       1.0  0.85612  0.32494  0.36023  1.0000
  H   H2200     1.0  0.81985  0.29773  0.51140  1.0000
  H   H2201     1.0  0.85043  0.29674  0.61512  1.0000
  H   H2202     1.0  0.98498  0.34707  0.61996  1.0000
  H   H2203     1.0  0.84152  0.27823  0.48000  1.0000
  H   H2204     1.0  0.90923  0.38523  0.44655  1.0000
  H   H2205     1.0  0.89792  0.40457  0.50280  1.0000
  H   H2206     1.0  0.91392  0.41285  0.48208  1.0000
  H   H2207     1.0  0.91893  0.41217  0.50526  1.0000
  H   H2208     1.0  0.89418  0.29843  0.60252  1.0000
  Fe  Fe199     1.0  0.90265  0.33843  0.43263  1.0000
  H   H2209     1.0  0.96695  0.36613  0.60081  1.0000
  C   C1301     1.0  0.95771  0.47014  0.30944  1.0000
  H   H2210     1.0  0.73817  0.25976  0.63024  1.0000
  H   H2211     1.0  0.84433  0.26207  0.42544  1.0000
  H   H2212     1.0  0.87567  0.32953  0.37704  1.0000
  C   C1302     1.0  0.85675  0.30816  0.61814  1.0000
  C   C1303     1.0  0.88695  0.42483  0.40244  1.0000
  H   H2213     1.0  0.83081  0.28666  0.53200  1.0000
  C   C1304     1.0  0.90117  0.41378  0.38780  1.0000
  C   C1305     1.0  0.82670  0.35543  0.53575  1.0000
  H   H2214     1.0  0.54959  0.24959  0.32509  1.0000
  H   H2215     1.0  0.83601  0.30767  0.33557  1.0000
  C   C1306     1.0  0.85253  0.29791  0.57258  1.0000
  H   H2216     1.0  0.85888  0.30231  0.53008  1.0000
  H   H2217     1.0  0.87056  0.42937  0.36952  1.0000
  C   C1307     1.0  0.69381  0.24646  0.33589  1.0000
  H   H2218     1.0  0.83031  0.34419  0.38828  1.0000
  H   H2219     1.0  0.98428  0.41267  0.63358  1.0000
  H   H2220     1.0  0.97975  0.43380  0.61672  1.0000
  S   S395      1.0  0.87632  0.30286  0.56768  1.0000
  H   H2221     1.0  0.86178  0.26995  0.56477  1.0000
  H   H2222     1.0  0.73818  0.27170  0.49115  1.0000
  H   H2223     1.0  0.90334  0.42269  0.37347  1.0000
  H   H2224     1.0  0.96566  0.32978  0.45688  1.0000
  H   H2225     1.0  0.97015  0.35833  0.38883  1.0000
  H   H2226     1.0  0.98739  0.42061  0.36733  1.0000
  S   S396      1.0  0.76821  0.24036  0.38305  1.0000
  H   H2227     1.0  0.91553  0.40955  0.39224  1.0000
  H   H2228     1.0  0.71924  0.25958  0.32668  1.0000
  H   H2229     1.0  0.87218  0.27401  0.60430  1.0000
  H   H2230     1.0  0.86866  0.43097  0.43844  1.0000
  H   H2231     1.0  0.86305  0.45685  0.40972  1.0000
  C   C1308     1.0  0.81682  0.23744  0.46946  1.0000
  H   H2232     1.0  0.98346  0.38083  0.58685  1.0000
  C   C1309     1.0  0.82918  0.31642  0.34675  1.0000
  S   S397      1.0  0.84920  0.44459  0.32242  1.0000
  H   H2233     1.0  0.84596  0.42394  0.43828  1.0000
  H   H2234     1.0  0.84087  0.45000  0.41042  1.0000
  H   H2235     1.0  0.81602  0.34447  0.37070  1.0000
  C   C1310     1.0  0.74362  0.24782  0.51362  1.0000
  C   C1311     1.0  0.83087  0.27568  0.57383  1.0000
  Fe  Fe200     1.0  0.75659  0.24877  0.55534  1.0000
  C   C1312     1.0  0.74166  0.25628  0.49491  1.0000
  H   H2236     1.0  0.72953  0.25097  0.35812  1.0000
  C   C1313     1.0  0.68548  0.24164  0.62921  1.0000
  C   C1314     1.0  0.79351  0.24123  0.49924  1.0000
  H   H2237     1.0  0.82712  0.42712  0.40888  1.0000
  C   C1315     1.0  0.71073  0.25160  0.33846  1.0000
  H   H2238     1.0  0.90127  0.39423  0.46807  1.0000
  C   C1316     1.0  0.88945  0.28907  0.61617  1.0000
  C   C1317     1.0  0.81965  0.25995  0.48893  1.0000
  H   H2239     1.0  0.92099  0.40293  0.45035  1.0000
  H   H2240     1.0  0.82174  0.31587  0.54510  1.0000
  H   H2241     1.0  0.94998  0.32899  0.57425  1.0000
  C   C1318     1.0  0.84957  0.28022  0.56992  1.0000
  C   C1319     1.0  0.85779  0.41223  0.40365  1.0000
  C   C1320     1.0  0.81953  0.29817  0.52641  1.0000
  H   H2242     1.0  0.89025  0.42841  0.32005  1.0000
  C   C1321     1.0  0.84677  0.34575  0.35907  1.0000
  H   H2243     1.0  0.80541  0.29467  0.53452  1.0000
  H   H2244     1.0  0.85431  0.30021  0.50800  1.0000
  H   H2245     1.0  0.83270  0.33574  0.47102  1.0000
  H   H2246     1.0  0.87731  0.44964  0.37454  1.0000
  H   H2247     1.0  0.86295  0.32781  0.32969  1.0000
  H   H2248     1.0  0.93941  0.34880  0.40721  1.0000
  H   H2249     1.0  0.59337  0.25219  0.62408  1.0000
  H   H2250     1.0  0.95548  0.46230  0.32379  1.0000
  C   C1322     1.0  0.60064  0.23985  0.63340  1.0000
  S   S398      1.0  0.68666  0.25362  0.31339  1.0000
  H   H2251     1.0  0.95446  0.40094  0.49815  1.0000
  H   H2252     1.0  0.94054  0.40034  0.62260  1.0000
  C   C1323     1.0  0.97458  0.40890  0.60790  1.0000
  H   H2253     1.0  0.93890  0.39367  0.59452  1.0000
  C   C1324     1.0  0.90153  0.41732  0.61640  1.0000
  H   H2254     1.0  0.98880  0.40890  0.59815  1.0000
  H   H2255     1.0  0.82872  0.26205  0.57166  1.0000
  C   C1325     1.0  0.87820  0.29892  0.37986  1.0000
  H   H2256     1.0  0.67630  0.25157  0.62024  1.0000
  H   H2257     1.0  0.89667  0.40041  0.38685  1.0000
  C   C1326     1.0  0.89190  0.38600  0.62551  1.0000
  C   C1327     1.0  0.78171  0.28352  0.48110  1.0000
  H   H2258     1.0  0.79172  0.29194  0.48373  1.0000
  S   S399      1.0  0.75010  0.25970  0.58292  1.0000
  H   H2259     1.0  0.89671  0.33094  0.32469  1.0000
  H   H2260     1.0  0.82366  0.36581  0.37241  1.0000
  C   C1328     1.0  0.86625  0.44012  0.37908  1.0000
  C   C1329     1.0  0.96911  0.35242  0.40376  1.0000
  H   H2261     1.0  0.74338  0.25151  0.46645  1.0000
  H   H2262     1.0  0.82304  0.28505  0.46588  1.0000
  C   C1330     1.0  0.88499  0.27106  0.61124  1.0000
  H   H2263     1.0  0.56165  0.25702  0.63399  1.0000
  H   H2264     1.0  0.81207  0.26854  0.50009  1.0000
  H   H2265     1.0  0.84645  0.44717  0.44225  1.0000
  H   H2266     1.0  0.77208  0.27896  0.49453  1.0000
  C   C1331     1.0  0.87032  0.32262  0.34220  1.0000
  H   H2267     1.0  0.96116  0.38831  0.45908  1.0000
  H   H2268     1.0  0.88676  0.30474  0.50311  1.0000
  H   H2269     1.0  0.89299  0.43779  0.40238  1.0000
  H   H2270     1.0  0.95945  0.36188  0.49857  1.0000
  S   S400      1.0  0.74247  0.25142  0.42353  1.0000
  H   H2271     1.0  0.88271  0.34903  0.33748  1.0000
  H   H2272     1.0  0.84337  0.35216  0.34471  1.0000
  C   C1332     1.0  0.80269  0.28642  0.41055  1.0000
  C   C1333     1.0  0.88096  0.31734  0.63124  1.0000
  H   H2273     1.0  0.96944  0.41071  0.47703  1.0000
  C   C1334     1.0  0.96946  0.38118  0.59695  1.0000
  H   H2274     1.0  0.81500  0.32485  0.48889  1.0000
  H   H2275     1.0  0.95284  0.38363  0.57476  1.0000
  C   C1335     1.0  0.83025  0.32707  0.48548  1.0000
  Fe  Fe201     1.0  0.88341  0.33192  0.56760  1.0000
  H   H2276     1.0  0.86516  0.40278  0.39325  1.0000
  H   H2277     1.0  0.84900  0.33142  0.54239  1.0000
  C   C1336     1.0  0.85587  0.44408  0.41268  1.0000
  C   C1337     1.0  0.83599  0.41423  0.40379  1.0000
  N   N90       1.0  0.86618  0.43035  0.39946  1.0000
  H   H2278     1.0  0.94236  0.40663  0.46585  1.0000
  H   H2279     1.0  0.87620  0.30723  0.34166  1.0000
  N   N91       1.0  0.83895  0.32635  0.51832  1.0000
  C   C1338     1.0  0.84349  0.33967  0.52941  1.0000
  C   C1339     1.0  0.85643  0.31077  0.51594  1.0000
  C   C1340     1.0  0.83666  0.31106  0.57928  1.0000
  C   C1341     1.0  0.83452  0.33791  0.49961  1.0000
  Fe  Fe202     1.0  0.78229  0.25818  0.57901  1.0000
  N   N92       1.0  0.87351  0.30031  0.62852  1.0000
  H   H2280     1.0  0.71045  0.23967  0.60682  1.0000
  C   C1342     1.0  0.96256  0.33582  0.57054  1.0000
  N   N93       1.0  0.93857  0.37796  0.48102  1.0000
  C   C1343     1.0  0.94301  0.34177  0.49583  1.0000
  C   C1344     1.0  0.97735  0.32973  0.58134  1.0000
  H   H2281     1.0  0.81458  0.31291  0.35297  1.0000
  S   S401      1.0  0.59089  0.24506  0.31557  1.0000
  H   H2282     1.0  0.80028  0.27244  0.45714  1.0000
  H   H2283     1.0  0.88356  0.25958  0.62386  1.0000
  H   H2284     1.0  0.96362  0.41798  0.59971  1.0000
  H   H2285     1.0  0.82679  0.33166  0.33995  1.0000
  C   C1345     1.0  0.95214  0.35986  0.48740  1.0000
  C   C1346     1.0  0.95040  0.33878  0.43333  1.0000
  C   C1347     1.0  0.95170  0.34696  0.41414  1.0000
  C   C1348     1.0  0.74461  0.24488  0.48092  1.0000
  H   H2286     1.0  0.97436  0.39235  0.36911  1.0000
  C   C1349     1.0  0.83995  0.32171  0.62800  1.0000
  N   N94       1.0  0.80561  0.25129  0.48223  1.0000
  C   C1350     1.0  0.90353  0.41716  0.63507  1.0000
  C   C1351     1.0  0.68294  0.23611  0.35124  1.0000
  H   H2287     1.0  0.78088  0.26028  0.46789  1.0000
  C   C1352     1.0  0.62253  0.23895  0.62595  1.0000
  H   H2288     1.0  0.78576  0.25127  0.50900  1.0000
  H   H2289     1.0  0.84391  0.46612  0.38035  1.0000
  H   H2290     1.0  0.94584  0.37514  0.62794  1.0000
  H   H2291     1.0  0.84378  0.33605  0.62664  1.0000
  C   C1353     1.0  0.95157  0.38829  0.62782  1.0000
  C   C1354     1.0  0.98752  0.37625  0.62246  1.0000
  H   H2292     1.0  0.62567  0.23728  0.61083  1.0000
  H   H2293     1.0  0.78208  0.23602  0.49476  1.0000
  H   H2294     1.0  0.95968  0.42425  0.63127  1.0000
  C   C1355     1.0  0.89992  0.31297  0.63921  1.0000
  S   S402      1.0  0.91126  0.43688  0.64007  1.0000
  Fe  Fe203     1.0  0.91140  0.44332  0.66917  1.0000
  S   S403      1.0  0.90383  0.42449  0.69719  1.0000
  S   S404      1.0  0.66792  0.23394  0.70979  1.0000
  H   H2295     1.0  0.73904  0.29731  0.65694  1.0000
  S   S405      1.0  0.91117  0.45821  0.71743  1.0000
  H   H2296     1.0  0.86032  0.45035  0.67899  1.0000
  Fe  Fe204     1.0  0.92923  0.43314  0.70480  1.0000
  S   S406      1.0  0.95143  0.41265  0.72025  1.0000
  Fe  Fe205     1.0  0.88660  0.45148  0.70700  1.0000
  S   S407      1.0  0.85452  0.45566  0.71981  1.0000
  H   H2297     1.0  0.52794  0.30884  0.84819  1.0000
  H   H2298     1.0  0.59104  0.27268  0.64570  1.0000
  S   S408      1.0  0.93808  0.44980  0.67611  1.0000
  H   H2299     1.0  0.61368  0.32523  0.94723  1.0000
  C   C1356     1.0  0.50352  0.33895  0.87271  1.0000
  Fe  Fe206     1.0  0.74277  0.45455  0.82407  1.0000
  S   S409      1.0  0.76485  0.43273  0.83828  1.0000
  S   S410      1.0  0.71403  0.45128  0.81811  1.0000
  Fe  Fe207     1.0  0.76187  0.45406  0.85732  1.0000
  S   S411      1.0  0.75787  0.44308  0.88884  1.0000
  Fe  Fe208     1.0  0.78697  0.44925  0.81887  1.0000
  S   S412      1.0  0.81776  0.43644  0.80728  1.0000
  H   H2300     1.0  0.60175  0.30587  0.95030  1.0000
  H   H2301     1.0  0.85411  0.41069  0.90040  1.0000
  Fe  Fe209     1.0  0.66281  0.36275  0.82355  1.0000
  S   S413      1.0  0.65852  0.33519  0.84374  1.0000
  S   S414      1.0  0.69278  0.36986  0.82038  1.0000
  Fe  Fe210     1.0  0.62151  0.37042  0.81626  1.0000
  S   S415      1.0  0.59578  0.38872  0.80471  1.0000
  Fe  Fe211     1.0  0.63029  0.35212  0.85536  1.0000
  S   S416      1.0  0.61476  0.35454  0.88509  1.0000
  H   H2302     1.0  0.60516  0.32500  0.69706  1.0000
  S   S417      1.0  0.63530  0.37989  0.83654  1.0000
  S   S418      1.0  0.64952  0.35594  0.80093  1.0000
  C   C1357     1.0  0.55399  0.30563  0.75387  1.0000
  C   C1358     1.0  0.65486  0.30457  0.75783  1.0000
  H   H2303     1.0  0.72501  0.38827  0.85788  1.0000
  S   S419      1.0  0.54241  0.33298  0.79677  1.0000
  C   C1359     1.0  0.86017  0.44352  0.66683  1.0000
  N   N95       1.0  0.69193  0.37874  0.88414  1.0000
  H   H2304     1.0  0.57965  0.31975  0.85596  1.0000
  Fe  Fe212     1.0  0.64324  0.32969  0.82205  1.0000
  C   C1360     1.0  0.89999  0.40118  0.64893  1.0000
  C   C1361     1.0  0.58074  0.37382  0.80169  1.0000
  C   C1362     1.0  0.56079  0.38029  0.80279  1.0000
  C   C1363     1.0  0.54868  0.36786  0.80154  1.0000
  C   C1364     1.0  0.55663  0.34910  0.79883  1.0000
  C   C1365     1.0  0.57656  0.34281  0.79750  1.0000
  C   C1366     1.0  0.58857  0.35506  0.79901  1.0000
  H   H2305     1.0  0.55468  0.39481  0.80486  1.0000
  H   H2306     1.0  0.53330  0.37285  0.80245  1.0000
  H   H2307     1.0  0.58281  0.32848  0.79508  1.0000
  H   H2308     1.0  0.60398  0.35006  0.79781  1.0000
  C   C1367     1.0  0.62805  0.35118  0.90339  1.0000
  C   C1368     1.0  0.62254  0.36364  0.91657  1.0000
  H   H2309     1.0  0.80565  0.45616  0.87313  1.0000
  H   H2310     1.0  0.61124  0.37597  0.91454  1.0000
  C   C1369     1.0  0.83225  0.45482  0.85257  1.0000
  C   C1370     1.0  0.70821  0.42853  0.81907  1.0000
  C   C1371     1.0  0.68901  0.42703  0.81917  1.0000
  C   C1372     1.0  0.68397  0.40917  0.81963  1.0000
  C   C1373     1.0  0.69817  0.39269  0.81979  1.0000
  C   C1374     1.0  0.71733  0.39421  0.81974  1.0000
  C   C1375     1.0  0.72233  0.41201  0.81948  1.0000
  H   H2311     1.0  0.67800  0.43975  0.81877  1.0000
  H   H2312     1.0  0.66918  0.40818  0.81961  1.0000
  H   H2313     1.0  0.72841  0.38153  0.81978  1.0000
  H   H2314     1.0  0.73717  0.41298  0.81927  1.0000
  C   C1376     1.0  0.76304  0.45739  0.90305  1.0000
  H   H2315     1.0  0.53909  0.28555  0.85781  1.0000
  H   H2316     1.0  0.50791  0.33745  0.85799  1.0000
  C   C1377     1.0  0.58890  0.26637  0.67616  1.0000
  C   C1378     1.0  0.76505  0.46228  0.93438  1.0000
  C   C1379     1.0  0.76121  0.45103  0.92268  1.0000
  N   N96       1.0  0.69596  0.45631  0.93183  1.0000
  H   H2317     1.0  0.86159  0.29786  0.65840  1.0000
  C   C1380     1.0  0.98621  0.40571  0.73155  1.0000
  H   H2318     1.0  0.75701  0.43729  0.92889  1.0000
  H   H2319     1.0  0.79537  0.43150  0.86457  1.0000
  H   H2320     1.0  0.57739  0.35821  0.87378  1.0000
  H   H2321     1.0  0.73243  0.40170  0.87200  1.0000
  H   H2322     1.0  0.51330  0.40065  0.87579  1.0000
  C   C1381     1.0  0.51185  0.34052  0.90280  1.0000
  H   H2323     1.0  0.89120  0.37350  0.65502  1.0000
  H   H2324     1.0  0.90202  0.40064  0.66323  1.0000
  C   C1382     1.0  0.84474  0.45015  0.74421  1.0000
  C   C1383     1.0  0.82468  0.45491  0.75009  1.0000
  C   C1384     1.0  0.81624  0.45089  0.76935  1.0000
  C   C1385     1.0  0.82781  0.44187  0.78292  1.0000
  C   C1386     1.0  0.84788  0.43713  0.77705  1.0000
  C   C1387     1.0  0.85635  0.44136  0.75779  1.0000
  H   H2325     1.0  0.67519  0.30386  0.66063  1.0000
  H   H2326     1.0  0.80079  0.45455  0.77365  1.0000
  H   H2327     1.0  0.74527  0.26685  0.64917  1.0000
  H   H2328     1.0  0.87181  0.43761  0.75344  1.0000
  C   C1388     1.0  0.97557  0.41608  0.71765  1.0000
  H   H2329     1.0  0.83425  0.40071  0.64568  1.0000
  H   H2330     1.0  0.88105  0.27922  0.65270  1.0000
  C   C1389     1.0  0.59447  0.29697  0.82969  1.0000
  S   S420      1.0  0.89287  0.47005  0.67837  1.0000
  S   S421      1.0  0.65436  0.24532  0.65799  1.0000
  H   H2331     1.0  0.81572  0.41709  0.65722  1.0000
  H   H2332     1.0  0.72626  0.45550  0.95204  1.0000
  C   C1390     1.0  0.84328  0.42006  0.68980  1.0000
  C   C1391     1.0  0.97432  0.46538  0.73241  1.0000
  C   C1392     1.0  0.60803  0.31791  0.71141  1.0000
  C   C1393     1.0  0.70782  0.38810  0.88675  1.0000
  H   H2333     1.0  0.70952  0.24284  0.68379  1.0000
  C   C1394     1.0  0.58872  0.31905  0.72556  1.0000
  H   H2334     1.0  0.59927  0.26034  0.76454  1.0000
  H   H2335     1.0  0.69030  0.45667  0.96202  1.0000
  H   H2336     1.0  0.87357  0.48315  0.74370  1.0000
  H   H2337     1.0  0.70184  0.39906  0.89601  1.0000
  H   H2338     1.0  0.80568  0.44813  0.91011  1.0000
  H   H2339     1.0  0.96521  0.38992  0.65235  1.0000
  H   H2340     1.0  0.94562  0.37695  0.65830  1.0000
  H   H2341     1.0  0.71558  0.27012  0.70859  1.0000
  S   S422      1.0  0.78558  0.46883  0.83924  1.0000
  H   H2342     1.0  0.59006  0.39514  0.96732  1.0000
  H   H2343     1.0  0.82072  0.45410  0.69998  1.0000
  H   H2344     1.0  0.56501  0.26955  0.83013  1.0000
  H   H2345     1.0  0.74117  0.27899  0.67776  1.0000
  H   H2346     1.0  0.65129  0.44075  0.94683  1.0000
  H   H2347     1.0  0.60241  0.28175  0.87451  1.0000
  H   H2348     1.0  0.85357  0.43464  0.88675  1.0000
  C   C1395     1.0  0.54812  0.24315  0.71719  1.0000
  H   H2349     1.0  0.54381  0.25298  0.65474  1.0000
  C   C1396     1.0  0.69584  0.46558  0.94847  1.0000
  H   H2350     1.0  0.71578  0.24494  0.71475  1.0000
  C   C1397     1.0  0.85303  0.27526  0.64936  1.0000
  H   H2351     1.0  0.59569  0.25616  0.68738  1.0000
  C   C1398     1.0  0.58184  0.40682  0.95905  1.0000
  S   S423      1.0  0.61101  0.42735  0.95632  1.0000
  H   H2352     1.0  0.79613  0.39804  0.88330  1.0000
  C   C1399     1.0  0.66485  0.44365  0.94974  1.0000
  C   C1400     1.0  0.57814  0.43909  0.94120  1.0000
  H   H2353     1.0  0.79709  0.39951  0.85860  1.0000
  H   H2354     1.0  0.82817  0.43213  0.91348  1.0000
  C   C1401     1.0  0.67349  0.28896  0.66103  1.0000
  C   C1402     1.0  0.57044  0.31400  0.75788  1.0000
  C   C1403     1.0  0.54429  0.40055  0.86931  1.0000
  C   C1404     1.0  0.67523  0.45530  0.93175  1.0000
  C   C1405     1.0  0.58656  0.33234  0.93730  1.0000
  H   H2355     1.0  0.98353  0.45119  0.73089  1.0000
  Fe  Fe213     1.0  0.51980  0.39088  0.95280  1.0000
  C   C1406     1.0  0.68107  0.37190  0.90358  1.0000
  H   H2356     1.0  0.66054  0.45181  0.96162  1.0000
  H   H2357     1.0  0.61112  0.28471  0.73868  1.0000
  H   H2358     1.0  0.87406  0.43334  0.66536  1.0000
  S   S424      1.0  0.61450  0.34389  0.83604  1.0000
  H   H2359     1.0  0.58210  0.33445  0.72491  1.0000
  C   C1407     1.0  0.64777  0.27290  0.77136  1.0000
  C   C1408     1.0  0.51743  0.33852  0.88373  1.0000
  C   C1409     1.0  0.56392  0.40487  0.95556  1.0000
  H   H2360     1.0  0.50807  0.48122  0.92782  1.0000
  C   C1410     1.0  0.70882  0.43690  0.93392  1.0000
  S   S425      1.0  0.52965  0.33915  0.91648  1.0000
  H   H2361     1.0  0.97273  0.46642  0.74760  1.0000
  H   H2362     1.0  0.58798  0.34474  0.75872  1.0000
  C   C1411     1.0  0.70511  0.42185  0.92362  1.0000
  H   H2363     1.0  0.71152  0.28314  0.64073  1.0000
  H   H2364     1.0  0.72423  0.43843  0.92921  1.0000
  H   H2365     1.0  0.61505  0.30296  0.71046  1.0000
  H   H2366     1.0  0.53255  0.33650  0.87756  1.0000
  H   H2367     1.0  0.55840  0.39172  0.96130  1.0000
  H   H2368     1.0  0.51644  0.46580  0.94787  1.0000
  C   C1412     1.0  0.50319  0.47379  0.94241  1.0000
  S   S426      1.0  0.53074  0.41838  0.94006  1.0000
  H   H2369     1.0  0.84012  0.39967  0.88000  1.0000
  C   C1413     1.0  0.71098  0.29150  0.67352  1.0000
  H   H2370     1.0  0.52353  0.23989  0.70652  1.0000
  H   H2371     1.0  0.67372  0.44923  0.91965  1.0000
  C   C1414     1.0  0.70370  0.46926  0.91411  1.0000
  C   C1415     1.0  0.57828  0.27320  0.85405  1.0000
  H   H2372     1.0  0.65863  0.31521  0.74556  1.0000
  C   C1416     1.0  0.67819  0.23587  0.64845  1.0000
  H   H2373     1.0  0.71925  0.41349  0.91809  1.0000
  H   H2374     1.0  0.69763  0.42767  0.91144  1.0000
  H   H2375     1.0  0.69720  0.41125  0.93383  1.0000
  C   C1417     1.0  0.70080  0.36267  0.87310  1.0000
  C   C1418     1.0  0.69367  0.35903  0.91761  1.0000
  H   H2376     1.0  0.71863  0.37742  0.89407  1.0000
  H   H2377     1.0  0.71559  0.35613  0.87599  1.0000
  H   H2378     1.0  0.86008  0.41304  0.65279  1.0000
  H   H2379     1.0  0.71122  0.41149  0.86209  1.0000
  H   H2380     1.0  0.70092  0.36773  0.92374  1.0000
  H   H2381     1.0  0.68438  0.35143  0.92966  1.0000
  H   H2382     1.0  0.70466  0.34807  0.91100  1.0000
  H   H2383     1.0  0.69069  0.33669  0.89070  1.0000
  H   H2384     1.0  0.82279  0.45519  0.65705  1.0000
  H   H2385     1.0  0.58457  0.38607  0.88980  1.0000
  H   H2386     1.0  0.56431  0.38091  0.92112  1.0000
  H   H2387     1.0  0.56682  0.36152  0.90885  1.0000
  H   H2388     1.0  0.70295  0.36832  0.85760  1.0000
  C   C1419     1.0  0.64253  0.33518  0.90621  1.0000
  H   H2389     1.0  0.62667  0.36952  0.94291  1.0000
  H   H2390     1.0  0.80670  0.47064  0.68429  1.0000
  H   H2391     1.0  0.58103  0.27740  0.77512  1.0000
  N   N97       1.0  0.59393  0.24176  0.65393  1.0000
  N   N98       1.0  0.70644  0.27289  0.67115  1.0000
  H   H2392     1.0  0.52604  0.37981  0.88751  1.0000
  H   H2393     1.0  0.60638  0.27829  0.77343  1.0000
  H   H2394     1.0  0.54063  0.30967  0.76406  1.0000
  C   C1420     1.0  0.65265  0.28651  0.75536  1.0000
  H   H2395     1.0  0.61838  0.32539  0.71492  1.0000
  H   H2396     1.0  0.94109  0.40239  0.65269  1.0000
  H   H2397     1.0  0.67298  0.38430  0.91039  1.0000
  S   S427      1.0  0.63061  0.23390  0.74473  1.0000
  C   C1421     1.0  0.82102  0.46135  0.68503  1.0000
  H   H2398     1.0  0.55219  0.44887  0.92925  1.0000
  C   C1422     1.0  0.56039  0.43711  0.93759  1.0000
  C   C1423     1.0  0.56038  0.37683  0.90885  1.0000
  H   H2399     1.0  0.79420  0.42468  0.89829  1.0000
  Fe  Fe214     1.0  0.50992  0.34048  0.80357  1.0000
  H   H2400     1.0  0.52339  0.40208  0.89585  1.0000
  H   H2401     1.0  0.56971  0.27140  0.86869  1.0000
  C   C1424     1.0  0.60463  0.31647  0.75314  1.0000
  H   H2402     1.0  0.55880  0.31996  0.83593  1.0000
  C   C1425     1.0  0.70416  0.46330  0.89507  1.0000
  H   H2403     1.0  0.59323  0.26592  0.85576  1.0000
  C   C1426     1.0  0.55320  0.42006  0.94479  1.0000
  H   H2404     1.0  0.81559  0.46172  0.73969  1.0000
  H   H2405     1.0  0.55713  0.30024  0.82673  1.0000
  C   C1427     1.0  0.59462  0.28899  0.81181  1.0000
  H   H2406     1.0  0.55924  0.25403  0.85207  1.0000
  S   S428      1.0  0.65567  0.28178  0.73205  1.0000
  S   S429      1.0  0.65373  0.33704  0.95753  1.0000
  C   C1428     1.0  0.60225  0.33839  0.75141  1.0000
  H   H2407     1.0  0.85993  0.39269  0.68174  1.0000
  H   H2408     1.0  0.55070  0.31162  0.73948  1.0000
  H   H2409     1.0  0.66138  0.31832  0.92523  1.0000
  H   H2410     1.0  0.85874  0.39491  0.70575  1.0000
  H   H2411     1.0  0.97961  0.39596  0.74323  1.0000
  C   C1429     1.0  0.57086  0.26131  0.84276  1.0000
  H   H2412     1.0  0.66977  0.36394  0.90287  1.0000
  H   H2413     1.0  0.81207  0.43906  0.67591  1.0000
  Fe  Fe215     1.0  0.64738  0.25558  0.72565  1.0000
  C   C1430     1.0  0.71961  0.39787  0.86848  1.0000
  C   C1431     1.0  0.68984  0.34572  0.87657  1.0000
  C   C1432     1.0  0.82073  0.44811  0.87234  1.0000
  H   H2414     1.0  0.57299  0.26756  0.67997  1.0000
  Fe  Fe216     1.0  0.51806  0.35327  0.94211  1.0000
  H   H2415     1.0  0.67450  0.35015  0.87510  1.0000
  H   H2416     1.0  0.84386  0.42818  0.70088  1.0000
  C   C1433     1.0  0.98444  0.42850  0.70243  1.0000
  H   H2417     1.0  0.69669  0.33642  0.86587  1.0000
  H   H2418     1.0  0.60447  0.31038  0.76840  1.0000
  C   C1434     1.0  0.67847  0.39396  0.87345  1.0000
  H   H2419     1.0  0.68613  0.39983  0.85927  1.0000
  H   H2420     1.0  0.81736  0.42374  0.84975  1.0000
  C   C1435     1.0  0.58893  0.42400  0.95196  1.0000
  Fe  Fe217     1.0  0.62863  0.40245  0.97253  1.0000
  H   H2421     1.0  0.64611  0.25891  0.76968  1.0000
  H   H2422     1.0  0.67302  0.40631  0.88110  1.0000
  C   C1436     1.0  0.80958  0.42179  0.86466  1.0000
  C   C1437     1.0  0.73246  0.29255  0.67190  1.0000
  H   H2423     1.0  0.59202  0.32709  0.92363  1.0000
  C   C1438     1.0  0.56862  0.38959  0.89058  1.0000
  H   H2424     1.0  0.59246  0.38373  0.85629  1.0000
  C   C1439     1.0  0.66083  0.38775  0.86940  1.0000
  H   H2425     1.0  0.65192  0.38092  0.88226  1.0000
  N   N99       1.0  0.82062  0.42685  0.87776  1.0000
  H   H2426     1.0  0.61279  0.26143  0.65388  1.0000
  C   C1440     1.0  0.86796  0.28837  0.64770  1.0000
  C   C1441     1.0  0.80532  0.40116  0.86921  1.0000
  N   N100      1.0  0.58995  0.30941  0.74571  1.0000
  H   H2427     1.0  0.65134  0.40064  0.86312  1.0000
  H   H2428     1.0  0.82956  0.41428  0.69460  1.0000
  H   H2429     1.0  0.55277  0.36076  0.88370  1.0000
  H   H2430     1.0  0.56441  0.40465  0.89308  1.0000
  C   C1442     1.0  0.63123  0.35996  0.93269  1.0000
  H   H2431     1.0  0.64194  0.26652  0.80193  1.0000
  H   H2432     1.0  0.66536  0.37834  0.85859  1.0000
  H   H2433     1.0  0.94851  0.45236  0.74050  1.0000
  H   H2434     1.0  0.84735  0.41607  0.85993  1.0000
  H   H2435     1.0  0.58354  0.45238  0.93568  1.0000
  C   C1443     1.0  0.56308  0.36712  0.87180  1.0000
  H   H2436     1.0  0.71891  0.47039  0.91398  1.0000
  H   H2437     1.0  0.59798  0.27314  0.81428  1.0000
  H   H2438     1.0  0.57900  0.31266  0.71970  1.0000
  C   C1444     1.0  0.71554  0.46894  0.95099  1.0000
  H   H2439     1.0  0.73042  0.25253  0.68181  1.0000
  C   C1445     1.0  0.59551  0.27563  0.76611  1.0000
  C   C1446     1.0  0.84067  0.41518  0.87520  1.0000
  H   H2440     1.0  0.70946  0.47452  0.88343  1.0000
  H   H2441     1.0  0.87005  0.41562  0.87804  1.0000
  H   H2442     1.0  0.54448  0.37852  0.91135  1.0000
  H   H2443     1.0  0.68075  0.26027  0.67563  1.0000
  H   H2444     1.0  0.76360  0.45731  0.94952  1.0000
  H   H2445     1.0  0.82677  0.45139  0.84090  1.0000
  H   H2446     1.0  0.97648  0.43631  0.69140  1.0000
  H   H2447     1.0  0.87427  0.40755  0.68746  1.0000
  H   H2448     1.0  0.84860  0.47038  0.64871  1.0000
  S   S430      1.0  0.64400  0.30023  0.81544  1.0000
  H   H2449     1.0  0.70557  0.30343  0.66262  1.0000
  H   H2450     1.0  0.69368  0.26055  0.71148  1.0000
  C   C1447     1.0  0.85515  0.41936  0.88590  1.0000
  H   H2451     1.0  0.83604  0.47968  0.77141  1.0000
  H   H2452     1.0  0.67841  0.27830  0.68940  1.0000
  H   H2453     1.0  0.89961  0.30176  0.65210  1.0000
  H   H2454     1.0  0.60844  0.28987  0.83415  1.0000
  C   C1448     1.0  0.86008  0.40291  0.69096  1.0000
  H   H2455     1.0  0.56533  0.32974  0.75626  1.0000
  C   C1449     1.0  0.56709  0.23534  0.71984  1.0000
  S   S431      1.0  0.62780  0.26315  0.70416  1.0000
  H   H2456     1.0  0.56076  0.30307  0.96215  1.0000
  H   H2457     1.0  0.58977  0.41454  0.86811  1.0000
  H   H2458     1.0  0.55727  0.34807  0.85524  1.0000
  S   S432      1.0  0.53862  0.36216  0.95627  1.0000
  N   N101      1.0  0.56325  0.38777  0.87227  1.0000
  H   H2459     1.0  0.61240  0.30129  0.85816  1.0000
  S   S433      1.0  0.50061  0.38255  0.93685  1.0000
  C   C1450     1.0  0.89404  0.38574  0.64420  1.0000
  H   H2460     1.0  0.57118  0.42577  0.85395  1.0000
  H   H2461     1.0  0.54465  0.41545  0.87059  1.0000
  H   H2462     1.0  0.57129  0.30929  0.77317  1.0000
  C   C1451     1.0  0.86148  0.45891  0.64868  1.0000
  C   C1452     1.0  0.65078  0.33116  0.92266  1.0000
  H   H2463     1.0  0.54134  0.25686  0.72120  1.0000
  C   C1453     1.0  0.58065  0.30406  0.86120  1.0000
  C   C1454     1.0  0.55830  0.36335  0.85352  1.0000
  H   H2464     1.0  0.64666  0.32539  0.89620  1.0000
  C   C1455     1.0  0.57871  0.39427  0.85613  1.0000
  H   H2465     1.0  0.67368  0.42965  0.95440  1.0000
  C   C1456     1.0  0.55911  0.30419  0.83983  1.0000
  H   H2466     1.0  0.67742  0.28542  0.64655  1.0000
  H   H2467     1.0  0.54179  0.40212  0.85454  1.0000
  H   H2468     1.0  0.59914  0.30478  0.88084  1.0000
  C   C1457     1.0  0.52596  0.39535  0.88307  1.0000
  C   C1458     1.0  0.57287  0.24004  0.65945  1.0000
  H   H2469     1.0  0.56994  0.36604  0.84123  1.0000
  C   C1459     1.0  0.68472  0.27438  0.67523  1.0000
  H   H2470     1.0  0.70487  0.26019  0.64746  1.0000
  H   H2471     1.0  0.81385  0.40641  0.90350  1.0000
  C   C1460     1.0  0.82445  0.44692  0.67142  1.0000
  H   H2472     1.0  0.71461  0.44992  0.89333  1.0000
  H   H2473     1.0  0.54002  0.30602  0.86767  1.0000
  H   H2474     1.0  0.70755  0.43020  0.94911  1.0000
  C   C1461     1.0  0.64747  0.29536  0.79212  1.0000
  C   C1462     1.0  0.54072  0.30080  0.85441  1.0000
  C   C1463     1.0  0.81007  0.42198  0.89787  1.0000
  S   S434      1.0  0.65695  0.38941  0.95693  1.0000
  C   C1464     1.0  0.81286  0.43291  0.91271  1.0000
  H   H2475     1.0  0.55696  0.28978  0.75589  1.0000
  C   C1465     1.0  0.64539  0.27726  0.78964  1.0000
  C   C1466     1.0  0.59982  0.29732  0.86889  1.0000
  H   H2476     1.0  0.54422  0.37171  0.85036  1.0000
  C   C1467     1.0  0.76925  0.47479  0.89505  1.0000
  C   C1468     1.0  0.58372  0.41408  0.85555  1.0000
  H   H2477     1.0  0.57456  0.39501  0.84219  1.0000
  H   H2478     1.0  0.85694  0.43011  0.78743  1.0000
  H   H2479     1.0  0.60462  0.34579  0.73648  1.0000
  H   H2480     1.0  0.87014  0.32571  0.64106  1.0000
  C   C1469     1.0  0.59919  0.32104  0.95195  1.0000
  H   H2481     1.0  0.80569  0.42656  0.92694  1.0000
  H   H2482     1.0  0.65375  0.32304  0.77779  1.0000
  H   H2483     1.0  0.61949  0.31136  0.74595  1.0000
  H   H2484     1.0  0.56900  0.30245  0.87379  1.0000
  C   C1470     1.0  0.84545  0.42191  0.65510  1.0000
  H   H2485     1.0  0.73362  0.30304  0.68047  1.0000
  H   H2486     1.0  0.58712  0.28274  0.73852  1.0000
  H   H2487     1.0  0.56803  0.23935  0.67497  1.0000
  C   C1471     1.0  0.59602  0.28813  0.74623  1.0000
  C   C1472     1.0  0.65206  0.30907  0.77610  1.0000
  C   C1473     1.0  0.64494  0.34340  0.93605  1.0000
  H   H2488     1.0  0.59506  0.41702  0.84294  1.0000
  H   H2489     1.0  0.81868  0.39028  0.86806  1.0000
  N   N102      1.0  0.57800  0.29416  0.84597  1.0000
  H   H2490     1.0  0.82677  0.45356  0.88242  1.0000
  H   H2491     1.0  0.83842  0.28197  0.65579  1.0000
  S   S435      1.0  0.76517  0.46917  0.80287  1.0000
  H   H2492     1.0  0.61329  0.34157  0.75829  1.0000
  H   H2493     1.0  0.59534  0.31249  0.82518  1.0000
  C   C1474     1.0  0.71445  0.25605  0.68499  1.0000
  H   H2494     1.0  0.58138  0.29427  0.80558  1.0000
  H   H2495     1.0  0.83081  0.47067  0.85013  1.0000
  H   H2496     1.0  0.83781  0.47777  0.80436  1.0000
  H   H2497     1.0  0.84787  0.44885  0.85155  1.0000
  H   H2498     1.0  0.50562  0.43540  0.97046  1.0000
  H   H2499     1.0  0.49945  0.44900  0.93355  1.0000
  H   H2500     1.0  0.59226  0.28060  0.67623  1.0000
  S   S436      1.0  0.49636  0.31659  0.82267  1.0000
  Fe  Fe218     1.0  0.61232  0.24013  0.72215  1.0000
  N   N103      1.0  0.59147  0.32367  0.97222  1.0000
  H   H2501     1.0  0.60261  0.35030  0.96628  1.0000
  C   C1475     1.0  0.95430  0.46361  0.72921  1.0000
  H   H2502     1.0  0.70294  0.29588  0.68713  1.0000
  N   N104      1.0  0.84334  0.43308  0.67078  1.0000
  H   H2503     1.0  0.85681  0.26181  0.65938  1.0000
  S   S437      1.0  0.73851  0.47486  0.84446  1.0000
  H   H2504     1.0  0.65784  0.28839  0.66568  1.0000
  H   H2505     1.0  0.58247  0.28875  0.96993  1.0000
  C   C1476     1.0  0.70941  0.25832  0.70603  1.0000
  H   H2506     1.0  0.66648  0.46999  0.92978  1.0000
  H   H2507     1.0  0.83187  0.47098  0.68115  1.0000
  Fe  Fe219     1.0  0.64897  0.36162  0.97320  1.0000
  N   N105      1.0  0.98392  0.48135  0.71978  1.0000
  H   H2508     1.0  0.60655  0.29390  0.80079  1.0000
  S   S438      1.0  0.58002  0.24848  0.72861  1.0000
  C   C1477     1.0  0.55869  0.25613  0.64957  1.0000
  H   H2509     1.0  0.83045  0.39795  0.67084  1.0000
  H   H2510     1.0  0.94362  0.47694  0.72973  1.0000
  H   H2511     1.0  0.95533  0.45875  0.71562  1.0000
  H   H2512     1.0  0.68973  0.46214  0.89287  1.0000
  H   H2513     1.0  0.58758  0.34776  0.93428  1.0000
  Fe  Fe220     1.0  0.91875  0.47460  0.68811  1.0000
  H   H2514     1.0  0.57122  0.33064  0.94177  1.0000
  H   H2515     1.0  0.98780  0.47017  0.69384  1.0000
  Fe  Fe221     1.0  0.64688  0.23987  0.68992  1.0000
  C   C1478     1.0  0.59709  0.26091  0.65642  1.0000
  C   C1479     1.0  0.83048  0.40875  0.65767  1.0000
  C   C1480     1.0  0.71357  0.26947  0.65100  1.0000
  H   H2516     1.0  0.57809  0.35324  0.96390  1.0000
  C   C1481     1.0  0.77134  0.47964  0.92639  1.0000
  C   C1482     1.0  0.95121  0.38942  0.64879  1.0000
  H   H2517     1.0  0.97229  0.35425  0.64212  1.0000
  H   H2518     1.0  0.71360  0.47419  0.96455  1.0000
  H   H2519     1.0  0.90213  0.32622  0.64315  1.0000
  C   C1483     1.0  0.73473  0.25962  0.64578  1.0000
  H   H2520     1.0  0.58270  0.24986  0.83799  1.0000
  H   H2521     1.0  0.61841  0.28772  0.97117  1.0000
  H   H2522     1.0  0.55862  0.27028  0.65303  1.0000
  H   H2523     1.0  0.73689  0.24429  0.65257  1.0000
  H   H2524     1.0  0.83539  0.31585  0.64315  1.0000
  H   H2525     1.0  0.87402  0.46594  0.64769  1.0000
  S   S439      1.0  0.49900  0.34352  0.96953  1.0000
  H   H2526     1.0  0.77075  0.47980  0.87992  1.0000
  C   C1484     1.0  0.58888  0.34480  0.97263  1.0000
  H   H2527     1.0  0.68586  0.47964  0.94781  1.0000
  H   H2528     1.0  0.84431  0.43171  0.64134  1.0000
  H   H2529     1.0  0.72135  0.48012  0.93969  1.0000
  C   C1485     1.0  0.53801  0.23352  0.70894  1.0000
  C   C1486     1.0  0.76902  0.56144  0.23146  1.0000
  S   S440      1.0  0.72761  0.53035  0.19339  1.0000
  H   H2530     1.0  0.86931  0.50951  0.20904  1.0000
  H   H2531     1.0  0.72176  0.51145  0.25174  1.0000
  H   H2532     1.0  0.75742  0.55523  0.04235  1.0000
  C   C1487     1.0  0.75970  0.58055  0.02109  1.0000
  H   H2533     1.0  0.99222  0.49007  0.27658  1.0000
  S   S441      1.0  0.88624  0.64801  0.27275  1.0000
  H   H2534     1.0  0.93750  0.71405  0.29380  1.0000
  H   H2535     1.0  0.79827  0.53599  0.25356  1.0000
  H   H2536     1.0  0.83859  0.52352  0.99782  1.0000
  H   H2537     1.0  0.96274  0.60550  0.24386  1.0000
  H   H2538     1.0  0.95035  0.59285  0.26422  1.0000
  S   S442      1.0  0.82827  0.66111  0.28092  1.0000
  Fe  Fe222     1.0  0.89696  0.66903  0.28473  1.0000
  S   S443      1.0  0.91735  0.68827  0.26707  1.0000
  H   H2539     1.0  0.88477  0.60064  0.25475  1.0000
  H   H2540     1.0  0.91821  0.50102  0.18553  1.0000
  Fe  Fe223     1.0  0.75494  0.62880  0.19379  1.0000
  S   S444      1.0  0.78632  0.61900  0.18351  1.0000
  S   S445      1.0  0.73476  0.60970  0.21204  1.0000
  Fe  Fe224     1.0  0.75547  0.66985  0.17398  1.0000
  S   S446      1.0  0.78710  0.66336  0.16202  1.0000
  S   S447      1.0  0.73855  0.69864  0.16285  1.0000
  Fe  Fe225     1.0  0.78044  0.63687  0.15568  1.0000
  S   S448      1.0  0.79328  0.62610  0.12823  1.0000
  Fe  Fe226     1.0  0.79046  0.64625  0.19095  1.0000
  S   S449      1.0  0.81811  0.64552  0.20167  1.0000
  S   S450      1.0  0.74865  0.64442  0.16542  1.0000
  S   S451      1.0  0.75915  0.65490  0.20354  1.0000
  C   C1488     1.0  0.71887  0.71088  0.17704  1.0000
  C   C1489     1.0  0.76462  0.50869  0.05547  1.0000
  C   C1490     1.0  0.96814  0.66899  0.28693  1.0000
  C   C1491     1.0  0.82560  0.65784  0.25842  1.0000
  C   C1492     1.0  0.84156  0.65407  0.24425  1.0000
  C   C1493     1.0  0.83894  0.65073  0.22682  1.0000
  C   C1494     1.0  0.82037  0.65108  0.22338  1.0000
  C   C1495     1.0  0.80436  0.65507  0.23745  1.0000
  C   C1496     1.0  0.80700  0.65844  0.25489  1.0000
  H   H2541     1.0  0.85593  0.65373  0.24671  1.0000
  H   H2542     1.0  0.85139  0.64774  0.21597  1.0000
  H   H2543     1.0  0.79001  0.65539  0.23496  1.0000
  H   H2544     1.0  0.79457  0.66139  0.26577  1.0000
  H   H2545     1.0  0.80114  0.64911  0.05996  1.0000
  S   S452      1.0  0.76762  0.67754  0.05381  1.0000
  C   C1497     1.0  0.90550  0.51871  0.22083  1.0000
  H   H2546     1.0  0.74041  0.71418  0.12253  1.0000
  C   C1498     1.0  0.95542  0.68917  0.25359  1.0000
  C   C1499     1.0  0.98169  0.62336  0.26430  1.0000
  C   C1500     1.0  0.94831  0.67295  0.28597  1.0000
  S   S453      1.0  0.74169  0.63854  0.05074  1.0000
  S   S454      1.0  0.73372  0.50245  0.02053  1.0000
  H   H2547     1.0  0.64145  0.71429  0.04259  1.0000
  H   H2548     1.0  0.70705  0.71154  0.00551  1.0000
  C   C1501     1.0  0.79146  0.64953  0.07342  1.0000
  C   C1502     1.0  0.79722  0.63849  0.09007  1.0000
  C   C1503     1.0  0.78515  0.63959  0.10765  1.0000
  C   C1504     1.0  0.76690  0.65121  0.10845  1.0000
  C   C1505     1.0  0.76106  0.66218  0.09172  1.0000
  H   H2549     1.0  0.81130  0.62943  0.08938  1.0000
  H   H2550     1.0  0.75738  0.65188  0.12194  1.0000
  H   H2551     1.0  0.74706  0.67135  0.09233  1.0000
  C   C1506     1.0  0.98939  0.62862  0.24281  1.0000
  H   H2552     1.0  0.84505  0.60138  0.29585  1.0000
  H   H2553     1.0  0.82822  0.54562  0.27634  1.0000
  H   H2554     1.0  0.80156  0.60744  0.29494  1.0000
  C   C1507     1.0  0.82714  0.57223  0.02687  1.0000
  C   C1508     1.0  0.94378  0.64168  0.24921  1.0000
  H   H2555     1.0  0.65852  0.71464  0.12179  1.0000
  Fe  Fe227     1.0  0.73797  0.52284  0.99307  1.0000
  C   C1509     1.0  0.72717  0.48806  0.10604  1.0000
  C   C1510     1.0  0.67399  0.70801  0.99556  1.0000
  C   C1511     1.0  0.73014  0.55299  0.19677  1.0000
  C   C1512     1.0  0.71668  0.56121  0.21088  1.0000
  C   C1513     1.0  0.71826  0.57865  0.21508  1.0000
  C   C1514     1.0  0.73317  0.58836  0.20506  1.0000
  C   C1515     1.0  0.74661  0.58044  0.19061  1.0000
  C   C1516     1.0  0.74517  0.56263  0.18655  1.0000
  H   H2556     1.0  0.70506  0.55386  0.21882  1.0000
  H   H2557     1.0  0.70789  0.58460  0.22627  1.0000
  H   H2558     1.0  0.75827  0.58781  0.18288  1.0000
  H   H2559     1.0  0.75567  0.55634  0.17568  1.0000
  H   H2560     1.0  0.79027  0.68005  0.09661  1.0000
  H   H2561     1.0  0.94242  0.49213  0.20289  1.0000
  C   C1517     1.0  0.74603  0.70365  0.11284  1.0000
  H   H2562     1.0  0.61663  0.71824  0.09499  1.0000
  C   C1518     1.0  0.69541  0.60667  0.99659  1.0000
  Fe  Fe228     1.0  0.74867  0.51201  0.17417  1.0000
  H   H2563     1.0  0.76094  0.60341  0.99698  1.0000
  C   C1519     1.0  0.68019  0.67846  0.04633  1.0000
  C   C1520     1.0  0.74646  0.58189  0.99300  1.0000
  H   H2564     1.0  0.56151  0.68332  0.06085  1.0000
  C   C1521     1.0  0.79039  0.68770  0.10816  1.0000
  C   C1522     1.0  0.89353  0.58029  0.30249  1.0000
  Fe  Fe229     1.0  0.75766  0.62340  0.02700  1.0000
  S   S455      1.0  0.68832  0.65492  0.04227  1.0000
  C   C1523     1.0  0.88765  0.54927  0.29974  1.0000
  H   H2565     1.0  0.90974  0.52164  0.23351  1.0000
  C   C1524     1.0  0.78732  0.49572  0.08387  1.0000
  H   H2566     1.0  0.81769  0.66819  0.10928  1.0000
  H   H2567     1.0  0.77575  0.56339  0.24301  1.0000
  H   H2568     1.0  0.81081  0.68209  0.12797  1.0000
  Fe  Fe230     1.0  0.75756  0.66218  0.03516  1.0000
  C   C1525     1.0  0.74098  0.56409  0.00055  1.0000
  C   C1526     1.0  0.69311  0.68880  0.04965  1.0000
  H   H2569     1.0  0.79466  0.55700  0.04468  1.0000
  H   H2570     1.0  0.79858  0.54008  0.07601  1.0000
  C   C1527     1.0  0.65583  0.70725  0.04468  1.0000
  Fe  Fe231     1.0  0.72023  0.65176  0.03173  1.0000
  H   H2571     1.0  0.74118  0.54046  0.02391  1.0000
  H   H2572     1.0  0.78127  0.68033  0.12059  1.0000
  H   H2573     1.0  0.66511  0.68703  0.10493  1.0000
  H   H2574     1.0  0.86401  0.61476  0.24594  1.0000
  H   H2575     1.0  0.97625  0.53015  0.27852  1.0000
  C   C1528     1.0  0.98163  0.67433  0.27083  1.0000
  S   S456      1.0  0.73481  0.67674  0.01766  1.0000
  C   C1529     1.0  0.71725  0.70801  0.19673  1.0000
  N   N106      1.0  0.63117  0.72830  0.11308  1.0000
  H   H2576     1.0  0.83357  0.51339  0.04090  1.0000
  H   H2577     1.0  0.70750  0.68171  0.05174  1.0000
  H   H2578     1.0  0.64209  0.62746  0.03032  1.0000
  H   H2579     1.0  0.78113  0.48642  0.21916  1.0000
  C   C1530     1.0  0.84083  0.51355  0.01115  1.0000
  H   H2580     1.0  0.81646  0.52136  0.06772  1.0000
  H   H2581     1.0  0.79247  0.50540  0.23598  1.0000
  H   H2582     1.0  0.52687  0.68447  0.06066  1.0000
  C   C1531     1.0  0.94192  0.68306  0.26925  1.0000
  H   H2583     1.0  0.72445  0.58128  0.10601  1.0000
  Fe  Fe232     1.0  0.85685  0.49854  0.26747  1.0000
  H   H2584     1.0  0.95468  0.65123  0.24445  1.0000
  Fe  Fe233     1.0  0.75093  0.65818  0.99643  1.0000
  C   C1532     1.0  0.96364  0.59938  0.25885  1.0000
  H   H2585     1.0  0.80137  0.60686  0.24457  1.0000
  H   H2586     1.0  0.98555  0.68840  0.24169  1.0000
  H   H2587     1.0  0.65117  0.67954  0.04224  1.0000
  C   C1533     1.0  0.82573  0.51615  0.21159  1.0000
  S   S457      1.0  0.73440  0.63435  0.00930  1.0000
  C   C1534     1.0  0.75620  0.58990  0.00311  1.0000
  H   H2588     1.0  0.80038  0.56827  0.12549  1.0000
  C   C1535     1.0  0.61375  0.72210  0.10935  1.0000
  H   H2589     1.0  0.69872  0.73171  0.01616  1.0000
  S   S458      1.0  0.84113  0.51401  0.24315  1.0000
  H   H2590     1.0  0.74189  0.52843  0.22890  1.0000
  C   C1536     1.0  0.79059  0.52564  0.26428  1.0000
  H   H2591     1.0  0.73876  0.55816  0.11305  1.0000
  S   S459      1.0  0.72793  0.55453  0.98845  1.0000
  H   H2592     1.0  0.79161  0.53319  0.04714  1.0000
  C   C1537     1.0  0.79157  0.48722  0.06758  1.0000
  C   C1538     1.0  0.77352  0.66165  0.07424  1.0000
  H   H2593     1.0  0.72837  0.69824  0.20352  1.0000
  H   H2594     1.0  0.78416  0.53012  0.02009  1.0000
  H   H2595     1.0  0.88827  0.51851  0.19231  1.0000
  S   S460      1.0  0.76909  0.59204  0.03482  1.0000
  N   N107      1.0  0.83730  0.59216  0.27257  1.0000
  C   C1539     1.0  0.85887  0.58805  0.26586  1.0000
  C   C1540     1.0  0.83096  0.57325  0.28155  1.0000
  S   S461      1.0  0.49815  0.71386  0.04554  1.0000
  C   C1541     1.0  0.82804  0.60190  0.25560  1.0000
  H   H2596     1.0  0.71264  0.48532  0.11354  1.0000
  C   C1542     1.0  0.83428  0.55848  0.26833  1.0000
  H   H2597     1.0  0.94459  0.63991  0.27815  1.0000
  C   C1543     1.0  0.80581  0.60555  0.25848  1.0000
  C   C1544     1.0  0.83342  0.60512  0.28711  1.0000
  C   C1545     1.0  0.96163  0.61738  0.30532  1.0000
  H   H2598     1.0  0.68273  0.69905  0.00599  1.0000
  H   H2599     1.0  0.68057  0.61346  0.99436  1.0000
  H   H2600     1.0  0.79920  0.59367  0.26773  1.0000
  H   H2601     1.0  0.84015  0.57889  0.02489  1.0000
  H   H2602     1.0  0.83215  0.61622  0.25018  1.0000
  H   H2603     1.0  0.83377  0.59437  0.24329  1.0000
  H   H2604     1.0  0.78593  0.54306  0.99634  1.0000
  S   S462      1.0  0.90811  0.59801  0.29584  1.0000
  C   C1546     1.0  0.86901  0.60566  0.25874  1.0000
  C   C1547     1.0  0.79446  0.72510  0.12576  1.0000
  H   H2605     1.0  0.83950  0.49926  0.00886  1.0000
  N   N108      1.0  0.78176  0.70862  0.10366  1.0000
  C   C1548     1.0  0.83489  0.48407  0.22830  1.0000
  H   H2606     1.0  0.90904  0.48933  0.23455  1.0000
  H   H2607     1.0  0.52894  0.72529  0.99297  1.0000
  H   H2608     1.0  0.79962  0.61909  0.26395  1.0000
  C   C1549     1.0  0.77657  0.50616  0.23878  1.0000
  H   H2609     1.0  0.67843  0.70303  0.98178  1.0000
  N   N109      1.0  0.68639  0.59601  0.03276  1.0000
  C   C1550     1.0  0.66516  0.60269  0.03215  1.0000
  C   C1551     1.0  0.69137  0.57508  0.03113  1.0000
  C   C1552     1.0  0.69863  0.60700  0.01663  1.0000
  C   C1553     1.0  0.69036  0.59928  0.05106  1.0000
  C   C1554     1.0  0.65768  0.62439  0.03131  1.0000
  C   C1555     1.0  0.68405  0.56101  0.04883  1.0000
  C   C1556     1.0  0.76934  0.52740  0.26219  1.0000
  C   C1557     1.0  0.71147  0.59285  0.05433  1.0000
  H   H2610     1.0  0.66121  0.59858  0.01988  1.0000
  H   H2611     1.0  0.65628  0.59542  0.04488  1.0000
  H   H2612     1.0  0.70719  0.57042  0.02738  1.0000
  H   H2613     1.0  0.71319  0.70193  0.97902  1.0000
  H   H2614     1.0  0.69668  0.62222  0.01827  1.0000
  H   H2615     1.0  0.71421  0.60126  0.01681  1.0000
  H   H2616     1.0  0.68697  0.61479  0.05181  1.0000
  H   H2617     1.0  0.68054  0.59294  0.06361  1.0000
  H   H2618     1.0  0.66504  0.63320  0.01871  1.0000
  H   H2619     1.0  0.96241  0.73102  0.29781  1.0000
  H   H2620     1.0  0.65877  0.62927  0.04431  1.0000
  H   H2621     1.0  0.68746  0.54634  0.04537  1.0000
  H   H2622     1.0  0.69147  0.56052  0.06077  1.0000
  H   H2623     1.0  0.66820  0.56440  0.05339  1.0000
  C   C1558     1.0  0.80736  0.54757  0.01098  1.0000
  H   H2624     1.0  0.79799  0.56165  0.01255  1.0000
  H   H2625     1.0  0.89213  0.53639  0.29365  1.0000
  H   H2626     1.0  0.72012  0.60434  0.04775  1.0000
  H   H2627     1.0  0.71879  0.57967  0.04878  1.0000
  H   H2628     1.0  0.71164  0.58944  0.06978  1.0000
  N   N110      1.0  0.68517  0.66079  0.21361  1.0000
  C   C1559     1.0  0.68338  0.67466  0.19529  1.0000
  C   C1560     1.0  0.66701  0.66540  0.22773  1.0000
  C   C1561     1.0  0.68753  0.64038  0.21090  1.0000
  C   C1562     1.0  0.70281  0.66290  0.22043  1.0000
  C   C1563     1.0  0.69896  0.67039  0.17799  1.0000
  C   C1564     1.0  0.66477  0.68411  0.23543  1.0000
  C   C1565     1.0  0.67113  0.63564  0.20315  1.0000
  C   C1566     1.0  0.70652  0.65049  0.23967  1.0000
  H   H2629     1.0  0.66911  0.67574  0.19119  1.0000
  H   H2630     1.0  0.68386  0.68942  0.19698  1.0000
  H   H2631     1.0  0.66553  0.65352  0.24005  1.0000
  H   H2632     1.0  0.65397  0.66670  0.22133  1.0000
  H   H2633     1.0  0.70138  0.63622  0.20136  1.0000
  H   H2634     1.0  0.68873  0.63030  0.22453  1.0000
  H   H2635     1.0  0.71607  0.65901  0.21010  1.0000
  H   H2636     1.0  0.70284  0.67805  0.22102  1.0000
  H   H2637     1.0  0.69660  0.68213  0.16579  1.0000
  H   H2638     1.0  0.71364  0.67002  0.18052  1.0000
  H   H2639     1.0  0.69831  0.65690  0.17356  1.0000
  H   H2640     1.0  0.66552  0.69677  0.22394  1.0000
  H   H2641     1.0  0.65035  0.68666  0.24456  1.0000
  H   H2642     1.0  0.67567  0.68322  0.24437  1.0000
  H   H2643     1.0  0.66916  0.64450  0.18918  1.0000
  H   H2644     1.0  0.65728  0.63709  0.21328  1.0000
  H   H2645     1.0  0.67489  0.62045  0.20114  1.0000
  H   H2646     1.0  0.71622  0.63674  0.23754  1.0000
  H   H2647     1.0  0.69326  0.64723  0.24954  1.0000
  H   H2648     1.0  0.71352  0.65832  0.24702  1.0000
  C   C1567     1.0  0.74550  0.55418  0.01805  1.0000
  S   S463      1.0  0.87784  0.51511  0.27229  1.0000
  H   H2649     1.0  0.72822  0.51895  0.27122  1.0000
  C   C1568     1.0  0.75470  0.56250  0.02844  1.0000
  C   C1569     1.0  0.66129  0.68752  0.04461  1.0000
  H   H2650     1.0  0.91810  0.51930  0.20919  1.0000
  H   H2651     1.0  0.80763  0.71414  0.12642  1.0000
  H   H2652     1.0  0.73443  0.72749  0.98426  1.0000
  C   C1570     1.0  0.96250  0.60464  0.29066  1.0000
  S   S464      1.0  0.77555  0.64598  0.01257  1.0000
  H   H2653     1.0  0.72737  0.49215  0.09057  1.0000
  N   N111      1.0  0.76442  0.58553  0.10478  1.0000
  C   C1571     1.0  0.75512  0.57818  0.09181  1.0000
  C   C1572     1.0  0.78075  0.59516  0.09303  1.0000
  C   C1573     1.0  0.75013  0.59989  0.11520  1.0000
  C   C1574     1.0  0.77170  0.56884  0.11918  1.0000
  H   H2654     1.0  0.78256  0.58798  0.13341  1.0000
  C   C1575     1.0  0.79719  0.58236  0.08193  1.0000
  C   C1576     1.0  0.73933  0.61692  0.10272  1.0000
  C   C1577     1.0  0.78496  0.57295  0.13137  1.0000
  H   H2655     1.0  0.75195  0.58945  0.07941  1.0000
  H   H2656     1.0  0.76523  0.56633  0.08556  1.0000
  H   H2657     1.0  0.78733  0.60167  0.10193  1.0000
  H   H2658     1.0  0.77540  0.60725  0.08222  1.0000
  H   H2659     1.0  0.73912  0.59280  0.12582  1.0000
  H   H2660     1.0  0.78241  0.56415  0.14574  1.0000
  H   H2661     1.0  0.75944  0.56311  0.12918  1.0000
  H   H2662     1.0  0.77993  0.55680  0.11199  1.0000
  H   H2663     1.0  0.81403  0.51845  0.18620  1.0000
  N   N112      1.0  0.76634  0.52560  0.24299  1.0000
  H   H2664     1.0  0.72913  0.62621  0.11204  1.0000
  H   H2665     1.0  0.79214  0.57784  0.07057  1.0000
  H   H2666     1.0  0.80873  0.59083  0.07484  1.0000
  H   H2667     1.0  0.80386  0.56969  0.09122  1.0000
  H   H2668     1.0  0.73066  0.61240  0.09420  1.0000
  H   H2669     1.0  0.74927  0.62603  0.09322  1.0000
  C   C1578     1.0  0.83356  0.55068  0.02606  1.0000
  C   C1579     1.0  0.97842  0.48580  0.28288  1.0000
  C   C1580     1.0  0.53351  0.69689  0.05417  1.0000
  H   H2670     1.0  0.79049  0.53735  0.22450  1.0000
  H   H2671     1.0  0.82478  0.53146  0.21015  1.0000
  H   H2672     1.0  0.75739  0.60637  0.12360  1.0000
  C   C1581     1.0  0.73645  0.57013  0.10110  1.0000
  H   H2673     1.0  0.75655  0.49781  0.22429  1.0000
  H   H2674     1.0  0.73173  0.56417  0.09043  1.0000
  C   C1582     1.0  0.55309  0.69623  0.05427  1.0000
  H   H2675     1.0  0.91448  0.69313  0.30577  1.0000
  H   H2676     1.0  0.76454  0.70125  0.08608  1.0000
  H   H2677     1.0  0.66346  0.70887  0.08835  1.0000
  C   C1583     1.0  0.89910  0.56364  0.29447  1.0000
  C   C1584     1.0  0.64637  0.71088  0.11694  1.0000
  H   H2678     1.0  0.86612  0.57890  0.27741  1.0000
  C   C1585     1.0  0.88256  0.50507  0.19893  1.0000
  H   H2679     1.0  0.82688  0.56407  0.25596  1.0000
  H   H2680     1.0  0.91220  0.56190  0.28407  1.0000
  H   H2681     1.0  0.82086  0.69218  0.10405  1.0000
  N   N113      1.0  0.96370  0.61446  0.27017  1.0000
  H   H2682     1.0  0.95160  0.52721  0.28438  1.0000
  H   H2683     1.0  0.81900  0.57988  0.01541  1.0000
  H   H2684     1.0  0.65898  0.70533  0.00104  1.0000
  H   H2685     1.0  0.95063  0.69701  0.24063  1.0000
  C   C1586     1.0  0.52263  0.71346  0.04546  1.0000
  C   C1587     1.0  0.94575  0.62944  0.26882  1.0000
  C   C1588     1.0  0.76277  0.70998  0.09731  1.0000
  H   H2686     1.0  0.81778  0.55078  0.99764  1.0000
  C   C1589     1.0  0.81101  0.68261  0.11271  1.0000
  H   H2687     1.0  0.78990  0.72937  0.13995  1.0000
  C   C1590     1.0  0.82593  0.51882  0.02863  1.0000
  C   C1591     1.0  0.81445  0.60507  0.30159  1.0000
  H   H2688     1.0  0.75739  0.72497  0.09074  1.0000
  C   C1592     1.0  0.68764  0.70847  0.04979  1.0000
  H   H2689     1.0  0.84370  0.54969  0.01239  1.0000
  H   H2690     1.0  0.92950  0.65131  0.25039  1.0000
  H   H2691     1.0  0.76983  0.54090  0.21402  1.0000
  H   H2692     1.0  0.77456  0.57123  0.21852  1.0000
  H   H2693     1.0  0.68557  0.57243  0.01918  1.0000
  C   C1593     1.0  0.79450  0.53478  0.00728  1.0000
  H   H2694     1.0  0.82168  0.54538  0.06455  1.0000
  C   C1594     1.0  0.76073  0.51757  0.07147  1.0000
  H   H2695     1.0  0.64374  0.69554  0.09477  1.0000
  S   S465      1.0  0.73987  0.50193  0.15080  1.0000
  H   H2696     1.0  0.75581  0.51374  0.04462  1.0000
  C   C1595     1.0  0.91588  0.48744  0.19545  1.0000
  Fe  Fe234     1.0  0.85739  0.65763  0.28993  1.0000
  H   H2697     1.0  0.70028  0.71598  0.22281  1.0000
  C   C1596     1.0  0.81069  0.53687  0.06431  1.0000
  C   C1597     1.0  0.96230  0.53431  0.28786  1.0000
  H   H2698     1.0  0.93262  0.62276  0.27392  1.0000
  S   S466      1.0  0.86749  0.68085  0.29950  1.0000
  S   S467      1.0  0.77642  0.52003  0.15711  1.0000
  H   H2699     1.0  0.58380  0.73167  0.10557  1.0000
  H   H2700     1.0  0.86731  0.61443  0.26986  1.0000
  C   C1598     1.0  0.55087  0.72888  0.03739  1.0000
  H   H2701     1.0  0.79102  0.52855  0.27843  1.0000
  C   C1599     1.0  0.80280  0.54211  0.04554  1.0000
  H   H2702     1.0  0.74323  0.58949  0.97936  1.0000
  H   H2703     1.0  0.80932  0.72003  0.05843  1.0000
  C   C1600     1.0  0.70140  0.71813  0.20760  1.0000
  H   H2704     1.0  0.97947  0.63659  0.27037  1.0000
  H   H2705     1.0  0.88618  0.71348  0.29556  1.0000
  H   H2706     1.0  0.98076  0.57311  0.27268  1.0000
  H   H2707     1.0  0.73757  0.54253  0.24633  1.0000
  H   H2708     1.0  0.74282  0.49927  0.26062  1.0000
  H   H2709     1.0  0.84262  0.54418  0.03713  1.0000
  C   C1601     1.0  0.70464  0.72395  0.16830  1.0000
  H   H2710     1.0  0.72976  0.50061  0.11097  1.0000
  H   H2711     1.0  0.94409  0.63310  0.23833  1.0000
  H   H2712     1.0  0.70547  0.61501  0.98606  1.0000
  H   H2713     1.0  0.93809  0.66777  0.29801  1.0000
  H   H2714     1.0  0.89343  0.53034  0.21713  1.0000
  C   C1602     1.0  0.98116  0.58286  0.25879  1.0000
  H   H2715     1.0  0.74898  0.52957  0.07275  1.0000
  H   H2716     1.0  0.60978  0.71548  0.14716  1.0000
  Fe  Fe235     1.0  0.76880  0.50768  0.13442  1.0000
  S   S468      1.0  0.76967  0.51230  0.98622  1.0000
  C   C1603     1.0  0.97518  0.68441  0.25422  1.0000
  H   H2717     1.0  0.69794  0.71654  0.05165  1.0000
  Fe  Fe236     1.0  0.86437  0.51021  0.30279  1.0000
  H   H2718     1.0  0.79624  0.49077  0.09471  1.0000
  H   H2719     1.0  0.97983  0.62762  0.23329  1.0000
  C   C1604     1.0  0.83331  0.50384  0.22683  1.0000
  H   H2720     1.0  0.97523  0.59316  0.29253  1.0000
  H   H2721     1.0  0.76338  0.51609  0.27333  1.0000
  C   C1605     1.0  0.53135  0.72942  0.03706  1.0000
  H   H2722     1.0  0.75008  0.68929  0.12124  1.0000
  C   C1606     1.0  0.56178  0.71224  0.04593  1.0000
  H   H2723     1.0  0.80321  0.52194  0.00175  1.0000
  C   C1607     1.0  0.81961  0.50883  0.19801  1.0000
  C   C1608     1.0  0.77204  0.51111  0.08572  1.0000
  H   H2724     1.0  0.97310  0.66088  0.29970  1.0000
  H   H2725     1.0  0.69877  0.59194  0.99339  1.0000
  C   C1609     1.0  0.61764  0.72635  0.14891  1.0000
  H   H2726     1.0  0.81447  0.50985  0.03157  1.0000
  C   C1610     1.0  0.74497  0.52820  0.24317  1.0000
  Fe  Fe237     1.0  0.89205  0.62774  0.29942  1.0000
  H   H2727     1.0  0.95815  0.55005  0.28421  1.0000
  H   H2728     1.0  0.98074  0.57405  0.24827  1.0000
  H   H2729     1.0  0.86256  0.57983  0.25401  1.0000
  H   H2730     1.0  0.73384  0.70298  0.10606  1.0000
  N   N114      1.0  0.81747  0.53977  0.02778  1.0000
  S   S469      1.0  0.58632  0.71092  0.04611  1.0000
  C   C1611     1.0  0.73398  0.51364  0.25764  1.0000
  H   H2731     1.0  0.70591  0.72637  0.15305  1.0000
  H   H2732     1.0  0.99199  0.64366  0.23955  1.0000
  S   S470      1.0  0.76813  0.52391  0.10448  1.0000
  C   C1612     1.0  0.77448  0.54069  0.22762  1.0000
  H   H2733     1.0  0.75322  0.56629  0.23467  1.0000
  H   H2734     1.0  0.61055  0.70871  0.11908  1.0000
  H   H2735     1.0  0.73419  0.72362  0.00912  1.0000
  H   H2736     1.0  0.64040  0.70027  0.12890  1.0000
  H   H2737     1.0  0.79871  0.51092  0.26353  1.0000
  H   H2738     1.0  0.76112  0.54115  0.26630  1.0000
  H   H2739     1.0  0.83375  0.62024  0.28003  1.0000
  C   C1613     1.0  0.66925  0.71785  0.04654  1.0000
  C   C1614     1.0  0.79435  0.71940  0.08759  1.0000
  H   H2740     1.0  0.81833  0.57479  0.04074  1.0000
  C   C1615     1.0  0.65498  0.70015  0.10016  1.0000
  C   C1616     1.0  0.77767  0.71785  0.12107  1.0000
  C   C1617     1.0  0.72621  0.73186  0.99770  1.0000
  H   H2741     1.0  0.78662  0.71240  0.06248  1.0000
  H   H2742     1.0  0.77402  0.49463  0.25124  1.0000
  H   H2743     1.0  0.97379  0.62542  0.30179  1.0000
  C   C1618     1.0  0.70556  0.72727  0.00232  1.0000
  C   C1619     1.0  0.53992  0.73026  0.98078  1.0000
  H   H2744     1.0  0.80726  0.69637  0.07080  1.0000
  H   H2745     1.0  0.77212  0.70786  0.13390  1.0000
  Fe  Fe238     1.0  0.76500  0.49022  0.01239  1.0000
  H   H2746     1.0  0.80825  0.72013  0.09139  1.0000
  C   C1620     1.0  0.87601  0.49855  0.18295  1.0000
  C   C1621     1.0  0.79951  0.71139  0.06891  1.0000
  H   H2747     1.0  0.84984  0.55340  0.26350  1.0000
  H   H2748     1.0  0.88493  0.50069  0.23569  1.0000
  C   C1622     1.0  0.67380  0.72964  0.99341  1.0000
  H   H2749     1.0  0.62927  0.71901  0.15711  1.0000
  H   H2750     1.0  0.55359  0.71998  0.98180  1.0000
  C   C1623     1.0  0.89901  0.49903  0.22579  1.0000
  H   H2751     1.0  0.85576  0.51305  0.01331  1.0000
  H   H2752     1.0  0.86777  0.51115  0.17478  1.0000
  H   H2753     1.0  0.94963  0.59741  0.29531  1.0000
  S   S471      1.0  0.73005  0.50470  0.97591  1.0000
  S   S472      1.0  0.84178  0.49590  0.29771  1.0000
  Fe  Fe239     1.0  0.78929  0.48969  0.16831  1.0000
  C   C1624     1.0  0.68704  0.73103  0.19885  1.0000
  H   H2754     1.0  0.77437  0.51080  0.20849  1.0000
  C   C1625     1.0  0.77169  0.50022  0.22167  1.0000
  N   N115      1.0  0.89714  0.49077  0.20920  1.0000
  H   H2755     1.0  0.83849  0.56639  0.29370  1.0000
  H   H2756     1.0  0.81543  0.57503  0.28793  1.0000
  C   C1626     1.0  0.94578  0.48357  0.27995  1.0000
  H   H2757     1.0  0.57351  0.73123  0.99764  1.0000
  H   H2758     1.0  0.76597  0.73064  0.11982  1.0000
  H   H2759     1.0  0.90449  0.72771  0.28954  1.0000
  C   C1627     1.0  0.82161  0.48904  0.19919  1.0000
  S   S473      1.0  0.92802  0.48723  0.26559  1.0000
  C   C1628     1.0  0.78023  0.49367  0.05333  1.0000
  Fe  Fe240     1.0  0.89679  0.48680  0.27946  1.0000
  C   C1629     1.0  0.96362  0.48944  0.27207  1.0000
  H   H2760     1.0  0.96610  0.49660  0.25747  1.0000
  C   C1630     1.0  0.89532  0.72017  0.30174  1.0000
  H   H2761     1.0  0.88834  0.49236  0.17289  1.0000
  H   H2762     1.0  0.86589  0.48825  0.18875  1.0000
  C   C1631     1.0  0.93495  0.72086  0.30662  1.0000
  C   C1632     1.0  0.86849  0.68713  0.35945  1.0000
  H   H2763     1.0  0.95851  0.71756  0.43662  1.0000
  H   H2764     1.0  0.97605  0.68897  0.38118  1.0000
  C   C1633     1.0  0.93120  0.52516  0.32146  1.0000
  C   C1634     1.0  0.96502  0.52754  0.30871  1.0000
  C   C1635     1.0  0.91285  0.52748  0.33669  1.0000
  H   H2765     1.0  0.94090  0.68339  0.32252  1.0000
  H   H2766     1.0  0.97949  0.70078  0.41500  1.0000
  H   H2767     1.0  0.96174  0.50064  0.36303  1.0000
  C   C1636     1.0  0.92167  0.68089  0.34941  1.0000
  N   N116      1.0  0.94795  0.53355  0.32350  1.0000
  H   H2768     1.0  0.96283  0.60804  0.31930  1.0000
  N   N117      1.0  0.86128  0.70558  0.58551  1.0000
  C   C1637     1.0  0.89669  0.72018  0.63299  1.0000
  H   H2769     1.0  0.94225  0.56438  0.34679  1.0000
  H   H2770     1.0  0.90453  0.51603  0.33726  1.0000
  H   H2771     1.0  0.91582  0.52568  0.35119  1.0000
  S   S474      1.0  0.90521  0.64800  0.30988  1.0000
  H   H2772     1.0  0.94454  0.71847  0.53482  1.0000
  H   H2773     1.0  0.95237  0.69002  0.37680  1.0000
  H   H2774     1.0  0.91356  0.68936  0.36040  1.0000
  C   C1638     1.0  0.95398  0.52618  0.34259  1.0000
  S   S475      1.0  0.86258  0.63603  0.31618  1.0000
  C   C1639     1.0  0.91157  0.68803  0.62759  1.0000
  H   H2775     1.0  0.95706  0.56131  0.31466  1.0000
  C   C1640     1.0  0.85732  0.72145  0.35192  1.0000
  H   H2776     1.0  0.89868  0.71778  0.34596  1.0000
  S   S476      1.0  0.87290  0.66376  0.35413  1.0000
  N   N118      1.0  0.92179  0.71069  0.32277  1.0000
  H   H2777     1.0  0.93384  0.72009  0.35299  1.0000
  C   C1641     1.0  0.87323  0.68980  0.37622  1.0000
  H   H2778     1.0  0.83246  0.72252  0.58919  1.0000
  C   C1642     1.0  0.90845  0.70794  0.62118  1.0000
  H   H2779     1.0  0.93186  0.66912  0.35635  1.0000
  C   C1643     1.0  0.92216  0.73113  0.34781  1.0000
  H   H2780     1.0  0.93574  0.71848  0.42934  1.0000
  H   H2781     1.0  0.92039  0.67863  0.61823  1.0000
  H   H2782     1.0  0.96741  0.53135  0.34296  1.0000
  C   C1644     1.0  0.98355  0.71255  0.40329  1.0000
  H   H2783     1.0  0.87928  0.67753  0.38574  1.0000
  H   H2784     1.0  0.84253  0.72436  0.61846  1.0000
  H   H2785     1.0  0.84020  0.69080  0.60562  1.0000
  H   H2786     1.0  0.93488  0.56054  0.30817  1.0000
  H   H2787     1.0  0.91179  0.67390  0.34454  1.0000
  H   H2788     1.0  0.89504  0.67809  0.59049  1.0000
  C   C1645     1.0  0.98101  0.71838  0.47960  1.0000
  C   C1646     1.0  0.95532  0.72134  0.30991  1.0000
  H   H2789     1.0  0.98869  0.72832  0.42384  1.0000
  H   H2790     1.0  0.85662  0.70115  0.33447  1.0000
  C   C1647     1.0  0.83869  0.69875  0.56539  1.0000
  H   H2791     1.0  0.94766  0.62730  0.30738  1.0000
  H   H2792     1.0  0.93555  0.50970  0.32033  1.0000
  H   H2793     1.0  0.87414  0.71014  0.39359  1.0000
  H   H2794     1.0  0.96822  0.72343  0.52610  1.0000
  H   H2795     1.0  0.95064  0.72755  0.47809  1.0000
  Fe  Fe241     1.0  0.87513  0.65852  0.32424  1.0000
  H   H2796     1.0  0.96906  0.49666  0.33931  1.0000
  C   C1648     1.0  0.87659  0.58246  0.31588  1.0000
  H   H2797     1.0  0.96382  0.58241  0.63856  1.0000
  H   H2798     1.0  0.95009  0.70117  0.40641  1.0000
  H   H2799     1.0  0.81503  0.59156  0.31211  1.0000
  H   H2800     1.0  0.95774  0.70946  0.51421  1.0000
  H   H2801     1.0  0.92638  0.53173  0.30776  1.0000
  H   H2802     1.0  0.87242  0.59504  0.32244  1.0000
  H   H2803     1.0  0.91197  0.71131  0.49212  1.0000
  C   C1649     1.0  0.88181  0.70859  0.58310  1.0000
  H   H2804     1.0  0.83960  0.69233  0.55269  1.0000
  C   C1650     1.0  0.85616  0.68977  0.60175  1.0000
  C   C1651     1.0  0.90726  0.70432  0.31440  1.0000
  H   H2805     1.0  0.98533  0.71463  0.49368  1.0000
  S   S477      1.0  0.85586  0.53398  0.31977  1.0000
  H   H2806     1.0  0.91174  0.69417  0.58086  1.0000
  H   H2807     1.0  0.90271  0.71997  0.52423  1.0000
  H   H2808     1.0  0.86890  0.70128  0.62174  1.0000
  H   H2809     1.0  0.94494  0.69631  0.33852  1.0000
  H   H2810     1.0  0.96908  0.51174  0.31055  1.0000
  H   H2811     1.0  0.85211  0.56982  0.33163  1.0000
  H   H2812     1.0  0.88449  0.71367  0.59529  1.0000
  H   H2813     1.0  0.94319  0.53189  0.35415  1.0000
  H   H2814     1.0  0.86164  0.67556  0.59728  1.0000
  H   H2815     1.0  0.91504  0.71377  0.60706  1.0000
  C   C1652     1.0  0.86052  0.70305  0.34731  1.0000
  C   C1653     1.0  0.93267  0.56530  0.33647  1.0000
  H   H2816     1.0  0.96626  0.70762  0.36345  1.0000
  C   C1654     1.0  0.95732  0.50419  0.34890  1.0000
  H   H2817     1.0  0.88478  0.72028  0.57090  1.0000
  H   H2818     1.0  0.95514  0.72674  0.32294  1.0000
  H   H2819     1.0  0.86833  0.68613  0.56525  1.0000
  C   C1655     1.0  0.85925  0.70025  0.56727  1.0000
  C   C1656     1.0  0.96281  0.69895  0.37770  1.0000
  H   H2820     1.0  0.82952  0.71310  0.56298  1.0000
  C   C1657     1.0  0.95498  0.72186  0.52158  1.0000
  H   H2821     1.0  0.91937  0.55977  0.34384  1.0000
  C   C1658     1.0  0.89760  0.69100  0.57978  1.0000
  C   C1659     1.0  0.95367  0.71139  0.39308  1.0000
  C   C1660     1.0  0.87035  0.70826  0.38068  1.0000
  H   H2822     1.0  0.89913  0.68786  0.56533  1.0000
  N   N119      1.0  0.96599  0.72463  0.39591  1.0000
  C   C1661     1.0  0.93324  0.69297  0.33277  1.0000
  H   H2823     1.0  0.92826  0.58078  0.33099  1.0000
  H   H2824     1.0  0.90349  0.54154  0.33330  1.0000
  C   C1662     1.0  0.94349  0.55522  0.31975  1.0000
  C   C1663     1.0  0.84772  0.72423  0.58776  1.0000
  H   H2825     1.0  0.98376  0.72876  0.36828  1.0000
  C   C1664     1.0  0.86393  0.68841  0.62023  1.0000
  H   H2826     1.0  0.86461  0.71073  0.55476  1.0000
  C   C1665     1.0  0.86518  0.56809  0.32119  1.0000
  H   H2827     1.0  0.89661  0.69747  0.32563  1.0000
  C   C1666     1.0  0.94682  0.72691  0.42963  1.0000
  C   C1667     1.0  0.86228  0.72413  0.36858  1.0000
  H   H2828     1.0  0.93944  0.71939  0.38983  1.0000
  H   H2829     1.0  0.83160  0.68945  0.57777  1.0000
  H   H2830     1.0  0.97794  0.70506  0.47659  1.0000
  C   C1668     1.0  0.90136  0.72395  0.49448  1.0000
  S   S478      1.0  0.89851  0.72788  0.45717  1.0000
  C   C1669     1.0  0.87065  0.55151  0.31310  1.0000
  H   H2831     1.0  0.87582  0.67593  0.62189  1.0000
  H   H2832     1.0  0.97804  0.53275  0.31022  1.0000
  H   H2833     1.0  0.94398  0.49825  0.35039  1.0000
  H   H2834     1.0  0.96462  0.70698  0.31019  1.0000
  C   C1670     1.0  0.89623  0.72892  0.51263  1.0000
  C   C1671     1.0  0.91066  0.72402  0.33608  1.0000
  H   H2835     1.0  0.88533  0.73056  0.30996  1.0000
  H   H2836     1.0  0.85238  0.68555  0.63265  1.0000
  H   H2837     1.0  0.81260  0.61692  0.30961  1.0000
  C   C1672     1.0  0.84806  0.73320  0.60489  1.0000
  H   H2838     1.0  0.99199  0.55882  0.63920  1.0000
  Fe  Fe242     1.0  0.77584  0.62227  0.87635  1.0000
  S   S479      1.0  0.74396  0.62797  0.87681  1.0000
  S   S480      1.0  0.78626  0.61655  0.90436  1.0000
  Fe  Fe243     1.0  0.78567  0.61910  0.83389  1.0000
  S   S481      1.0  0.75422  0.62440  0.83161  1.0000
  S   S482      1.0  0.80616  0.60984  0.80801  1.0000
  Fe  Fe244     1.0  0.75100  0.64733  0.84895  1.0000
  S   S483      1.0  0.73731  0.67833  0.84094  1.0000
  Fe  Fe245     1.0  0.75046  0.60448  0.85954  1.0000
  S   S484      1.0  0.73459  0.57940  0.86787  1.0000
  S   S485      1.0  0.78283  0.64333  0.84955  1.0000
  S   S486      1.0  0.78194  0.59757  0.86072  1.0000
  Fe  Fe246     1.0  0.88727  0.63436  0.72556  1.0000
  S   S487      1.0  0.87390  0.63187  0.70129  1.0000
  S   S488      1.0  0.87167  0.64921  0.75025  1.0000
  Fe  Fe247     1.0  0.92641  0.61208  0.71038  1.0000
  S   S489      1.0  0.91609  0.60763  0.68523  1.0000
  S   S490      1.0  0.95601  0.59702  0.71611  1.0000
  Fe  Fe248     1.0  0.90186  0.63863  0.68291  1.0000
  Fe  Fe249     1.0  0.88936  0.60127  0.70562  1.0000
  S   S491      1.0  0.87480  0.57629  0.70649  1.0000
  S   S492      1.0  0.91422  0.64352  0.70684  1.0000
  S   S493      1.0  0.90068  0.60337  0.73115  1.0000
  H   H2839     1.0  0.79041  0.51687  0.76470  1.0000
  H   H2840     1.0  0.88562  0.68655  0.67223  1.0000
  H   H2841     1.0  0.49684  0.71137  0.79480  1.0000
  C   C1673     1.0  0.69504  0.72519  0.91828  1.0000
  C   C1674     1.0  0.84634  0.50352  0.74070  1.0000
  C   C1675     1.0  0.74548  0.53006  0.84675  1.0000
  H   H2842     1.0  0.98645  0.51055  0.72044  1.0000
  H   H2843     1.0  0.50909  0.66934  0.82348  1.0000
  S   S494      1.0  0.64710  0.70787  0.84873  1.0000
  C   C1676     1.0  0.76161  0.55318  0.82338  1.0000
  H   H2844     1.0  0.67527  0.72623  0.87993  1.0000
  H   H2845     1.0  0.71625  0.49472  0.77036  1.0000
  H   H2846     1.0  0.70373  0.51142  0.84715  1.0000
  H   H2847     1.0  0.84934  0.52544  0.77727  1.0000
  H   H2848     1.0  0.86895  0.51378  0.76296  1.0000
  H   H2849     1.0  0.50766  0.64490  0.84849  1.0000
  H   H2850     1.0  0.74139  0.49437  0.76883  1.0000
  H   H2851     1.0  0.91217  0.66385  0.76202  1.0000
  H   H2852     1.0  0.68913  0.51874  0.77775  1.0000
  C   C1677     1.0  0.79611  0.64769  0.75751  1.0000
  H   H2853     1.0  0.93400  0.61841  0.74522  1.0000
  H   H2854     1.0  0.75708  0.66175  0.80927  1.0000
  H   H2855     1.0  0.76437  0.65534  0.90135  1.0000
  H   H2856     1.0  0.91508  0.61252  0.78692  1.0000
  N   N120      1.0  0.99063  0.57006  0.66479  1.0000
  H   H2857     1.0  0.94614  0.50441  0.73996  1.0000
  H   H2858     1.0  0.66465  0.53938  0.79595  1.0000
  H   H2859     1.0  0.51090  0.69088  0.86645  1.0000
  C   C1678     1.0  0.74351  0.56217  0.85304  1.0000
  H   H2860     1.0  0.80455  0.49493  0.77377  1.0000
  H   H2861     1.0  0.88873  0.65188  0.78260  1.0000
  H   H2862     1.0  0.68904  0.69080  0.87942  1.0000
  C   C1679     1.0  0.75474  0.66957  0.79495  1.0000
  H   H2863     1.0  0.74183  0.64520  0.79330  1.0000
  H   H2864     1.0  0.73175  0.54791  0.79406  1.0000
  H   H2865     1.0  0.85868  0.48363  0.77365  1.0000
  H   H2866     1.0  0.69527  0.48408  0.91364  1.0000
  H   H2867     1.0  0.78871  0.55393  0.89003  1.0000
  H   H2868     1.0  0.74245  0.59798  0.92727  1.0000
  C   C1680     1.0  0.89528  0.52305  0.69410  1.0000
  H   H2869     1.0  0.93427  0.63354  0.81142  1.0000
  C   C1681     1.0  0.77763  0.65037  0.77260  1.0000
  H   H2870     1.0  0.74187  0.51801  0.91258  1.0000
  H   H2871     1.0  0.72967  0.54020  0.87229  1.0000
  H   H2872     1.0  0.80383  0.66708  0.78245  1.0000
  H   H2873     1.0  0.77068  0.69916  0.77267  1.0000
  N   N121      1.0  0.77366  0.66835  0.78108  1.0000
  H   H2874     1.0  0.86995  0.49222  0.71996  1.0000
  H   H2875     1.0  0.79098  0.65316  0.80221  1.0000
  H   H2876     1.0  0.93215  0.65489  0.78434  1.0000
  H   H2877     1.0  0.74438  0.69262  0.76001  1.0000
  H   H2878     1.0  0.52106  0.67868  0.83735  1.0000
  C   C1682     1.0  0.73867  0.54379  0.85868  1.0000
  H   H2879     1.0  0.94773  0.66640  0.74753  1.0000
  C   C1683     1.0  0.75520  0.56672  0.83547  1.0000
  H   H2880     1.0  0.72411  0.56189  0.93345  1.0000
  C   C1684     1.0  0.90335  0.68019  0.64600  1.0000
  H   H2881     1.0  0.75910  0.58080  0.83103  1.0000
  C   C1685     1.0  0.91530  0.52208  0.69079  1.0000
  H   H2882     1.0  0.78859  0.68608  0.75736  1.0000
  H   H2883     1.0  0.74798  0.54566  0.95133  1.0000
  H   H2884     1.0  0.90292  0.64338  0.80130  1.0000
  H   H2885     1.0  0.79899  0.57095  0.89732  1.0000
  C   C1686     1.0  0.92293  0.53780  0.69239  1.0000
  H   H2886     1.0  0.76353  0.57558  0.95052  1.0000
  C   C1687     1.0  0.49815  0.70246  0.86595  1.0000
  C   C1688     1.0  0.93713  0.66313  0.74026  1.0000
  H   H2887     1.0  0.72499  0.66496  0.80118  1.0000
  H   H2888     1.0  0.75123  0.67649  0.92550  1.0000
  H   H2889     1.0  0.68275  0.72628  0.93029  1.0000
  H   H2890     1.0  0.94284  0.58053  0.65639  1.0000
  H   H2891     1.0  0.77379  0.68449  0.81384  1.0000
  H   H2892     1.0  0.68801  0.52871  0.83446  1.0000
  H   H2893     1.0  0.95656  0.59847  0.65568  1.0000
  C   C1689     1.0  0.73836  0.66109  0.79094  1.0000
  C   C1690     1.0  0.89056  0.55549  0.70051  1.0000
  C   C1691     1.0  0.88293  0.53976  0.69890  1.0000
  C   C1692     1.0  0.77389  0.68611  0.76610  1.0000
  H   H2894     1.0  0.74876  0.68466  0.79682  1.0000
  H   H2895     1.0  0.86746  0.54062  0.70106  1.0000
  C   C1693     1.0  0.97415  0.61102  0.71232  1.0000
  C   C1694     1.0  0.97080  0.63049  0.70456  1.0000
  C   C1695     1.0  0.94185  0.62130  0.75559  1.0000
  C   C1696     1.0  0.95781  0.58353  0.65358  1.0000
  H   H2896     1.0  0.71674  0.70806  0.86786  1.0000
  H   H2897     1.0  0.81873  0.53221  0.75154  1.0000
  H   H2898     1.0  0.95696  0.63718  0.70069  1.0000
  H   H2899     1.0  0.66598  0.52223  0.81776  1.0000
  C   C1697     1.0  0.85381  0.52145  0.76295  1.0000
  H   H2900     1.0  0.73425  0.71917  0.89817  1.0000
  H   H2901     1.0  0.86869  0.54445  0.74592  1.0000
  C   C1698     1.0  0.78749  0.68307  0.80352  1.0000
  H   H2902     1.0  0.73502  0.66642  0.77654  1.0000
  S   S495      1.0  0.75115  0.67079  0.96536  1.0000
  H   H2903     1.0  0.79775  0.63358  0.75318  1.0000
  C   C1699     1.0  0.71230  0.68570  0.84134  1.0000
  C   C1700     1.0  0.70520  0.70529  0.83645  1.0000
  C   C1701     1.0  0.68526  0.71214  0.83848  1.0000
  C   C1702     1.0  0.67223  0.69940  0.84499  1.0000
  C   C1703     1.0  0.67934  0.67965  0.84897  1.0000
  C   C1704     1.0  0.69936  0.67279  0.84734  1.0000
  H   H2904     1.0  0.71514  0.71532  0.83158  1.0000
  H   H2905     1.0  0.50303  0.71635  0.85969  1.0000
  H   H2906     1.0  0.66931  0.66971  0.85388  1.0000
  H   H2907     1.0  0.70472  0.65764  0.85105  1.0000
  C   C1705     1.0  0.82535  0.62032  0.79313  1.0000
  C   C1706     1.0  0.83444  0.61282  0.77669  1.0000
  C   C1707     1.0  0.84885  0.62140  0.76365  1.0000
  C   C1708     1.0  0.85426  0.63764  0.76691  1.0000
  C   C1709     1.0  0.84547  0.64496  0.78355  1.0000
  C   C1710     1.0  0.83119  0.63621  0.79674  1.0000
  H   H2908     1.0  0.83007  0.60048  0.77384  1.0000
  H   H2909     1.0  0.85551  0.61562  0.75090  1.0000
  H   H2910     1.0  0.84967  0.65746  0.78621  1.0000
  H   H2911     1.0  0.82454  0.64188  0.80954  1.0000
  C   C1711     1.0  0.77523  0.63134  0.92135  1.0000
  C   C1712     1.0  0.77693  0.62455  0.94044  1.0000
  C   C1713     1.0  0.76917  0.63636  0.95415  1.0000
  C   C1714     1.0  0.75998  0.65517  0.94877  1.0000
  C   C1715     1.0  0.75809  0.66189  0.92972  1.0000
  C   C1716     1.0  0.76551  0.64996  0.91607  1.0000
  H   H2912     1.0  0.78447  0.61019  0.94462  1.0000
  C   C1717     1.0  0.91126  0.62657  0.77797  1.0000
  C   C1718     1.0  0.69573  0.51379  0.83522  1.0000
  H   H2913     1.0  0.93962  0.59334  0.77467  1.0000
  H   H2914     1.0  0.71946  0.54434  0.81851  1.0000
  H   H2915     1.0  0.76195  0.70224  0.74149  1.0000
  H   H2916     1.0  0.77037  0.55696  0.80966  1.0000
  H   H2917     1.0  0.76572  0.64954  0.76556  1.0000
  C   C1719     1.0  0.75946  0.68947  0.75250  1.0000
  C   C1720     1.0  0.67064  0.71439  0.89109  1.0000
  C   C1721     1.0  0.66826  0.52400  0.80217  1.0000
  H   H2918     1.0  0.93840  0.53713  0.68978  1.0000
  H   H2919     1.0  0.95464  0.52524  0.72514  1.0000
  H   H2920     1.0  0.85079  0.54034  0.73494  1.0000
  C   C1722     1.0  0.50879  0.70845  0.80297  1.0000
  H   H2921     1.0  0.77849  0.63747  0.78402  1.0000
  H   H2922     1.0  0.81645  0.52503  0.77632  1.0000
  H   H2923     1.0  0.76128  0.67729  0.74501  1.0000
  H   H2924     1.0  0.97593  0.54953  0.70292  1.0000
  C   C1723     1.0  0.93958  0.64084  0.78031  1.0000
  H   H2925     1.0  0.91660  0.56638  0.69877  1.0000
  C   C1724     1.0  0.91060  0.55441  0.69737  1.0000
  C   C1725     1.0  0.98101  0.48347  0.69961  1.0000
  C   C1726     1.0  0.88870  0.71239  0.65152  1.0000
  H   H2926     1.0  0.65816  0.71066  0.88684  1.0000
  C   C1727     1.0  0.78962  0.66697  0.79202  1.0000
  H   H2927     1.0  0.79935  0.67953  0.81190  1.0000
  H   H2928     1.0  0.78612  0.56148  0.94178  1.0000
  C   C1728     1.0  0.75681  0.53484  0.82898  1.0000
  H   H2929     1.0  0.92994  0.67698  0.73295  1.0000
  C   C1729     1.0  0.80487  0.50768  0.76236  1.0000
  C   C1730     1.0  0.95585  0.50948  0.72674  1.0000
  H   H2930     1.0  0.80942  0.64742  0.76287  1.0000
  N   N122      1.0  0.70528  0.69863  0.89728  1.0000
  C   C1731     1.0  0.71866  0.67952  0.89703  1.0000
  H   H2931     1.0  0.98659  0.60107  0.65751  1.0000
  C   C1732     1.0  0.68641  0.69641  0.89286  1.0000
  C   C1733     1.0  0.70244  0.70383  0.91665  1.0000
  C   C1734     1.0  0.71172  0.66226  0.91114  1.0000
  C   C1735     1.0  0.71260  0.71235  0.96570  1.0000
  C   C1736     1.0  0.98858  0.50042  0.68556  1.0000
  C   C1737     1.0  0.83554  0.49228  0.79554  1.0000
  H   H2932     1.0  0.72180  0.67565  0.88261  1.0000
  H   H2933     1.0  0.73289  0.68019  0.90021  1.0000
  C   C1738     1.0  0.97700  0.49979  0.72743  1.0000
  H   H2934     1.0  0.96179  0.57174  0.68191  1.0000
  H   H2935     1.0  0.69959  0.55032  0.78363  1.0000
  H   H2936     1.0  0.67950  0.68572  0.90396  1.0000
  H   H2937     1.0  0.69222  0.69541  0.92693  1.0000
  H   H2938     1.0  0.49585  0.48491  0.95100  1.0000
  H   H2939     1.0  0.69957  0.65789  0.90699  1.0000
  H   H2940     1.0  0.72373  0.64978  0.91092  1.0000
  H   H2941     1.0  0.70784  0.66488  0.92593  1.0000
  C   C1739     1.0  0.50111  0.70969  0.82406  1.0000
  C   C1740     1.0  0.71453  0.71283  0.88170  1.0000
  C   C1741     1.0  0.98548  0.64137  0.70169  1.0000
  H   H2942     1.0  0.80673  0.50322  0.74844  1.0000
  H   H2943     1.0  0.77876  0.49908  0.90041  1.0000
  C   C1742     1.0  0.86798  0.49621  0.73414  1.0000
  C   C1743     1.0  0.70181  0.54248  0.79803  1.0000
  H   H2944     1.0  0.71629  0.69958  0.92221  1.0000
  C   C1744     1.0  0.77369  0.48574  0.90668  1.0000
  N   N123      1.0  0.75476  0.55875  0.92180  1.0000
  C   C1745     1.0  0.75422  0.54328  0.91109  1.0000
  C   C1746     1.0  0.76858  0.57120  0.90951  1.0000
  C   C1747     1.0  0.73478  0.57064  0.92453  1.0000
  H   H2945     1.0  0.95452  0.62751  0.74707  1.0000
  C   C1748     1.0  0.73893  0.53042  0.92002  1.0000
  C   C1749     1.0  0.78890  0.56052  0.90232  1.0000
  C   C1750     1.0  0.73211  0.58816  0.93416  1.0000
  C   C1751     1.0  0.50682  0.67525  0.83676  1.0000
  H   H2946     1.0  0.75181  0.54962  0.89637  1.0000
  H   H2947     1.0  0.76835  0.53336  0.90958  1.0000
  H   H2948     1.0  0.77063  0.58225  0.91688  1.0000
  H   H2949     1.0  0.76249  0.57944  0.89683  1.0000
  H   H2950     1.0  0.72988  0.57591  0.91059  1.0000
  H   H2951     1.0  0.87686  0.50740  0.73254  1.0000
  H   H2952     1.0  0.95939  0.59306  0.75560  1.0000
  H   H2953     1.0  0.87967  0.72176  0.66079  1.0000
  C   C1752     1.0  0.95064  0.60178  0.76620  1.0000
  H   H2954     1.0  0.95419  0.64330  0.77255  1.0000
  H   H2955     1.0  0.73941  0.52466  0.93519  1.0000
  H   H2956     1.0  0.73653  0.51850  0.78761  1.0000
  C   C1753     1.0  0.85402  0.54066  0.74891  1.0000
  C   C1754     1.0  0.50310  0.65877  0.85366  1.0000
  H   H2957     1.0  0.73258  0.58367  0.94950  1.0000
  H   H2958     1.0  0.71747  0.59665  0.93318  1.0000
  H   H2959     1.0  0.94473  0.65486  0.72894  1.0000
  H   H2960     1.0  0.96748  0.55445  0.66668  1.0000
  C   C1755     1.0  0.96941  0.56907  0.66757  1.0000
  C   C1756     1.0  0.77121  0.56085  0.94958  1.0000
  H   H2961     1.0  0.98585  0.50015  0.67128  1.0000
  C   C1757     1.0  0.89638  0.63902  0.79089  1.0000
  H   H2962     1.0  0.71178  0.49423  0.81729  1.0000
  H   H2963     1.0  0.90346  0.62330  0.76775  1.0000
  N   N124      1.0  0.70562  0.52114  0.79841  1.0000
  H   H2964     1.0  0.68978  0.49922  0.79712  1.0000
  H   H2965     1.0  0.72193  0.52713  0.76985  1.0000
  H   H2966     1.0  0.96085  0.60334  0.77491  1.0000
  H   H2967     1.0  0.53470  0.72982  0.96771  1.0000
  Fe  Fe250     1.0  0.76248  0.48771  0.82446  1.0000
  H   H2968     1.0  0.77242  0.55345  0.96428  1.0000
  C   C1758     1.0  0.89208  0.69246  0.65805  1.0000
  N   N125      1.0  0.84092  0.50872  0.76024  1.0000
  H   H2969     1.0  0.72777  0.71235  0.95827  1.0000
  S   S496      1.0  0.90641  0.65500  0.65266  1.0000
  H   H2970     1.0  0.77061  0.53547  0.93964  1.0000
  C   C1759     1.0  0.94242  0.62689  0.79909  1.0000
  H   H2971     1.0  0.66500  0.71932  0.90484  1.0000
  H   H2972     1.0  0.78894  0.69706  0.79421  1.0000
  H   H2973     1.0  0.84351  0.55238  0.75491  1.0000
  H   H2974     1.0  0.91234  0.64944  0.74529  1.0000
  H   H2975     1.0  0.95041  0.50742  0.71447  1.0000
  H   H2976     1.0  0.77076  0.63108  0.96878  1.0000
  H   H2977     1.0  0.71334  0.56613  0.80281  1.0000
  H   H2978     1.0  0.68825  0.54723  0.80751  1.0000
  H   H2979     1.0  0.83864  0.49206  0.73977  1.0000
  H   H2980     1.0  0.98283  0.59215  0.68203  1.0000
  S   S497      1.0  0.76408  0.51872  0.81289  1.0000
  H   H2981     1.0  0.74167  0.51595  0.85116  1.0000
  H   H2982     1.0  0.88935  0.51108  0.69256  1.0000
  H   H2983     1.0  0.93838  0.61274  0.80057  1.0000
  H   H2984     1.0  0.72420  0.53813  0.91823  1.0000
  H   H2985     1.0  0.72470  0.51137  0.81918  1.0000
  C   C1760     1.0  0.68876  0.51510  0.79337  1.0000
  C   C1761     1.0  0.73433  0.71621  0.88395  1.0000
  C   C1762     1.0  0.92157  0.65285  0.75408  1.0000
  C   C1763     1.0  0.71025  0.50982  0.81714  1.0000
  H   H2986     1.0  0.88510  0.63059  0.79898  1.0000
  C   C1764     1.0  0.71766  0.55038  0.80366  1.0000
  H   H2987     1.0  0.84153  0.51568  0.72970  1.0000
  H   H2988     1.0  0.79530  0.65873  0.74455  1.0000
  S   S498      1.0  0.93115  0.50149  0.68454  1.0000
  C   C1765     1.0  0.76073  0.54942  0.94066  1.0000
  N   N126      1.0  0.92877  0.63512  0.76748  1.0000
  C   C1766     1.0  0.72311  0.51680  0.78335  1.0000
  C   C1767     1.0  0.82039  0.51930  0.76281  1.0000
  H   H2989     1.0  0.51232  0.65803  0.86426  1.0000
  H   H2990     1.0  0.79468  0.54931  0.91352  1.0000
  H   H2991     1.0  0.98278  0.65649  0.69584  1.0000
  H   H2992     1.0  0.68515  0.50386  0.83898  1.0000
  H   H2993     1.0  0.95789  0.62421  0.80049  1.0000
  H   H2994     1.0  0.67997  0.72729  0.83490  1.0000
  H   H2995     1.0  0.99043  0.56662  0.70434  1.0000
  H   H2996     1.0  0.51816  0.69454  0.80097  1.0000
  H   H2997     1.0  0.65764  0.51671  0.79875  1.0000
  C   C1768     1.0  0.84321  0.49046  0.77456  1.0000
  H   H2998     1.0  0.70519  0.72703  0.87960  1.0000
  H   H2999     1.0  0.84342  0.50124  0.80056  1.0000
  H   H3000     1.0  0.97845  0.49748  0.74257  1.0000
  S   S499      1.0  0.77723  0.49355  0.94052  1.0000
  C   C1769     1.0  0.70245  0.73305  0.96794  1.0000
  Fe  Fe251     1.0  0.76160  0.49241  0.97084  1.0000
  H   H3001     1.0  0.51768  0.71981  0.79672  1.0000
  H   H3002     1.0  0.72764  0.48508  0.79083  1.0000
  H   H3003     1.0  0.96562  0.48527  0.69857  1.0000
  C   C1770     1.0  0.72710  0.49656  0.77825  1.0000
  H   H3004     1.0  0.73822  0.72887  0.87341  1.0000
  H   H3005     1.0  0.70530  0.70654  0.95686  1.0000
  H   H3006     1.0  0.74593  0.70394  0.88086  1.0000
  H   H3007     1.0  0.51373  0.71124  0.82980  1.0000
  H   H3008     1.0  0.81980  0.49778  0.79838  1.0000
  H   H3009     1.0  0.98069  0.51430  0.68941  1.0000
  C   C1771     1.0  0.99067  0.55308  0.69963  1.0000
  C   C1772     1.0  0.99235  0.60241  0.71690  1.0000
  H   H3010     1.0  0.70646  0.73146  0.92161  1.0000
  C   C1773     1.0  0.99217  0.58932  0.66847  1.0000
  H   H3011     1.0  0.55734  0.75732  0.09049  1.0000
  Fe  Fe252     1.0  0.63630  0.92383  0.28620  1.0000
  C   C1774     1.0  0.54308  0.74979  0.19173  1.0000
  Fe  Fe253     1.0  0.64341  0.88407  0.27487  1.0000
  H   H3012     1.0  0.70602  0.96119  0.26898  1.0000
  S   S500      1.0  0.65443  0.86786  0.25017  1.0000
  H   H3013     1.0  0.67779  0.74392  0.17228  1.0000
  H   H3014     1.0  0.57453  0.90613  0.27621  1.0000
  H   H3015     1.0  0.57677  0.88336  0.25888  1.0000
  C   C1775     1.0  0.69013  0.78800  0.21012  1.0000
  S   S501      1.0  0.61775  0.90777  0.27657  1.0000
  S   S502      1.0  0.66283  0.90151  0.28149  1.0000
  Fe  Fe254     1.0  0.60177  0.76740  0.19427  1.0000
  S   S503      1.0  0.60045  0.79743  0.17854  1.0000
  S   S504      1.0  0.57516  0.75400  0.20338  1.0000
  Fe  Fe255     1.0  0.64389  0.76318  0.19827  1.0000
  S   S505      1.0  0.64595  0.79321  0.18284  1.0000
  H   H3016     1.0  0.54409  0.89717  0.28241  1.0000
  Fe  Fe256     1.0  0.61657  0.80184  0.19999  1.0000
  S   S506      1.0  0.60337  0.82571  0.21705  1.0000
  Fe  Fe257     1.0  0.62955  0.78608  0.16287  1.0000
  S   S507      1.0  0.63883  0.79163  0.13107  1.0000
  S   S508      1.0  0.61577  0.77231  0.21686  1.0000
  S   S509      1.0  0.62971  0.75545  0.17718  1.0000
  C   C1776     1.0  0.56437  0.88572  0.25143  1.0000
  H   H3017     1.0  0.58167  0.75377  0.99482  1.0000
  C   C1777     1.0  0.56138  0.75496  0.18599  1.0000
  H   H3018     1.0  0.56192  0.76588  0.13834  1.0000
  S   S510      1.0  0.62221  0.74300  0.01482  1.0000
  C   C1778     1.0  0.53821  0.75650  0.15908  1.0000
  C   C1779     1.0  0.55666  0.76142  0.15325  1.0000
  C   C1780     1.0  0.56817  0.76088  0.16671  1.0000
  C   C1781     1.0  0.51691  0.83642  0.18222  1.0000
  S   S511      1.0  0.52980  0.84662  0.29577  1.0000
  H   H3019     1.0  0.51056  0.78187  0.20535  1.0000
  H   H3020     1.0  0.58226  0.76499  0.16220  1.0000
  H   H3021     1.0  0.54380  0.75109  0.99625  1.0000
  C   C1782     1.0  0.50449  0.78408  0.09363  1.0000
  H   H3022     1.0  0.56043  0.77811  0.98490  1.0000
  H   H3023     1.0  0.56658  0.80850  0.22654  1.0000
  S   S512      1.0  0.58172  0.79139  0.07601  1.0000
  H   H3024     1.0  0.68996  0.77447  0.20543  1.0000
  C   C1783     1.0  0.58244  0.74131  0.98808  1.0000
  H   H3025     1.0  0.51269  0.74215  0.08634  1.0000
  H   H3026     1.0  0.51811  0.76397  0.05339  1.0000
  C   C1784     1.0  0.65299  0.79902  0.25501  1.0000
  H   H3027     1.0  0.55270  0.87838  0.26050  1.0000
  H   H3028     1.0  0.51837  0.91534  0.30207  1.0000
  H   H3029     1.0  0.63307  0.77830  0.25966  1.0000
  C   C1785     1.0  0.53690  0.77576  0.07370  1.0000
  C   C1786     1.0  0.55095  0.83544  0.24491  1.0000
  H   H3030     1.0  0.54956  0.81385  0.18774  1.0000
  H   H3031     1.0  0.73356  0.94179  0.28405  1.0000
  C   C1787     1.0  0.63954  0.85730  0.24060  1.0000
  C   C1788     1.0  0.62029  0.85652  0.24899  1.0000
  C   C1789     1.0  0.60922  0.84715  0.24141  1.0000
  C   C1790     1.0  0.61739  0.83819  0.22562  1.0000
  C   C1791     1.0  0.63647  0.83935  0.21700  1.0000
  C   C1792     1.0  0.64748  0.84892  0.22442  1.0000
  H   H3032     1.0  0.61400  0.86300  0.26140  1.0000
  H   H3033     1.0  0.59436  0.84670  0.24798  1.0000
  H   H3034     1.0  0.64268  0.83306  0.20447  1.0000
  H   H3035     1.0  0.66225  0.84977  0.21766  1.0000
  H   H3036     1.0  0.55507  0.83983  0.15092  1.0000
  C   C1793     1.0  0.52945  0.92282  0.29204  1.0000
  S   S513      1.0  0.61040  0.74622  0.05994  1.0000
  H   H3037     1.0  0.54754  0.86144  0.22393  1.0000
  H   H3038     1.0  0.71035  0.92560  0.28670  1.0000
  H   H3039     1.0  0.52572  0.85225  0.23242  1.0000
  H   H3040     1.0  0.65571  0.75735  0.10732  1.0000
  H   H3041     1.0  0.52891  0.79298  0.98364  1.0000
  H   H3042     1.0  0.57078  0.84675  0.28760  1.0000
  H   H3043     1.0  0.53357  0.75421  0.10033  1.0000
  H   H3044     1.0  0.56820  0.91213  0.23293  1.0000
  H   H3045     1.0  0.68420  0.76070  0.00249  1.0000
  C   C1794     1.0  0.51264  0.80190  0.06181  1.0000
  N   N127      1.0  0.69297  0.73642  0.98764  1.0000
  H   H3046     1.0  0.53612  0.79828  0.03711  1.0000
  C   C1795     1.0  0.62921  0.79360  0.09650  1.0000
  C   C1796     1.0  0.62236  0.79257  0.11601  1.0000
  C   C1797     1.0  0.60281  0.79180  0.12308  1.0000
  C   C1798     1.0  0.59029  0.79195  0.11065  1.0000
  H   H3047     1.0  0.64426  0.79438  0.09091  1.0000
  H   H3048     1.0  0.59740  0.79102  0.13808  1.0000
  H   H3049     1.0  0.57521  0.79138  0.11610  1.0000
  H   H3050     1.0  0.65915  0.76859  0.98358  1.0000
  H   H3051     1.0  0.53005  0.93845  0.24523  1.0000
  H   H3052     1.0  0.51752  0.79062  0.25463  1.0000
  H   H3053     1.0  0.50144  0.84056  0.18079  1.0000
  H   H3054     1.0  0.58351  0.81758  0.26230  1.0000
  C   C1799     1.0  0.54154  0.84795  0.22829  1.0000
  H   H3055     1.0  0.69129  0.79932  0.19728  1.0000
  C   C1800     1.0  0.53147  0.75074  0.17835  1.0000
  H   H3056     1.0  0.50472  0.77007  0.10329  1.0000
  C   C1801     1.0  0.57056  0.91981  0.26649  1.0000
  H   H3057     1.0  0.70263  0.76384  0.98228  1.0000
  H   H3058     1.0  0.54486  0.84094  0.21568  1.0000
  C   C1802     1.0  0.69150  0.75402  0.24806  1.0000
  H   H3059     1.0  0.52167  0.79153  0.17237  1.0000
  S   S514      1.0  0.62105  0.78405  0.02851  1.0000
  H   H3060     1.0  0.59681  0.95042  0.30240  1.0000
  C   C1803     1.0  0.54338  0.75677  0.08662  1.0000
  C   C1804     1.0  0.54178  0.75080  0.98170  1.0000
  N   N128      1.0  0.52642  0.82027  0.17156  1.0000
  H   H3061     1.0  0.54023  0.85262  0.17992  1.0000
  H   H3062     1.0  0.68982  0.82115  0.22878  1.0000
  H   H3063     1.0  0.51982  0.81190  0.06633  1.0000
  C   C1805     1.0  0.52025  0.80290  0.04032  1.0000
  H   H3064     1.0  0.54549  0.74443  0.07921  1.0000
  H   H3065     1.0  0.50922  0.81228  0.09686  1.0000
  H   H3066     1.0  0.58453  0.79408  0.27579  1.0000
  Fe  Fe258     1.0  0.63414  0.75309  0.03611  1.0000
  C   C1806     1.0  0.68916  0.75774  0.98772  1.0000
  H   H3067     1.0  0.59678  0.75098  0.10155  1.0000
  N   N129      1.0  0.51553  0.78224  0.07398  1.0000
  C   C1807     1.0  0.51136  0.79710  0.10396  1.0000
  H   H3068     1.0  0.70821  0.98215  0.27753  1.0000
  H   H3069     1.0  0.63205  0.79603  0.23815  1.0000
  H   H3070     1.0  0.54394  0.90801  0.23835  1.0000
  H   H3071     1.0  0.67717  0.82546  0.25207  1.0000
  H   H3072     1.0  0.57203  0.81802  0.14964  1.0000
  H   H3073     1.0  0.54356  0.78704  0.07669  1.0000
  C   C1808     1.0  0.52292  0.82607  0.15138  1.0000
  H   H3074     1.0  0.55276  0.79936  0.17042  1.0000
  S   S515      1.0  0.50590  0.88168  0.25890  1.0000
  H   H3075     1.0  0.69827  0.75562  0.23296  1.0000
  H   H3076     1.0  0.65320  0.79699  0.27048  1.0000
  C   C1809     1.0  0.67400  0.77015  0.97608  1.0000
  C   C1810     1.0  0.55636  0.80635  0.26803  1.0000
  C   C1811     1.0  0.57861  0.80379  0.26370  1.0000
  C   C1812     1.0  0.51636  0.79900  0.26595  1.0000
  H   H3077     1.0  0.55279  0.79210  0.27469  1.0000
  H   H3078     1.0  0.55131  0.81489  0.27964  1.0000
  H   H3079     1.0  0.60690  0.73596  0.15750  1.0000
  C   C1813     1.0  0.56407  0.85686  0.29700  1.0000
  C   C1814     1.0  0.63849  0.74201  0.09584  1.0000
  H   H3080     1.0  0.62170  0.80253  0.26063  1.0000
  H   H3081     1.0  0.52558  0.86150  0.16139  1.0000
  C   C1815     1.0  0.52467  0.81758  0.25807  1.0000
  N   N130      1.0  0.67148  0.78863  0.24484  1.0000
  H   H3082     1.0  0.66016  0.78738  0.22016  1.0000
  C   C1816     1.0  0.68794  0.79481  0.25039  1.0000
  C   C1817     1.0  0.67188  0.76742  0.25169  1.0000
  C   C1818     1.0  0.50118  0.75105  0.07887  1.0000
  N   N131      1.0  0.55220  0.91984  0.25968  1.0000
  C   C1819     1.0  0.68922  0.81629  0.24424  1.0000
  H   H3083     1.0  0.51289  0.79462  0.03385  1.0000
  H   H3084     1.0  0.65135  0.81471  0.24993  1.0000
  H   H3085     1.0  0.55751  0.74121  0.03079  1.0000
  H   H3086     1.0  0.70217  0.78686  0.24476  1.0000
  H   H3087     1.0  0.68703  0.79129  0.26607  1.0000
  H   H3088     1.0  0.66675  0.76444  0.26730  1.0000
  H   H3089     1.0  0.66169  0.76224  0.24526  1.0000
  H   H3090     1.0  0.55691  0.94594  0.27986  1.0000
  C   C1820     1.0  0.72618  0.95528  0.28924  1.0000
  H   H3091     1.0  0.52767  0.83975  0.14430  1.0000
  H   H3092     1.0  0.52191  0.93749  0.28744  1.0000
  H   H3093     1.0  0.67490  0.78549  0.97472  1.0000
  C   C1821     1.0  0.52556  0.85492  0.17646  1.0000
  H   H3094     1.0  0.58891  0.73909  0.12538  1.0000
  H   H3095     1.0  0.52433  0.79921  0.14129  1.0000
  H   H3096     1.0  0.52523  0.90943  0.27009  1.0000
  H   H3097     1.0  0.53762  0.94939  0.26070  1.0000
  C   C1822     1.0  0.51804  0.79446  0.20115  1.0000
  C   C1823     1.0  0.64137  0.96989  0.28832  1.0000
  H   H3098     1.0  0.62236  0.79377  0.06920  1.0000
  C   C1824     1.0  0.53230  0.81133  0.13825  1.0000
  H   H3099     1.0  0.54891  0.77711  0.23037  1.0000
  H   H3100     1.0  0.51084  0.80421  0.21126  1.0000
  H   H3101     1.0  0.68490  0.92952  0.28976  1.0000
  H   H3102     1.0  0.57536  0.92999  0.29073  1.0000
  H   H3103     1.0  0.56950  0.87860  0.23883  1.0000
  Fe  Fe259     1.0  0.60664  0.77330  0.00926  1.0000
  H   H3104     1.0  0.53778  0.74516  0.20661  1.0000
  C   C1825     1.0  0.51619  0.80348  0.18042  1.0000
  H   H3105     1.0  0.59084  0.86587  0.29717  1.0000
  C   C1826     1.0  0.55264  0.80475  0.23504  1.0000
  C   C1827     1.0  0.61682  0.79328  0.08417  1.0000
  H   H3106     1.0  0.49448  0.77671  0.05948  1.0000
  S   S516      1.0  0.63443  0.95562  0.27514  1.0000
  H   H3107     1.0  0.54905  0.96469  0.22983  1.0000
  H   H3108     1.0  0.51715  0.83200  0.19761  1.0000
  S   S517      1.0  0.52345  0.75818  0.14228  1.0000
  C   C1828     1.0  0.71609  0.96839  0.27337  1.0000
  H   H3109     1.0  0.58501  0.79744  0.25083  1.0000
  H   H3110     1.0  0.70270  0.81879  0.24765  1.0000
  C   C1829     1.0  0.55577  0.78259  0.23984  1.0000
  Fe  Fe260     1.0  0.59629  0.77637  0.05136  1.0000
  C   C1830     1.0  0.56172  0.82668  0.15949  1.0000
  H   H3111     1.0  0.54977  0.77636  0.25441  1.0000
  N   N132      1.0  0.54623  0.81549  0.25145  1.0000
  H   H3112     1.0  0.70165  0.75579  0.25677  1.0000
  H   H3113     1.0  0.53161  0.81830  0.12333  1.0000
  S   S518      1.0  0.49521  0.76604  0.01316  1.0000
  C   C1831     1.0  0.55639  0.94970  0.23384  1.0000
  H   H3114     1.0  0.51680  0.82500  0.24632  1.0000
  C   C1832     1.0  0.59734  0.79239  0.09121  1.0000
  C   C1833     1.0  0.59488  0.73697  0.11059  1.0000
  H   H3115     1.0  0.70353  0.78654  0.21570  1.0000
  H   H3116     1.0  0.52001  0.82673  0.26922  1.0000
  C   C1834     1.0  0.55688  0.90719  0.24479  1.0000
  C   C1835     1.0  0.54753  0.81433  0.17301  1.0000
  H   H3117     1.0  0.49734  0.74198  0.07030  1.0000
  H   H3118     1.0  0.56672  0.83490  0.24010  1.0000
  S   S519      1.0  0.58045  0.76849  0.03160  1.0000
  H   H3119     1.0  0.52312  0.74221  0.03039  1.0000
  H   H3120     1.0  0.58292  0.92011  0.25440  1.0000
  H   H3121     1.0  0.57056  0.83127  0.16785  1.0000
  H   H3122     1.0  0.50070  0.80284  0.27151  1.0000
  H   H3123     1.0  0.72716  0.97181  0.26065  1.0000
  H   H3124     1.0  0.62747  0.75508  0.09354  1.0000
  H   H3125     1.0  0.53329  0.78904  0.20279  1.0000
  H   H3126     1.0  0.55900  0.94295  0.22110  1.0000
  H   H3127     1.0  0.57140  0.77649  0.23681  1.0000
  H   H3128     1.0  0.54213  0.80940  0.22511  1.0000
  H   H3129     1.0  0.66653  0.80945  0.21956  1.0000
  C   C1836     1.0  0.53768  0.91157  0.27564  1.0000
  H   H3130     1.0  0.54697  0.84361  0.25684  1.0000
  H   H3131     1.0  0.49700  0.80835  0.06342  1.0000
  H   H3132     1.0  0.52663  0.79199  0.10577  1.0000
  H   H3133     1.0  0.61608  0.75212  0.12729  1.0000
  C   C1837     1.0  0.54317  0.93941  0.25055  1.0000
  H   H3134     1.0  0.54447  0.77383  0.05921  1.0000
  H   H3135     1.0  0.78724  0.73465  0.08435  1.0000
  H   H3136     1.0  0.51708  0.81803  0.03314  1.0000
  C   C1838     1.0  0.63406  0.79338  0.25310  1.0000
  H   H3137     1.0  0.64086  0.73577  0.08277  1.0000
  C   C1839     1.0  0.67129  0.79383  0.22383  1.0000
  H   H3138     1.0  0.73819  0.96221  0.29038  1.0000
  H   H3139     1.0  0.54067  0.92296  0.30024  1.0000
  H   H3140     1.0  0.57035  0.95038  0.23753  1.0000
  H   H3141     1.0  0.52735  0.75969  0.98042  1.0000
  S   S520      1.0  0.60094  0.78825  0.98004  1.0000
  Fe  Fe261     1.0  0.50191  0.86417  0.28799  1.0000
  H   H3142     1.0  0.51644  0.86564  0.18493  1.0000
  H   H3143     1.0  0.72624  0.74719  0.99735  1.0000
  C   C1840     1.0  0.50752  0.76897  0.06554  1.0000
  H   H3144     1.0  0.50115  0.96962  0.26717  1.0000
  S   S521      1.0  0.66388  0.74292  0.04306  1.0000
  H   H3145     1.0  0.52276  0.79007  0.27805  1.0000
  C   C1841     1.0  0.57078  0.93624  0.27686  1.0000
  H   H3146     1.0  0.54769  0.80570  0.13905  1.0000
  H   H3147     1.0  0.58178  0.94496  0.26868  1.0000
  H   H3148     1.0  0.63900  0.74258  0.13274  1.0000
  C   C1842     1.0  0.69711  0.92785  0.29739  1.0000
  H   H3149     1.0  0.66123  0.75838  0.08236  1.0000
  H   H3150     1.0  0.51738  0.74678  0.18300  1.0000
  H   H3151     1.0  0.50710  0.82906  0.15112  1.0000
  H   H3152     1.0  0.50252  0.79664  0.11839  1.0000
  H   H3153     1.0  0.68910  0.73896  0.25238  1.0000
  H   H3154     1.0  0.68592  0.95787  0.29836  1.0000
  H   H3155     1.0  0.79795  0.73807  0.11551  1.0000
  S   S522      1.0  0.66716  0.74315  0.21292  1.0000
  H   H3156     1.0  0.57962  0.97382  0.28277  1.0000
  C   C1843     1.0  0.57544  0.86767  0.30238  1.0000
  C   C1844     1.0  0.65737  0.74879  0.09606  1.0000
  C   C1845     1.0  0.62606  0.73825  0.12999  1.0000
  Fe  Fe262     1.0  0.59706  0.73885  0.03829  1.0000
  C   C1846     1.0  0.54402  0.85946  0.30340  1.0000
  H   H3157     1.0  0.66420  0.73655  0.98292  1.0000
  H   H3158     1.0  0.92804  0.73597  0.30222  1.0000
  S   S523      1.0  0.63597  0.86957  0.30512  1.0000
  H   H3159     1.0  0.50047  0.80751  0.17985  1.0000
  H   H3160     1.0  0.66971  0.73681  0.09724  1.0000
  H   H3161     1.0  0.63443  0.75837  0.97355  1.0000
  C   C1847     1.0  0.69494  0.94580  0.30634  1.0000
  H   H3162     1.0  0.59766  0.73372  0.98675  1.0000
  H   H3163     1.0  0.66613  0.73401  0.00706  1.0000
  C   C1848     1.0  0.68870  0.73390  0.17916  1.0000
  C   C1849     1.0  0.64580  0.96247  0.30641  1.0000
  H   H3164     1.0  0.87143  0.75967  0.47131  1.0000
  H   H3165     1.0  0.66824  0.88777  0.39364  1.0000
  H   H3166     1.0  0.92129  0.77900  0.46974  1.0000
  Fe  Fe263     1.0  0.76686  0.93868  0.58270  1.0000
  S   S524      1.0  0.74222  0.94279  0.56728  1.0000
  S   S525      1.0  0.77196  0.96465  0.59224  1.0000
  Fe  Fe264     1.0  0.77726  0.89536  0.58185  1.0000
  S   S526      1.0  0.75266  0.89684  0.56670  1.0000
  S   S527      1.0  0.79408  0.86490  0.58819  1.0000
  Fe  Fe265     1.0  0.76236  0.92333  0.54886  1.0000
  S   S528      1.0  0.76939  0.93074  0.51696  1.0000
  Fe  Fe266     1.0  0.73496  0.91594  0.58695  1.0000
  S   S529      1.0  0.70329  0.91537  0.59955  1.0000
  S   S530      1.0  0.78782  0.92109  0.56286  1.0000
  S   S531      1.0  0.75865  0.91268  0.60351  1.0000
  H   H3167     1.0  0.98492  0.74070  0.50318  1.0000
  H   H3168     1.0  0.85548  0.87926  0.40749  1.0000
  C   C1850     1.0  0.69347  0.91352  0.36626  1.0000
  H   H3169     1.0  0.60488  0.96914  0.32054  1.0000
  H   H3170     1.0  0.72300  0.90433  0.63221  1.0000
  H   H3171     1.0  0.78749  0.86576  0.42247  1.0000
  H   H3172     1.0  0.94916  0.79193  0.44086  1.0000
  S   S532      1.0  0.58035  0.89489  0.32136  1.0000
  C   C1851     1.0  0.98905  0.76297  0.47919  1.0000
  H   H3173     1.0  0.68567  0.96073  0.34098  1.0000
  H   H3174     1.0  0.80560  0.81955  0.37896  1.0000
  H   H3175     1.0  0.85568  0.85511  0.41931  1.0000
  Fe  Fe267     1.0  0.72674  0.92012  0.39282  1.0000
  S   S533      1.0  0.75563  0.92557  0.37639  1.0000
  Fe  Fe268     1.0  0.74145  0.90996  0.43042  1.0000
  S   S534      1.0  0.77163  0.91468  0.41700  1.0000
  S   S535      1.0  0.73067  0.90065  0.46166  1.0000
  Fe  Fe269     1.0  0.75676  0.94086  0.39962  1.0000
  S   S536      1.0  0.76588  0.96984  0.39063  1.0000
  Fe  Fe270     1.0  0.76798  0.89891  0.39508  1.0000
  S   S537      1.0  0.79168  0.87740  0.38155  1.0000
  S   S538      1.0  0.72696  0.93740  0.41481  1.0000
  S   S539      1.0  0.73878  0.89217  0.40971  1.0000
  S   S540      1.0  0.87258  0.78644  0.39055  1.0000
  S   S541      1.0  0.88907  0.77920  0.43021  1.0000
  Fe  Fe271     1.0  0.86011  0.78614  0.42122  1.0000
  S   S542      1.0  0.83754  0.80930  0.43334  1.0000
  Fe  Fe272     1.0  0.90125  0.77675  0.39993  1.0000
  S   S543      1.0  0.92801  0.78768  0.38315  1.0000
  H   H3176     1.0  0.84510  0.79052  0.36442  1.0000
  H   H3177     1.0  0.95864  0.74138  0.35288  1.0000
  C   C1852     1.0  0.94550  0.78768  0.39662  1.0000
  C   C1853     1.0  0.94008  0.78858  0.41587  1.0000
  H   H3178     1.0  0.91611  0.76307  0.49144  1.0000
  C   C1854     1.0  0.78858  0.77708  0.38512  1.0000
  H   H3179     1.0  0.66958  0.96524  0.63155  1.0000
  C   C1855     1.0  0.96493  0.78727  0.38801  1.0000
  H   H3180     1.0  0.92527  0.78883  0.42265  1.0000
  C   C1856     1.0  0.83674  0.79774  0.62644  1.0000
  C   C1857     1.0  0.70829  0.96934  0.31675  1.0000
  H   H3181     1.0  0.96923  0.78685  0.37304  1.0000
  C   C1858     1.0  0.80494  0.85921  0.39617  1.0000
  C   C1859     1.0  0.82075  0.84695  0.38779  1.0000
  C   C1860     1.0  0.83092  0.83159  0.39902  1.0000
  C   C1861     1.0  0.82546  0.82858  0.41873  1.0000
  C   C1862     1.0  0.80994  0.84111  0.42713  1.0000
  C   C1863     1.0  0.79965  0.85635  0.41589  1.0000
  H   H3182     1.0  0.82493  0.84919  0.37252  1.0000
  H   H3183     1.0  0.84286  0.82209  0.39240  1.0000
  H   H3184     1.0  0.71133  0.96292  0.53430  1.0000
  S   S544      1.0  0.62827  0.91227  0.31706  1.0000
  C   C1864     1.0  0.67523  0.90931  0.63095  1.0000
  C   C1865     1.0  0.88671  0.83383  0.37644  1.0000
  H   H3185     1.0  0.80567  0.83887  0.44239  1.0000
  H   H3186     1.0  0.96622  0.74254  0.46281  1.0000
  H   H3187     1.0  0.93264  0.73682  0.50659  1.0000
  H   H3188     1.0  0.92101  0.86778  0.40355  1.0000
  C   C1866     1.0  0.70477  0.89582  0.36349  1.0000
  H   H3189     1.0  0.82731  0.79352  0.39264  1.0000
  Fe  Fe273     1.0  0.88608  0.74862  0.43339  1.0000
  H   H3190     1.0  0.86015  0.82466  0.60822  1.0000
  H   H3191     1.0  0.92420  0.82795  0.39296  1.0000
  C   C1867     1.0  0.74295  0.93840  0.32479  1.0000
  C   C1868     1.0  0.75850  0.92188  0.50207  1.0000
  C   C1869     1.0  0.76365  0.92731  0.48241  1.0000
  C   C1870     1.0  0.75502  0.92100  0.46998  1.0000
  C   C1871     1.0  0.74136  0.90898  0.47711  1.0000
  C   C1872     1.0  0.73620  0.90350  0.49681  1.0000
  C   C1873     1.0  0.74470  0.91000  0.50930  1.0000
  H   H3192     1.0  0.77432  0.93651  0.47673  1.0000
  H   H3193     1.0  0.75897  0.92545  0.45486  1.0000
  H   H3194     1.0  0.72557  0.89425  0.50241  1.0000
  H   H3195     1.0  0.74054  0.90589  0.52446  1.0000
  H   H3196     1.0  0.70191  0.96610  0.50487  1.0000
  H   H3197     1.0  0.90557  0.84273  0.43143  1.0000
  H   H3198     1.0  0.96279  0.74791  0.41127  1.0000
  N   N133      1.0  0.86886  0.80410  0.63257  1.0000
  H   H3199     1.0  0.82974  0.81216  0.35493  1.0000
  N   N134      1.0  0.89602  0.84203  0.40544  1.0000
  C   C1874     1.0  0.68290  0.89144  0.34400  1.0000
  C   C1875     1.0  0.95373  0.79002  0.42629  1.0000
  H   H3200     1.0  0.79106  0.81616  0.36380  1.0000
  H   H3201     1.0  0.79414  0.77769  0.42154  1.0000
  C   C1876     1.0  0.85775  0.83866  0.56938  1.0000
  C   C1877     1.0  0.84339  0.82728  0.57497  1.0000
  C   C1878     1.0  0.82398  0.83563  0.58048  1.0000
  C   C1879     1.0  0.81863  0.85547  0.58020  1.0000
  C   C1880     1.0  0.83293  0.86692  0.57425  1.0000
  C   C1881     1.0  0.85238  0.85854  0.56887  1.0000
  H   H3202     1.0  0.84725  0.81201  0.57532  1.0000
  H   H3203     1.0  0.81304  0.82664  0.58510  1.0000
  H   H3204     1.0  0.82907  0.88218  0.57418  1.0000
  H   H3205     1.0  0.86338  0.86748  0.56461  1.0000
  H   H3206     1.0  0.90091  0.82824  0.36827  1.0000
  C   C1882     1.0  0.98014  0.76747  0.57260  1.0000
  H   H3207     1.0  0.76356  0.82155  0.38501  1.0000
  C   C1883     1.0  0.77539  0.78009  0.37029  1.0000
  H   H3208     1.0  0.58843  0.93909  0.32621  1.0000
  H   H3209     1.0  0.77023  0.97591  0.51104  1.0000
  H   H3210     1.0  0.77890  0.77834  0.39884  1.0000
  C   C1884     1.0  0.69882  0.96722  0.33789  1.0000
  H   H3211     1.0  0.74092  0.95115  0.33151  1.0000
  H   H3212     1.0  0.87141  0.82192  0.43595  1.0000
  C   C1885     1.0  0.92702  0.76524  0.47835  1.0000
  C   C1886     1.0  0.97317  0.78931  0.41785  1.0000
  C   C1887     1.0  0.69507  0.90911  0.62420  1.0000
  C   C1888     1.0  0.80571  0.78639  0.41615  1.0000
  C   C1889     1.0  0.58902  0.96940  0.32355  1.0000
  H   H3213     1.0  0.80804  0.79020  0.35033  1.0000
  C   C1890     1.0  0.67693  0.92017  0.35785  1.0000
  H   H3214     1.0  0.72123  0.97603  0.31523  1.0000
  S   S545      1.0  0.69940  0.92780  0.38013  1.0000
  H   H3215     1.0  0.83682  0.83339  0.63018  1.0000
  C   C1891     1.0  0.73202  0.97068  0.49326  1.0000
  H   H3216     1.0  0.70901  0.95888  0.34728  1.0000
  H   H3217     1.0  0.77015  0.96744  0.48954  1.0000
  H   H3218     1.0  0.87580  0.82688  0.37310  1.0000
  S   S546      1.0  0.87319  0.74931  0.53914  1.0000
  H   H3219     1.0  0.90303  0.73724  0.32814  1.0000
  C   C1892     1.0  0.87329  0.75606  0.50091  1.0000
  H   H3220     1.0  0.90839  0.81945  0.42609  1.0000
  S   S547      1.0  0.96245  0.75877  0.54620  1.0000
  H   H3221     1.0  0.82369  0.76944  0.39611  1.0000
  H   H3222     1.0  0.95498  0.77299  0.46926  1.0000
  H   H3223     1.0  0.91234  0.73499  0.36085  1.0000
  H   H3224     1.0  0.74487  0.96747  0.42941  1.0000
  H   H3225     1.0  0.85790  0.86100  0.39398  1.0000
  C   C1893     1.0  0.69876  0.96374  0.63467  1.0000
  H   H3226     1.0  0.88577  0.84148  0.59870  1.0000
  H   H3227     1.0  0.76899  0.79535  0.36627  1.0000
  S   S548      1.0  0.90929  0.78323  0.54136  1.0000
  S   S549      1.0  0.85583  0.75547  0.42700  1.0000
  H   H3228     1.0  0.91509  0.84968  0.37879  1.0000
  C   C1894     1.0  0.92876  0.85355  0.40050  1.0000
  S   S550      1.0  0.88255  0.82856  0.56374  1.0000
  N   N135      1.0  0.95821  0.74817  0.49149  1.0000
  H   H3229     1.0  0.88438  0.82248  0.45375  1.0000
  C   C1895     1.0  0.81592  0.78452  0.39577  1.0000
  H   H3230     1.0  0.88900  0.87115  0.39027  1.0000
  C   C1896     1.0  0.95692  0.74780  0.36571  1.0000
  H   H3231     1.0  0.94373  0.77754  0.49226  1.0000
  H   H3232     1.0  0.74095  0.97078  0.47883  1.0000
  C   C1897     1.0  0.65144  0.97420  0.31649  1.0000
  H   H3233     1.0  0.98294  0.77827  0.47481  1.0000
  H   H3234     1.0  0.57144  0.95338  0.31296  1.0000
  N   N136      1.0  0.80483  0.86384  0.52082  1.0000
  C   C1898     1.0  0.82252  0.86916  0.52498  1.0000
  C   C1899     1.0  0.81030  0.84366  0.51682  1.0000
  C   C1900     1.0  0.78970  0.86416  0.53854  1.0000
  C   C1901     1.0  0.79797  0.87827  0.50440  1.0000
  C   C1902     1.0  0.81961  0.88886  0.53099  1.0000
  C   C1903     1.0  0.82807  0.84007  0.50114  1.0000
  C   C1904     1.0  0.77028  0.85883  0.53789  1.0000
  C   C1905     1.0  0.78689  0.87143  0.49193  1.0000
  H   H3235     1.0  0.82861  0.85817  0.53633  1.0000
  H   H3236     1.0  0.83421  0.86953  0.51231  1.0000
  H   H3237     1.0  0.79820  0.83905  0.51283  1.0000
  H   H3238     1.0  0.81342  0.83336  0.52990  1.0000
  H   H3239     1.0  0.79544  0.85443  0.55081  1.0000
  H   H3240     1.0  0.78586  0.87865  0.54238  1.0000
  H   H3241     1.0  0.78854  0.89105  0.50958  1.0000
  H   H3242     1.0  0.81030  0.88396  0.49446  1.0000
  H   H3243     1.0  0.81156  0.88859  0.54568  1.0000
  H   H3244     1.0  0.83393  0.89231  0.53098  1.0000
  H   H3245     1.0  0.81218  0.90061  0.52128  1.0000
  H   H3246     1.0  0.84167  0.83827  0.50671  1.0000
  H   H3247     1.0  0.82821  0.82652  0.49630  1.0000
  H   H3248     1.0  0.82804  0.85176  0.48865  1.0000
  H   H3249     1.0  0.76173  0.87045  0.52903  1.0000
  H   H3250     1.0  0.76162  0.85747  0.55244  1.0000
  H   H3251     1.0  0.77181  0.84493  0.53332  1.0000
  H   H3252     1.0  0.79645  0.86117  0.48328  1.0000
  H   H3253     1.0  0.78120  0.88398  0.48177  1.0000
  H   H3254     1.0  0.77435  0.86499  0.50005  1.0000
  Fe  Fe274     1.0  0.89199  0.75993  0.55420  1.0000
  N   N137      1.0  0.80347  0.78997  0.38064  1.0000
  H   H3255     1.0  0.66807  0.93383  0.35999  1.0000
  H   H3256     1.0  0.84072  0.79403  0.34096  1.0000
  C   C1906     1.0  0.71250  0.96624  0.49153  1.0000
  C   C1907     1.0  0.53546  0.87246  0.31563  1.0000
  H   H3257     1.0  0.73901  0.95800  0.50234  1.0000
  C   C1908     1.0  0.88697  0.83055  0.61174  1.0000
  C   C1909     1.0  0.58619  0.95239  0.31556  1.0000
  H   H3258     1.0  0.77773  0.83028  0.39716  1.0000
  C   C1910     1.0  0.94583  0.74029  0.50959  1.0000
  C   C1911     1.0  0.88708  0.82883  0.39793  1.0000
  C   C1912     1.0  0.88442  0.86211  0.40417  1.0000
  C   C1913     1.0  0.97573  0.75324  0.49613  1.0000
  C   C1914     1.0  0.79476  0.81100  0.37824  1.0000
  H   H3259     1.0  0.64509  0.94767  0.31256  1.0000
  H   H3260     1.0  0.79580  0.76175  0.38688  1.0000
  C   C1915     1.0  0.67172  0.90924  0.34666  1.0000
  H   H3261     1.0  0.76491  0.97540  0.55344  1.0000
  C   C1916     1.0  0.96322  0.73448  0.47756  1.0000
  H   H3262     1.0  0.81645  0.78095  0.42574  1.0000
  C   C1917     1.0  0.88015  0.83057  0.44017  1.0000
  S   S551      1.0  0.98947  0.79245  0.43115  1.0000
  H   H3263     1.0  0.55351  0.98081  0.30964  1.0000
  H   H3264     1.0  0.87135  0.84440  0.44327  1.0000
  C   C1918     1.0  0.83385  0.79647  0.35552  1.0000
  H   H3265     1.0  0.94075  0.75128  0.51895  1.0000
  H   H3266     1.0  0.86494  0.78087  0.62038  1.0000
  C   C1919     1.0  0.95437  0.73731  0.40965  1.0000
  N   N138      1.0  0.67592  0.89745  0.43623  1.0000
  C   C1920     1.0  0.69147  0.88733  0.44767  1.0000
  C   C1921     1.0  0.67928  0.91780  0.42939  1.0000
  C   C1922     1.0  0.67865  0.88781  0.41930  1.0000
  C   C1923     1.0  0.65644  0.89603  0.44863  1.0000
  C   C1924     1.0  0.69233  0.86559  0.45461  1.0000
  C   C1925     1.0  0.67837  0.92940  0.44501  1.0000
  C   C1926     1.0  0.66377  0.89534  0.40597  1.0000
  C   C1927     1.0  0.63906  0.91134  0.44305  1.0000
  H   H3267     1.0  0.70601  0.88937  0.43949  1.0000
  H   H3268     1.0  0.68989  0.89357  0.46065  1.0000
  H   H3269     1.0  0.66924  0.92626  0.41994  1.0000
  H   H3270     1.0  0.69378  0.91791  0.42033  1.0000
  H   H3271     1.0  0.69326  0.88866  0.41052  1.0000
  H   H3272     1.0  0.67795  0.87233  0.42376  1.0000
  H   H3273     1.0  0.65271  0.88170  0.44945  1.0000
  H   H3274     1.0  0.65702  0.89701  0.46345  1.0000
  H   H3275     1.0  0.67808  0.86190  0.46178  1.0000
  H   H3276     1.0  0.69854  0.85744  0.44288  1.0000
  H   H3277     1.0  0.70225  0.86067  0.46510  1.0000
  H   H3278     1.0  0.66546  0.92829  0.45622  1.0000
  H   H3279     1.0  0.69159  0.92496  0.45151  1.0000
  H   H3280     1.0  0.67787  0.94476  0.43852  1.0000
  H   H3281     1.0  0.64928  0.89214  0.41296  1.0000
  H   H3282     1.0  0.66296  0.91080  0.40009  1.0000
  H   H3283     1.0  0.62619  0.90438  0.44543  1.0000
  H   H3284     1.0  0.64087  0.91872  0.42815  1.0000
  H   H3285     1.0  0.63510  0.92218  0.45250  1.0000
  C   C1928     1.0  0.70771  0.90458  0.63721  1.0000
  H   H3286     1.0  0.88002  0.80697  0.60250  1.0000
  C   C1929     1.0  0.77625  0.81723  0.39231  1.0000
  Fe  Fe275     1.0  0.89973  0.75787  0.59388  1.0000
  H   H3287     1.0  0.76328  0.77209  0.37634  1.0000
  H   H3288     1.0  0.90227  0.82321  0.61025  1.0000
  H   H3289     1.0  0.78323  0.77425  0.35742  1.0000
  H   H3290     1.0  0.74876  0.92585  0.33488  1.0000
  H   H3291     1.0  0.65496  0.96836  0.33042  1.0000
  H   H3292     1.0  0.97993  0.74835  0.38010  1.0000
  C   C1930     1.0  0.94664  0.76664  0.48286  1.0000
  Fe  Fe276     1.0  0.93087  0.76629  0.55966  1.0000
  Fe  Fe277     1.0  0.89427  0.79648  0.56691  1.0000
  C   C1931     1.0  0.89856  0.83355  0.42560  1.0000
  C   C1932     1.0  0.87855  0.75121  0.48271  1.0000
  C   C1933     1.0  0.97887  0.78756  0.39875  1.0000
  H   H3293     1.0  0.83694  0.80805  0.61296  1.0000
  H   H3294     1.0  0.54021  0.89279  0.33099  1.0000
  S   S552      1.0  0.87566  0.77414  0.57862  1.0000
  H   H3295     1.0  0.88346  0.83824  0.62388  1.0000
  H   H3296     1.0  0.93465  0.84494  0.41311  1.0000
  H   H3297     1.0  0.96603  0.77463  0.57841  1.0000
  H   H3298     1.0  0.71757  0.89059  0.36986  1.0000
  C   C1934     1.0  0.81633  0.78603  0.36220  1.0000
  H   H3299     1.0  0.83818  0.74725  0.60400  1.0000
  C   C1935     1.0  0.86222  0.86417  0.40647  1.0000
  Fe  Fe278     1.0  0.87032  0.75522  0.39659  1.0000
  H   H3300     1.0  0.70625  0.97645  0.47989  1.0000
  H   H3301     1.0  0.92806  0.74401  0.33965  1.0000
  H   H3302     1.0  0.65898  0.91450  0.34022  1.0000
  S   S553      1.0  0.91740  0.78152  0.58427  1.0000
  S   S554      1.0  0.85835  0.74757  0.37351  1.0000
  H   H3303     1.0  0.70814  0.87103  0.35043  1.0000
  H   H3304     1.0  0.69841  0.97894  0.63519  1.0000
  H   H3305     1.0  0.88729  0.86946  0.41490  1.0000
  H   H3306     1.0  0.88297  0.84944  0.37138  1.0000
  C   C1936     1.0  0.98224  0.75815  0.55727  1.0000
  C   C1937     1.0  0.69942  0.88478  0.35247  1.0000
  C   C1938     1.0  0.88214  0.74496  0.51589  1.0000
  H   H3307     1.0  0.86203  0.76819  0.50346  1.0000
  C   C1939     1.0  0.91596  0.84272  0.39373  1.0000
  H   H3308     1.0  0.82203  0.77039  0.36297  1.0000
  C   C1940     1.0  0.87334  0.81625  0.61331  1.0000
  S   S555      1.0  0.67672  0.87711  0.33030  1.0000
  H   H3309     1.0  0.97122  0.76312  0.50658  1.0000
  C   C1941     1.0  0.54690  0.88283  0.32143  1.0000
  S   S556      1.0  0.91454  0.74172  0.57039  1.0000
  H   H3310     1.0  0.87207  0.82802  0.40535  1.0000
  S   S557      1.0  0.89111  0.74512  0.62484  1.0000
  H   H3311     1.0  0.94151  0.74620  0.40412  1.0000
  H   H3312     1.0  0.98084  0.79790  0.52342  1.0000
  S   S558      1.0  0.90019  0.74559  0.40342  1.0000
  H   H3313     1.0  0.70334  0.96196  0.61959  1.0000
  H   H3314     1.0  0.71497  0.95174  0.48778  1.0000
  H   H3315     1.0  0.89505  0.81389  0.40074  1.0000
  H   H3316     1.0  0.66536  0.91274  0.62098  1.0000
  H   H3317     1.0  0.92821  0.75387  0.46997  1.0000
  H   H3318     1.0  0.71447  0.93103  0.33451  1.0000
  C   C1942     1.0  0.85703  0.78974  0.63122  1.0000
  H   H3319     1.0  0.68563  0.94289  0.32041  1.0000
  Fe  Fe279     1.0  0.65358  0.88875  0.31196  1.0000
  Fe  Fe280     1.0  0.61149  0.89452  0.30723  1.0000
  H   H3320     1.0  0.95906  0.76283  0.36029  1.0000
  H   H3321     1.0  0.89588  0.78461  0.62637  1.0000
  H   H3322     1.0  0.94145  0.85590  0.38917  1.0000
  H   H3323     1.0  0.80029  0.80158  0.41761  1.0000
  H   H3324     1.0  0.77285  0.80665  0.40520  1.0000
  H   H3325     1.0  0.72757  0.92177  0.31432  1.0000
  H   H3326     1.0  0.58576  0.96585  0.33929  1.0000
  H   H3327     1.0  0.89752  0.80283  0.63842  1.0000
  C   C1943     1.0  0.71063  0.97856  0.53321  1.0000
  H   H3328     1.0  0.55272  0.96950  0.34542  1.0000
  C   C1944     1.0  0.56684  0.88067  0.31464  1.0000
  H   H3329     1.0  0.52005  0.87442  0.32075  1.0000
  C   C1945     1.0  0.72390  0.93498  0.32072  1.0000
  C   C1946     1.0  0.76916  0.98029  0.49582  1.0000
  H   H3330     1.0  0.93961  0.73780  0.43866  1.0000
  C   C1947     1.0  0.97265  0.73728  0.37756  1.0000
  H   H3331     1.0  0.85053  0.73525  0.57484  1.0000
  H   H3332     1.0  0.75407  0.93965  0.31177  1.0000
  H   H3333     1.0  0.69693  0.91475  0.30844  1.0000
  H   H3334     1.0  0.83036  0.78572  0.62463  1.0000
  C   C1948     1.0  0.74785  0.98186  0.42433  1.0000
  H   H3335     1.0  0.72828  0.98207  0.37508  1.0000
  C   C1949     1.0  0.89241  0.73497  0.47953  1.0000
  H   H3336     1.0  0.69814  0.98038  0.30893  1.0000
  H   H3337     1.0  0.86244  0.73625  0.60509  1.0000
  H   H3338     1.0  0.94191  0.74840  0.37347  1.0000
  H   H3339     1.0  0.74113  0.97291  0.52651  1.0000
  H   H3340     1.0  0.69430  0.98167  0.34183  1.0000
  H   H3341     1.0  0.85046  0.84691  0.63882  1.0000
  N   N139      1.0  0.71338  0.95130  0.30828  1.0000
  H   H3342     1.0  0.82695  0.80418  0.63818  1.0000
  C   C1950     1.0  0.88790  0.79299  0.63763  1.0000
  H   H3343     1.0  0.85105  0.73365  0.34250  1.0000
  H   H3344     1.0  0.99237  0.75559  0.46684  1.0000
  H   H3345     1.0  0.70835  0.98179  0.54776  1.0000
  Fe  Fe281     1.0  0.59927  0.89378  0.70321  1.0000
  S   S559      1.0  0.58732  0.91088  0.72642  1.0000
  S   S560      1.0  0.57948  0.87711  0.69608  1.0000
  Fe  Fe282     1.0  0.64014  0.90083  0.70034  1.0000
  S   S561      1.0  0.63102  0.91805  0.72392  1.0000
  Fe  Fe283     1.0  0.61338  0.89519  0.73893  1.0000
  S   S562      1.0  0.60895  0.88376  0.77071  1.0000
  Fe  Fe284     1.0  0.60594  0.93190  0.70922  1.0000
  S   S563      1.0  0.59374  0.96357  0.70254  1.0000
  S   S564      1.0  0.62448  0.87691  0.71659  1.0000
  S   S565      1.0  0.61595  0.91593  0.68477  1.0000
  C   C1951     1.0  0.63246  0.82240  0.79804  1.0000
  H   H3346     1.0  0.67622  0.76706  0.96155  1.0000
  H   H3347     1.0  0.58533  0.81763  0.84963  1.0000
  H   H3348     1.0  0.58284  0.79188  0.83447  1.0000
  H   H3349     1.0  0.65526  0.91203  0.77152  1.0000
  H   H3350     1.0  0.70942  0.86600  0.75649  1.0000
  H   H3351     1.0  0.59123  0.82810  0.79245  1.0000
  C   C1952     1.0  0.88686  0.77898  0.65675  1.0000
  H   H3352     1.0  0.61161  0.78702  0.79946  1.0000
  C   C1953     1.0  0.55291  0.76007  0.94753  1.0000
  H   H3353     1.0  0.54448  0.82347  0.82082  1.0000
  N   N140      1.0  0.52314  0.91417  0.73981  1.0000
  C   C1954     1.0  0.52392  0.90968  0.67539  1.0000
  H   H3354     1.0  0.68585  0.93832  0.70455  1.0000
  H   H3355     1.0  0.58836  0.75494  0.95907  1.0000
  S   S566      1.0  0.61842  0.79044  0.86390  1.0000
  H   H3356     1.0  0.53024  0.95341  0.75326  1.0000
  H   H3357     1.0  0.69170  0.73747  0.95825  1.0000
  H   H3358     1.0  0.67236  0.96201  0.70106  1.0000
  Fe  Fe285     1.0  0.63797  0.76594  0.87869  1.0000
  H   H3359     1.0  0.53765  0.87446  0.75737  1.0000
  C   C1955     1.0  0.63674  0.76887  0.92552  1.0000
  C   C1956     1.0  0.66643  0.87018  0.74036  1.0000
  C   C1957     1.0  0.65051  0.95346  0.66762  1.0000
  H   H3360     1.0  0.53201  0.89038  0.72453  1.0000
  H   H3361     1.0  0.53933  0.81096  0.79178  1.0000
  H   H3362     1.0  0.56895  0.83931  0.80313  1.0000
  C   C1958     1.0  0.57647  0.82125  0.83828  1.0000
  C   C1959     1.0  0.67405  0.85654  0.77260  1.0000
  H   H3363     1.0  0.50273  0.76056  0.92010  1.0000
  H   H3364     1.0  0.62183  0.83247  0.82452  1.0000
  C   C1960     1.0  0.60826  0.98040  0.70236  1.0000
  Fe  Fe286     1.0  0.60098  0.76798  0.86416  1.0000
  H   H3365     1.0  0.56129  0.82126  0.84557  1.0000
  C   C1961     1.0  0.55854  0.88976  0.68735  1.0000
  C   C1962     1.0  0.55714  0.90897  0.67854  1.0000
  S   S567      1.0  0.67223  0.89680  0.68829  1.0000
  C   C1963     1.0  0.52529  0.89054  0.68438  1.0000
  C   C1964     1.0  0.54271  0.88049  0.68991  1.0000
  H   H3366     1.0  0.56935  0.91617  0.67642  1.0000
  C   C1965     1.0  0.52081  0.76843  0.85660  1.0000
  H   H3367     1.0  0.67862  0.90062  0.74551  1.0000
  H   H3368     1.0  0.57864  0.73383  0.96244  1.0000
  C   C1966     1.0  0.53826  0.89820  0.73260  1.0000
  N   N141      1.0  0.67929  0.86993  0.75422  1.0000
  H   H3369     1.0  0.65449  0.74898  0.94381  1.0000
  H   H3370     1.0  0.55555  0.74544  0.94403  1.0000
  Fe  Fe287     1.0  0.63686  0.73876  0.85276  1.0000
  H   H3371     1.0  0.54682  0.93265  0.70700  1.0000
  C   C1967     1.0  0.55134  0.80893  0.81779  1.0000
  S   S568      1.0  0.65668  0.75920  0.85131  1.0000
  C   C1968     1.0  0.63380  0.82734  0.77826  1.0000
  C   C1969     1.0  0.62588  0.84581  0.76976  1.0000
  C   C1970     1.0  0.61707  0.85974  0.78093  1.0000
  C   C1971     1.0  0.61526  0.85466  0.80074  1.0000
  C   C1972     1.0  0.62282  0.83605  0.80929  1.0000
  H   H3372     1.0  0.64116  0.81685  0.76945  1.0000
  H   H3373     1.0  0.62689  0.84938  0.75456  1.0000
  H   H3374     1.0  0.60840  0.86532  0.80952  1.0000
  C   C1973     1.0  0.64184  0.76003  0.94318  1.0000
  C   C1974     1.0  0.63061  0.76541  0.96003  1.0000
  C   C1975     1.0  0.61464  0.78018  0.95930  1.0000
  C   C1976     1.0  0.57567  0.82685  0.79598  1.0000
  H   H3375     1.0  0.50056  0.89820  0.74118  1.0000
  C   C1977     1.0  0.52032  0.94280  0.75712  1.0000
  C   C1978     1.0  0.70048  0.86486  0.74623  1.0000
  H   H3376     1.0  0.50371  0.93778  0.72581  1.0000
  C   C1979     1.0  0.62024  0.78304  0.92486  1.0000
  H   H3377     1.0  0.65810  0.85813  0.77699  1.0000
  S   S569      1.0  0.49641  0.76637  0.95878  1.0000
  H   H3378     1.0  0.57660  0.84046  0.76647  1.0000
  H   H3379     1.0  0.69755  0.83143  0.77264  1.0000
  H   H3380     1.0  0.54967  0.79920  0.83178  1.0000
  C   C1980     1.0  0.70761  0.87700  0.72699  1.0000
  H   H3381     1.0  0.49807  0.96748  0.64222  1.0000
  H   H3382     1.0  0.65274  0.90556  0.65551  1.0000
  C   C1981     1.0  0.66805  0.90527  0.65053  1.0000
  H   H3383     1.0  0.68652  0.89089  0.76753  1.0000
  C   C1982     1.0  0.53142  0.92320  0.75225  1.0000
  H   H3384     1.0  0.53898  0.93360  0.66525  1.0000
  C   C1983     1.0  0.53333  0.77337  0.86636  1.0000
  H   H3385     1.0  0.69956  0.87636  0.71588  1.0000
  S   S570      1.0  0.65181  0.76272  0.90454  1.0000
  C   C1984     1.0  0.70055  0.90037  0.65677  1.0000
  S   S571      1.0  0.61656  0.76037  0.83613  1.0000
  H   H3386     1.0  0.68483  0.84452  0.72910  1.0000
  H   H3387     1.0  0.63529  0.97185  0.64497  1.0000
  H   H3388     1.0  0.67773  0.82937  0.76187  1.0000
  H   H3389     1.0  0.57176  0.79054  0.78892  1.0000
  C   C1985     1.0  0.68287  0.94914  0.67515  1.0000
  C   C1986     1.0  0.52832  0.75810  0.84182  1.0000
  H   H3390     1.0  0.65102  0.87200  0.74740  1.0000
  H   H3391     1.0  0.67936  0.86031  0.78432  1.0000
  H   H3392     1.0  0.52717  0.94906  0.69841  1.0000
  H   H3393     1.0  0.67510  0.82697  0.78682  1.0000
  C   C1987     1.0  0.66667  0.98145  0.66422  1.0000
  C   C1988     1.0  0.62369  0.97556  0.71226  1.0000
  H   H3394     1.0  0.64452  0.89847  0.76046  1.0000
  C   C1989     1.0  0.58343  0.80611  0.82520  1.0000
  H   H3395     1.0  0.68971  0.73449  0.90580  1.0000
  C   C1990     1.0  0.60941  0.78887  0.94167  1.0000
  H   H3396     1.0  0.55029  0.90389  0.72237  1.0000
  H   H3397     1.0  0.59901  0.80646  0.81980  1.0000
  C   C1991     1.0  0.57692  0.74723  0.96817  1.0000
  C   C1992     1.0  0.53996  0.91880  0.67224  1.0000
  C   C1993     1.0  0.63784  0.95684  0.65229  1.0000
  H   H3398     1.0  0.50783  0.94903  0.74991  1.0000
  H   H3399     1.0  0.57846  0.83580  0.83065  1.0000
  H   H3400     1.0  0.50536  0.77266  0.86053  1.0000
  N   N142      1.0  0.57249  0.80837  0.80920  1.0000
  Fe  Fe288     1.0  0.63514  0.78156  0.83658  1.0000
  S   S572      1.0  0.64444  0.79966  0.80779  1.0000
  C   C1994     1.0  0.67607  0.88989  0.75868  1.0000
  C   C1995     1.0  0.66994  0.85255  0.73059  1.0000
  H   H3401     1.0  0.59710  0.80034  0.94095  1.0000
  H   H3402     1.0  0.54188  0.78737  0.80643  1.0000
  C   C1996     1.0  0.65572  0.89734  0.76908  1.0000
  S   S573      1.0  0.50212  0.92246  0.66852  1.0000
  C   C1997     1.0  0.54838  0.75260  0.83695  1.0000
  H   H3403     1.0  0.66683  0.88307  0.72901  1.0000
  C   C1998     1.0  0.53234  0.94082  0.71153  1.0000
  H   H3404     1.0  0.86977  0.82109  0.65311  1.0000
  H   H3405     1.0  0.57876  0.77769  0.81026  1.0000
  H   H3406     1.0  0.65185  0.88851  0.78319  1.0000
  C   C1999     1.0  0.68170  0.83495  0.77311  1.0000
  H   H3407     1.0  0.54170  0.80814  0.96435  1.0000
  H   H3408     1.0  0.53274  0.91333  0.76597  1.0000
  H   H3409     1.0  0.51303  0.88337  0.68677  1.0000
  C   C2000     1.0  0.50604  0.90515  0.75066  1.0000
  H   H3410     1.0  0.61623  0.79000  0.91133  1.0000
  H   H3411     1.0  0.70466  0.84974  0.74424  1.0000
  H   H3412     1.0  0.52745  0.78144  0.87774  1.0000
  H   H3413     1.0  0.65304  0.93765  0.67253  1.0000
  H   H3414     1.0  0.55425  0.74451  0.82559  1.0000
  H   H3415     1.0  0.60399  0.80178  0.77822  1.0000
  H   H3416     1.0  0.71344  0.74247  0.96176  1.0000
  H   H3417     1.0  0.52314  0.80599  0.81362  1.0000
  H   H3418     1.0  0.70695  0.89213  0.72807  1.0000
  H   H3419     1.0  0.66161  0.94155  0.70103  1.0000
  H   H3420     1.0  0.56938  0.78540  0.96104  1.0000
  H   H3421     1.0  0.56080  0.78763  0.93177  1.0000
  C   C2001     1.0  0.58021  0.79108  0.79970  1.0000
  H   H3422     1.0  0.55578  0.88919  0.75550  1.0000
  H   H3423     1.0  0.62689  0.96127  0.72023  1.0000
  H   H3424     1.0  0.54649  0.92518  0.74564  1.0000
  H   H3425     1.0  0.53737  0.76544  0.94689  1.0000
  H   H3426     1.0  0.72301  0.87119  0.72202  1.0000
  S   S574      1.0  0.61926  0.74430  0.88085  1.0000
  C   C2002     1.0  0.56772  0.83113  0.77732  1.0000
  C   C2003     1.0  0.85885  0.81579  0.64776  1.0000
  H   H3427     1.0  0.53381  0.95145  0.71970  1.0000
  H   H3428     1.0  0.55250  0.83869  0.77930  1.0000
  C   C2004     1.0  0.68070  0.90082  0.66352  1.0000
  H   H3429     1.0  0.66722  0.85741  0.71581  1.0000
  C   C2005     1.0  0.60143  0.78927  0.78950  1.0000
  C   C2006     1.0  0.56471  0.77215  0.93103  1.0000
  H   H3430     1.0  0.57632  0.75304  0.84306  1.0000
  H   H3431     1.0  0.54375  0.86561  0.69667  1.0000
  H   H3432     1.0  0.55896  0.87263  0.73994  1.0000
  H   H3433     1.0  0.69654  0.95487  0.67258  1.0000
  H   H3434     1.0  0.68719  0.93417  0.67246  1.0000
  C   C2007     1.0  0.51751  0.92798  0.72251  1.0000
  H   H3435     1.0  0.56882  0.81832  0.77102  1.0000
  C   C2008     1.0  0.56089  0.75746  0.84679  1.0000
  H   H3436     1.0  0.87885  0.78602  0.66882  1.0000
  H   H3437     1.0  0.65991  0.84255  0.73803  1.0000
  H   H3438     1.0  0.60514  0.77646  0.78256  1.0000
  H   H3439     1.0  0.85148  0.80662  0.66020  1.0000
  C   C2009     1.0  0.67493  0.94790  0.69659  1.0000
  H   H3440     1.0  0.71046  0.89693  0.66670  1.0000
  C   C2010     1.0  0.55339  0.76796  0.86144  1.0000
  S   S575      1.0  0.51293  0.75221  0.82907  1.0000
  C   C2011     1.0  0.54793  0.88295  0.74752  1.0000
  S   S576      1.0  0.56864  0.77546  0.87317  1.0000
  N   N143      1.0  0.66947  0.96082  0.66197  1.0000
  C   C2012     1.0  0.53844  0.80303  0.80647  1.0000
  H   H3441     1.0  0.88067  0.76631  0.65650  1.0000
  H   H3442     1.0  0.56134  0.77050  0.91742  1.0000
  H   H3443     1.0  0.64137  0.95960  0.67990  1.0000
  N   N144      1.0  0.55719  0.75924  0.96699  1.0000
  H   H3444     1.0  0.51459  0.92004  0.71226  1.0000
  H   H3445     1.0  0.51502  0.94154  0.77263  1.0000
  H   H3446     1.0  0.52987  0.79125  0.95940  1.0000
  H   H3447     1.0  0.58049  0.76742  0.93036  1.0000
  H   H3448     1.0  0.51026  0.89346  0.76226  1.0000
  H   H3449     1.0  0.83211  0.83574  0.65437  1.0000
  H   H3450     1.0  0.62344  0.95316  0.65910  1.0000
  H   H3451     1.0  0.85465  0.77956  0.64477  1.0000
  H   H3452     1.0  0.90180  0.77328  0.65950  1.0000
  C   C2013     1.0  0.55731  0.77892  0.97052  1.0000
  H   H3453     1.0  0.64417  0.94729  0.64171  1.0000
  H   H3454     1.0  0.71003  0.95434  0.64228  1.0000
  C   C2014     1.0  0.67881  0.95775  0.64214  1.0000
  H   H3455     1.0  0.68065  0.94236  0.64124  1.0000
  C   C2015     1.0  0.84389  0.83379  0.64203  1.0000
  H   H3456     1.0  0.65923  0.98317  0.67879  1.0000
  C   C2016     1.0  0.53830  0.79348  0.96946  1.0000
