data_image0
_chemical_formula_structural       HC3HSHSHC3HCH2CH2SH2CHSHC2NH3C4H3CH5FeHCH2C2HCH3C3H2CH3FeC2HSH4NH2SH2CHFeCH2FeSCFeS2FeCFeSCSCFeS2FeHFeS3CNC4H5C2H2CHCH2CHCH2C6H6C3H5C2SC2H2SHNH4SFeCSC2HCH6CNC8H11NHSCH3C2HSCH2CHC2HC2H7CH3CH4CH2SHCHCNC5H2CH11CHCH6C2H2CH2SHC3H3CH3CH2CH2C2H3CH5CSC2H2C2H7S2FeSHCH4FeSFeSHFeSFeS3H2CFeS2FeSFeSFeS3FeS2FeS2FeSFeS3H2FeS2H2S2H2CH3C2HCH3C6H4C6H6C6H4C6H5NC6H4C7H3C6H3NC2HC3H8CH5NH3CHCNCSC2HSCH10NH9CNC2HC2H2CH3CSH3CNC8H21NHCH3CHCH2C2H3C2SNHCH2CH2FeHC3HCHFeH2S2H3SHC2HCHC2HC2FeH8C2H3C2H3C3H10C2H5CHNCH2CHCHC3HCH2C2H3CH7CH7CHSHSHFeC3HNCHCH2CHC2H3SHCH2CHC2H4CH3CH3CHC2HCH2SHFeS2HFeNCSCS2H3FeSHC6H4C6H6CSC2NH2SHCH8NCH2CH3CH4FeH4SHC2HCHFeCHCH3C2HC2SHCH2C2HFeH6CH4SFeCSCHCH2CHC2HCHSHSCHCH3CHCNCH3CH3CH2CHFeS2HCHFeSFeHCH2SHC3S2HSFeHC2HCH2CFeH3CFeC2S2H2CHNH2C6H4C6H5C5H2C2H3SCH2CHCHSCH3C2H3CH4CHCH4CNH6CHSH5C2HCH3CH5SCH2SCHNH8FeCHFeSHFeS2FeSFeS3HFeS2FeSHFeSFeS3HSHFeS2HCHFeHCHCHC7HCH2C6H3CNH2CH4C2H4CSCHC3H3C6H4C3H6CHCH3C3SCHNSH3NHCH3CHCH8CFeCH4CSHCHCH4CH5C2HSCFeCH2CSCH9NHCHCHCSHCH2C2HCH2CH2SHCHCH4CH15C3H8NH5NC7H3CH2CSH8C3HC2NHCFeS2H2CSFeS2HSFeSFeS3CFeS2FeS2FeSFeS3H3SHC2H3FeSH3C2HCHSC6H5NHC5H2CHFeHC2HCH2C6H3C6H4C6H4CH7SHFeH4CH2CH4C2HSH2FeCHSH2CHCH3C2HNC8H14C2H7C2H3NC4NHC2H7C2H2CH7NC8H8CHCH10SH2CH13C2FeCHCH4CH4SH2NC6HFeCSHC2H3CHNH2C2H3CH2C2H5CSFeCHCSC2HCN2CH2CH4CH12C2FeH4SHC2HCH9CHC2HSH3FeCSHCHSCHCH3SFeCNCH4CH3C6H4CHS2CH2CHNSHCH2CHC4H2CHSHCH3C2H10SC2H9CNC2HCH2C2SHCH5FeHC2HCH2FeS2FeSFeSFeS3C2FeHSHSH2SHFeS2FeSHFeSCHSHFeS2CFeSHS2C6H4C2H2CH5C7H3C6H5C4HSH4C3SNC8H24SH3CH5C2NSCHFeH2CH2C3HC2HCH5CH4C2FeCSNH7CHCH2C2HS2NHS3H5CSFeCH2C2H4C3H2C2HCFeHSHC2HCH3SH3CFeHCHC3NHC2H2SHC2HFeH3C3HCH4CH6FeHC3H4CHNCH2CH4FeCH3NCH8C3H2SHCHFeHSH8NHC3FeHC2H4SFeS2FeS2FeS2FeSFeS3FeS2FeH4CFeHC6H4C3HC2H4C6H8C5HCH3CHFeCH4CH4C4H4CFeCH2CH4CH2CHCH3C3H3CHC2H3S2H3NC2SH4CH2CH3CH6CH4NC2H2CH2SH2C3H2CH3SH4CH3NHC3H2CH2CH3CH3CH4CHCHCH2SH2CSCH2CSH6NH3FeCFeCH3C2H2NC6HSH3C2H2CH3C2HCNH2C2H3CH5NSH2SHFeSC2SHSFeSHCHFeC6H6CH2C6SH2FeCS2HFeSH2SHC4H5CH2C2H2CFeHCH2C2H5CH4C2HCH2FeH4NH2CH5CHCH3CH2C2H2SHCHFeH2CH3SCH3CH4CNC8H14CH2SH5C2H2C2H2S2HNHSHNCH4CHC2H4FeH2FeHCSHSCHC2FeSHSH2CH3SH2CHFeS2FeS2FeSFeS3FeS3FeSFeS3FeSFeSFeHS2CHCHSHC6H4C2H2C3H3CHFeC4H5NC5H7CH2C2H2C6H4C6H4C5H3C2H2CH2SC2NC6H15C2SNH4CNC2HCHC2H9CH5NC8H25CH4NC8H9CH2CHCH2SHSCH3FeC3HSH2C2SH4CH2CH2CH5CH7CHCHCH3CH2FeH3FeCH2C2HCHC2H2FeHCH3CH2CHCHCNH2C2H2FeHSH3CH4C2H8C2HC4HCHC2SC2H2C2NCH3CH2SH2SH4CH4NC3H2CH2CH2CH2FeS4HFeSFeSCH2FeS2H3SFe2SHFeSHFeSH2SHCHFeS2FeS2FeSFeS3HSCHFeS2CHCH5FeC2HC4SH3C6H4C6H4CH3C7H5C2H3C6H5C2H8SH3SHC6H2CHCHNC8H2CH11CH3CHNC5HC2H12CHCH6S2NHCHC2H2CNC8H22C2H2SCNCSHCS2FeHC2H7C3H4CH3NH2C2HNH5CFeCFeCH12FeHC2HCH2CH3SCH11C2H4CHCHCHC3FeS2HS2FeSHSCFeSFeS2FeSFeHS2CSH2SHCH2CH4C6H6CH3C6H5C3H6C3HCH4CH2CHCHCNC5HC2H7FeH5CH8C2H5C2HC2H2CH3CHNCHC3HCH16C2HFeHC3NH2C3HSCNCH2CH3CNH2CH4CH5SC2HSCH2NSCH2CSH9CH3CHC3H3CSCHSHCNCHCHCHCH4CHCH6C2SH2CH3C2HFeC2HCFeS2HCFeSHSFe2S2CSCFeSFeHSHFeS2FeCSH2S2C2H4CH3CHCH2NH2CHC6H4C2HSC2H4CHC2HCH2SHCH8C4H7CHCH2CH8FeH4NCH3NHC7HCH4CFeH2SCHC2HC2H3SHCH2CH4SCHCH2CHCH4SH3Fe2S2FeS2FeCFeS3H2C2FeS2FeS2FeSFeS3FeS2FeSHFeHFeS3FeS2FeSFeSFeS3FeHSHCSH2SH4C6H6C6H4C6H4C6H6C4H4C6H4C3SC2H4C4HCH5NC8H20NC2HC2H2CH8NC8H21C2H3CH3CH3FeHFeSC2H3CSHCH2NC8H21NH2CSH2C3HCHC2NH3C2H3CH2C2H2CNH4CHSHCHCH2CH2NHCHCH2CH2CH2CHSCHNCNHCHCH4CH2CH4CH3CHCH2CH7CHCHCH5CHCH3CFeSHC3HCH6SH2SC2H4CHCH2C2HC2SCHFeSH2SHFeSFeSHNFeS2FeSHFeSFeS3HC4H2C6H5CHCHCHC2H3C5H4CH8C2HCHCH3CFeCH6CFeH2CH3C3H2SH4CNHSCH3FeSH6CSCHNHCSHC5HCSHCH2SFeH2CH2CH7C2HC2H8CHCHCHCH2NHSHC3HC3H3NH2C2HFeS2FeSHFeSFeS3FeSHFeSFeSFeCS2FeS2FeSFeSFeS3C5H2CH3C6H4C6H4C2HC4H3C5H10CHC3H5CH6CHCSHCH3NCH2C2H2SCHC2HC3H2SHCH5CH6CH6SC2HCHNC2HC3HCH3CH3CNC8H20NSC4SHCHCH2SC3H4NCH3CH7CH4CNCH2CH2C3H6CH2CHCH6FeC2SHSCH5CHCHC2HCH2CH2C2SHCH3CSH2CSHSCNCSH4NH5C2H4CFeH2C2H2CHFeS2FeSCSH2CH7FeS2FeS2FeSFeS3FeS2FeS2FeSFeS3HSH2SCSH2FeS2C4HNH2SC7H4C6H3C6H4SH2SC5H8C2H3C2HCH5C2H5CH2C6H4C6H4NH2SHC2H6FeH4CH2NHFeCHCH2CSHCH3CHCH2C2HCHSCHSH2C2HNCSHC5H2FeH14CH15CNH3C3FeC3HCFe2HCH7CH3CHCH3C2NHC3H5CHCH9C2HCFeCH8C2H2C2FeH2C3HCHC3HCH3NHC3H6C2NH2CHCNCH3SHC2HSNHFeSHFeS2FeSFeS3H2CHFeSHSFeSFeHFeS2FeS2FeHFeS2CH2C6H5C2H4CHCHC6H4C6H4C2H5CH2C4HSH3CHCNCH2C2HCHC2H4C2HCSH3C3SH2NC8H12CH8CH2CH2SH2NH3C2HNH3SCHCSHCHCH3CHSHFeH3C2H9CH2CHCH2C3H2SH7CH2CHCH3CHC2H2C2H7NHCH2CHCHCH2C3H2CH4CH2SH4FeHCHCHCSH3CH2CNCHFeHSFeC2S2H2CHCH2CH5SHCH2CHFeC2H3CHS2H2CH2C2SHCH4CH6FeHCHCFeCH3CHCHCH6CH2SHCH4CH2C2HFeS2FeS2FeS2C2HFeS2FeHFeSH2FeS2FeS2FeSFeS3FeS2FeS2FeSFeNS2H2CH2CH2C2H2C6H4CSHCHCH3SH2C3HSH4C2H2C2S2H2CH2SH3C6H4CH2C6H5C2H3C2H3C5H3CHCHSC2H6C2H2CH4CHSCH2C2H6CHSHCH5CH2CH3FeH4NC5H4FeH4SH2NC7H16NC4NC3H5SH2CHCH9C2HCFeH2C2HCH4FeHCH2CHCHC2H10NSC2H8FeS2FeS2FeSFeS3FeS2FeS2FeSFeS3C5H3NC6H4C3FeHCH4NC6H6C2H2CHCHSH2CHC2H3CHNH2CH4C2H5CHNC2H2CHCH3CHC4H2SCHC2HNFeH2C2H2CH3SHNC5H2CH2C3H9CHFeH4CNHC6H9CHC2HSHCH2CSH2CH2C2H2C2H3CH2C2H2C2HCH7CH8CH8CHCH4CH2C3H5SFeCHNH2CHCHC2H7FeH4CH2CHCH2C2H3C3SHSHCFeHSFeHS2CH2C2H2CHC2SCHCH5CH2CHCH4SH3SH2NC2HFeH4CHCHCHCH2CHSFeC3HCHC3NCHSH2C4H2C2H2C2HSH4CSCH6C2H3
_chemical_formula_sum              "H3456 C2016 S576 N144 Fe288"
_cell_length_a       72.2437
_cell_length_b       72.1907
_cell_length_c       72.5358
_cell_angle_alpha    75.0019
_cell_angle_beta     75.0983
_cell_angle_gamma    74.6686

_space_group_name_H-M_alt    "P 1"
_space_group_IT_number       1

loop_
  _space_group_symop_operation_xyz
  'x, y, z'

loop_
  _atom_site_type_symbol
  _atom_site_label
  _atom_site_symmetry_multiplicity
  _atom_site_fract_x
  _atom_site_fract_y
  _atom_site_fract_z
  _atom_site_occupancy
  H   H1        1.0  0.08819  0.44168  0.16911  1.0000
  C   C1        1.0  0.28977  0.42808  0.10798  1.0000
  C   C2        1.0  0.03116  0.46591  0.20796  1.0000
  C   C3        1.0  0.25203  0.43976  0.15852  1.0000
  H   H2        1.0  0.21981  0.45919  0.18254  1.0000
  S   S1        1.0  0.25780  0.45239  0.09462  1.0000
  H   H3        1.0  0.05633  0.46743  0.21792  1.0000
  S   S2        1.0  0.00159  0.46504  0.19126  1.0000
  H   H4        1.0  0.19510  0.44180  0.15368  1.0000
  C   C4        1.0  0.01272  0.47578  0.20371  1.0000
  C   C5        1.0  0.28073  0.41251  0.22453  1.0000
  C   C6        1.0  0.07687  0.45534  0.17049  1.0000
  H   H5        1.0  0.23399  0.47456  0.12976  1.0000
  C   C7        1.0  0.32293  0.43360  0.09641  1.0000
  H   H6        1.0  0.30938  0.46140  0.16161  1.0000
  H   H7        1.0  0.20658  0.44175  0.18295  1.0000
  C   C8        1.0  0.28296  0.44490  0.09476  1.0000
  H   H8        1.0  0.31555  0.47807  0.10331  1.0000
  H   H9        1.0  0.21548  0.44003  0.12105  1.0000
  S   S3        1.0  0.30460  0.42285  0.18953  1.0000
  H   H10       1.0  0.18843  0.47686  0.99176  1.0000
  H   H11       1.0  0.17687  0.46576  0.17999  1.0000
  C   C9        1.0  0.31082  0.38876  0.21704  1.0000
  H   H12       1.0  0.27956  0.41955  0.11776  1.0000
  S   S4        1.0  0.09962  0.46881  0.21059  1.0000
  H   H13       1.0  0.26243  0.42552  0.15721  1.0000
  C   C10       1.0  0.30130  0.46916  0.14965  1.0000
  C   C11       1.0  0.29623  0.45579  0.08206  1.0000
  N   N1        1.0  0.21678  0.45762  0.15389  1.0000
  H   H14       1.0  0.29265  0.46024  0.12686  1.0000
  H   H15       1.0  0.16129  0.45859  0.00152  1.0000
  H   H16       1.0  0.13542  0.46564  0.00813  1.0000
  C   C12       1.0  0.04206  0.47513  0.21494  1.0000
  C   C13       1.0  0.30312  0.45456  0.13686  1.0000
  C   C14       1.0  0.30970  0.42253  0.10893  1.0000
  C   C15       1.0  0.29838  0.40689  0.21180  1.0000
  H   H17       1.0  0.21318  0.46641  0.11447  1.0000
  H   H18       1.0  0.06252  0.45168  0.17190  1.0000
  H   H19       1.0  0.23265  0.46792  0.99860  1.0000
  C   C16       1.0  0.14764  0.46089  0.99629  1.0000
  H   H20       1.0  0.28555  0.47195  0.15670  1.0000
  H   H21       1.0  0.29942  0.44072  0.14636  1.0000
  H   H22       1.0  0.23914  0.43992  0.13539  1.0000
  H   H23       1.0  0.09678  0.47268  0.15168  1.0000
  H   H24       1.0  0.25988  0.45126  0.14921  1.0000
  Fe  Fe1       1.0  0.11876  0.46820  0.23094  1.0000
  H   H25       1.0  0.19238  0.45590  0.11843  1.0000
  C   C17       1.0  0.31624  0.44994  0.08266  1.0000
  H   H26       1.0  0.18785  0.46771  0.14686  1.0000
  H   H27       1.0  0.27095  0.42637  0.22043  1.0000
  C   C18       1.0  0.08160  0.47146  0.15233  1.0000
  C   C19       1.0  0.20068  0.45524  0.14545  1.0000
  H   H28       1.0  0.30136  0.47196  0.22641  1.0000
  C   C20       1.0  0.23369  0.44039  0.15109  1.0000
  H   H29       1.0  0.29113  0.46870  0.07172  1.0000
  H   H30       1.0  0.24885  0.44068  0.17407  1.0000
  H   H31       1.0  0.22882  0.42632  0.15811  1.0000
  C   C21       1.0  0.20602  0.45435  0.12361  1.0000
  C   C22       1.0  0.18953  0.47128  0.18089  1.0000
  C   C23       1.0  0.20903  0.45674  0.17544  1.0000
  H   H32       1.0  0.03726  0.45120  0.20535  1.0000
  H   H33       1.0  0.07739  0.45924  0.18412  1.0000
  C   C24       1.0  0.28996  0.48573  0.22607  1.0000
  H   H34       1.0  0.08235  0.46549  0.13936  1.0000
  H   H35       1.0  0.31476  0.40975  0.11939  1.0000
  H   H36       1.0  0.24323  0.47763  0.16125  1.0000
  Fe  Fe2       1.0  0.24918  0.48432  0.08109  1.0000
  C   C25       1.0  0.22989  0.48378  0.99464  1.0000
  C   C26       1.0  0.22281  0.47674  0.14324  1.0000
  H   H37       1.0  0.14564  0.44658  0.99497  1.0000
  S   S5        1.0  0.13888  0.48525  0.20818  1.0000
  H   H38       1.0  0.18740  0.47269  0.19624  1.0000
  H   H39       1.0  0.31815  0.45060  0.12845  1.0000
  H   H40       1.0  0.04707  0.47598  0.14796  1.0000
  H   H41       1.0  0.04139  0.48304  0.17072  1.0000
  N   N2        1.0  0.30787  0.48805  0.13936  1.0000
  H   H42       1.0  0.18907  0.48609  0.17144  1.0000
  H   H43       1.0  0.15585  0.48563  0.12076  1.0000
  S   S6        1.0  0.12912  0.48491  0.15787  1.0000
  H   H44       1.0  0.23224  0.48706  0.02272  1.0000
  H   H45       1.0  0.32431  0.38423  0.20714  1.0000
  C   C27       1.0  0.23094  0.48716  0.15460  1.0000
  H   H46       1.0  0.21029  0.48778  0.13798  1.0000
  Fe  Fe3       1.0  0.11819  0.48836  0.18892  1.0000
  C   C28       1.0  0.04711  0.48801  0.15498  1.0000
  H   H47       1.0  0.32637  0.36851  0.11983  1.0000
  H   H48       1.0  0.32642  0.45851  0.07290  1.0000
  Fe  Fe4       1.0  0.24878  0.41190  0.31964  1.0000
  S   S7        1.0  0.21668  0.41811  0.32038  1.0000
  C   C29       1.0  0.23445  0.33031  0.44138  1.0000
  Fe  Fe5       1.0  0.25886  0.38594  0.29010  1.0000
  S   S8        1.0  0.22753  0.38982  0.28833  1.0000
  S   S9        1.0  0.28278  0.36783  0.27149  1.0000
  Fe  Fe6       1.0  0.22558  0.42137  0.28796  1.0000
  C   C30       1.0  0.27571  0.40026  0.24264  1.0000
  Fe  Fe7       1.0  0.22165  0.38600  0.32088  1.0000
  S   S10       1.0  0.19976  0.36891  0.34106  1.0000
  C   C31       1.0  0.23654  0.45983  0.32842  1.0000
  S   S11       1.0  0.25330  0.37943  0.32278  1.0000
  C   C32       1.0  0.24101  0.14613  0.44179  1.0000
  Fe  Fe8       1.0  0.22623  0.26622  0.40036  1.0000
  S   S12       1.0  0.23706  0.23402  0.41091  1.0000
  S   S13       1.0  0.23730  0.27966  0.36914  1.0000
  Fe  Fe9       1.0  0.24264  0.24284  0.43604  1.0000
  H   H49       1.0  0.24277  0.19976  0.45572  1.0000
  Fe  Fe10      1.0  0.20651  0.23465  0.42820  1.0000
  S   S14       1.0  0.19436  0.20804  0.43199  1.0000
  S   S15       1.0  0.23448  0.27504  0.42413  1.0000
  S   S16       1.0  0.19489  0.26625  0.41552  1.0000
  C   C33       1.0  0.28464  0.21078  0.43924  1.0000
  N   N3        1.0  0.15011  0.46095  0.31757  1.0000
  C   C34       1.0  0.30797  0.17962  0.44164  1.0000
  C   C35       1.0  0.30764  0.17905  0.42261  1.0000
  C   C36       1.0  0.29663  0.19484  0.41152  1.0000
  C   C37       1.0  0.28529  0.21081  0.41979  1.0000
  H   H50       1.0  0.03732  0.21736  0.46357  1.0000
  H   H51       1.0  0.24633  0.47036  0.28637  1.0000
  H   H52       1.0  0.27700  0.22309  0.41113  1.0000
  H   H53       1.0  0.26872  0.44886  0.35861  1.0000
  H   H54       1.0  0.05858  0.16284  0.46376  1.0000
  C   C38       1.0  0.16657  0.19181  0.45995  1.0000
  C   C39       1.0  0.17123  0.20901  0.44744  1.0000
  H   H55       1.0  0.17468  0.41637  0.33955  1.0000
  H   H56       1.0  0.24742  0.34901  0.27408  1.0000
  C   C40       1.0  0.16549  0.42421  0.32858  1.0000
  H   H57       1.0  0.17715  0.17806  0.45996  1.0000
  C   C41       1.0  0.29635  0.19537  0.45000  1.0000
  H   H58       1.0  0.16054  0.41252  0.27034  1.0000
  H   H59       1.0  0.27332  0.09149  0.47477  1.0000
  C   C42       1.0  0.15530  0.48090  0.31128  1.0000
  H   H60       1.0  0.01081  0.20187  0.46423  1.0000
  C   C43       1.0  0.19015  0.44480  0.26217  1.0000
  H   H61       1.0  0.31550  0.36264  0.23941  1.0000
  H   H62       1.0  0.27138  0.45014  0.29705  1.0000
  C   C44       1.0  0.21021  0.34416  0.34911  1.0000
  C   C45       1.0  0.19870  0.33184  0.36262  1.0000
  C   C46       1.0  0.20698  0.31200  0.36914  1.0000
  C   C47       1.0  0.22669  0.30443  0.36186  1.0000
  C   C48       1.0  0.23808  0.31666  0.34815  1.0000
  C   C49       1.0  0.22990  0.33651  0.34190  1.0000
  H   H63       1.0  0.18338  0.33763  0.36805  1.0000
  H   H64       1.0  0.19805  0.30248  0.37951  1.0000
  H   H65       1.0  0.25331  0.31079  0.34242  1.0000
  H   H66       1.0  0.23877  0.34572  0.33115  1.0000
  H   H67       1.0  0.25613  0.30784  0.40817  1.0000
  H   H68       1.0  0.13084  0.26906  0.47418  1.0000
  C   C50       1.0  0.18344  0.42726  0.26893  1.0000
  C   C51       1.0  0.17902  0.46116  0.25181  1.0000
  C   C52       1.0  0.30458  0.08101  0.47217  1.0000
  H   H69       1.0  0.18352  0.47444  0.29059  1.0000
  H   H70       1.0  0.23474  0.34490  0.44354  1.0000
  H   H71       1.0  0.14840  0.47245  0.35289  1.0000
  H   H72       1.0  0.20882  0.15618  0.44709  1.0000
  H   H73       1.0  0.17564  0.44924  0.33107  1.0000
  C   C53       1.0  0.25094  0.44869  0.33901  1.0000
  C   C54       1.0  0.27007  0.48209  0.23896  1.0000
  S   S17       1.0  0.26115  0.42394  0.33814  1.0000
  C   C55       1.0  0.14268  0.45630  0.30207  1.0000
  C   C56       1.0  0.14094  0.46035  0.35453  1.0000
  H   H74       1.0  0.27574  0.16549  0.40764  1.0000
  H   H75       1.0  0.23423  0.28782  0.32101  1.0000
  S   S18       1.0  0.18561  0.29363  0.45896  1.0000
  H   H76       1.0  0.23959  0.36328  0.37501  1.0000
  N   N4        1.0  0.24728  0.16349  0.44427  1.0000
  H   H77       1.0  0.19182  0.41464  0.27714  1.0000
  H   H78       1.0  0.26086  0.31798  0.38244  1.0000
  H   H79       1.0  0.21040  0.28281  0.32984  1.0000
  H   H80       1.0  0.29661  0.19461  0.39667  1.0000
  S   S19       1.0  0.25748  0.41790  0.28719  1.0000
  Fe  Fe11      1.0  0.20413  0.27236  0.44032  1.0000
  C   C57       1.0  0.22926  0.37203  0.38539  1.0000
  S   S20       1.0  0.13182  0.44125  0.25104  1.0000
  C   C58       1.0  0.15738  0.22670  0.44728  1.0000
  C   C59       1.0  0.28533  0.45336  0.28766  1.0000
  H   H81       1.0  0.25995  0.33263  0.39869  1.0000
  C   C60       1.0  0.28841  0.38244  0.24820  1.0000
  H   H82       1.0  0.21832  0.13710  0.43359  1.0000
  H   H83       1.0  0.14487  0.17909  0.48250  1.0000
  H   H84       1.0  0.22812  0.16090  0.47306  1.0000
  H   H85       1.0  0.24142  0.35703  0.41053  1.0000
  H   H86       1.0  0.04635  0.19482  0.45567  1.0000
  H   H87       1.0  0.17000  0.41629  0.31632  1.0000
  C   C61       1.0  0.23873  0.18752  0.46768  1.0000
  N   N5        1.0  0.21903  0.32470  0.29398  1.0000
  C   C62       1.0  0.21027  0.31251  0.31295  1.0000
  C   C63       1.0  0.21011  0.34596  0.29474  1.0000
  C   C64       1.0  0.24082  0.32095  0.29290  1.0000
  C   C65       1.0  0.21478  0.31853  0.27738  1.0000
  C   C66       1.0  0.21977  0.29043  0.31700  1.0000
  C   C67       1.0  0.18752  0.35157  0.29877  1.0000
  C   C68       1.0  0.25273  0.33295  0.27537  1.0000
  C   C69       1.0  0.21480  0.33366  0.25784  1.0000
  H   H88       1.0  0.21074  0.31830  0.32554  1.0000
  H   H89       1.0  0.19443  0.31345  0.31390  1.0000
  H   H90       1.0  0.21530  0.35603  0.28118  1.0000
  H   H91       1.0  0.21486  0.35015  0.30626  1.0000
  H   H92       1.0  0.24369  0.32360  0.30626  1.0000
  H   H93       1.0  0.24786  0.30535  0.29241  1.0000
  H   H94       1.0  0.22526  0.30475  0.27433  1.0000
  H   H95       1.0  0.19996  0.31497  0.28160  1.0000
  H   H96       1.0  0.19961  0.34167  0.25659  1.0000
  H   H97       1.0  0.01998  0.17996  0.48008  1.0000
  H   H98       1.0  0.08206  0.16144  0.46966  1.0000
  N   N6        1.0  0.26857  0.47822  0.26075  1.0000
  H   H99       1.0  0.18123  0.34623  0.31434  1.0000
  S   S21       1.0  0.31970  0.15795  0.41336  1.0000
  C   C70       1.0  0.16827  0.44563  0.32112  1.0000
  H   H100      1.0  0.25356  0.32853  0.26160  1.0000
  H   H101      1.0  0.26807  0.32974  0.27744  1.0000
  H   H102      1.0  0.27541  0.12627  0.46477  1.0000
  C   C71       1.0  0.28494  0.07934  0.47890  1.0000
  C   C72       1.0  0.22894  0.47975  0.32923  1.0000
  H   H103      1.0  0.25355  0.16195  0.40298  1.0000
  S   S22       1.0  0.21293  0.24079  0.45432  1.0000
  C   C73       1.0  0.16568  0.42610  0.26516  1.0000
  H   H104      1.0  0.22013  0.32566  0.24565  1.0000
  H   H105      1.0  0.22126  0.28354  0.30456  1.0000
  C   C74       1.0  0.16101  0.46018  0.24863  1.0000
  H   H106      1.0  0.30620  0.22442  0.47060  1.0000
  C   C75       1.0  0.14536  0.26468  0.47839  1.0000
  C   C76       1.0  0.26921  0.14112  0.46813  1.0000
  H   H107      1.0  0.23342  0.18670  0.42315  1.0000
  C   C77       1.0  0.06669  0.15988  0.47562  1.0000
  C   C78       1.0  0.24830  0.17908  0.42581  1.0000
  H   H108      1.0  0.15032  0.42289  0.33586  1.0000
  H   H109      1.0  0.16085  0.23996  0.43744  1.0000
  H   H110      1.0  0.23134  0.45315  0.31957  1.0000
  H   H111      1.0  0.22063  0.16158  0.42171  1.0000
  H   H112      1.0  0.18277  0.36783  0.29589  1.0000
  H   H113      1.0  0.23989  0.13495  0.45564  1.0000
  H   H114      1.0  0.27926  0.14444  0.47556  1.0000
  C   C79       1.0  0.26020  0.17219  0.40693  1.0000
  H   H115      1.0  0.29637  0.43934  0.28946  1.0000
  H   H116      1.0  0.30807  0.09432  0.46256  1.0000
  H   H117      1.0  0.11204  0.47303  0.30734  1.0000
  C   C80       1.0  0.12490  0.47115  0.29525  1.0000
  H   H118      1.0  0.24891  0.32374  0.43345  1.0000
  H   H119      1.0  0.27813  0.15004  0.43731  1.0000
  H   H120      1.0  0.21856  0.17996  0.45533  1.0000
  H   H121      1.0  0.12049  0.46564  0.28439  1.0000
  C   C81       1.0  0.14831  0.19239  0.47275  1.0000
  H   H122      1.0  0.18129  0.34601  0.28935  1.0000
  H   H123      1.0  0.12663  0.44874  0.33867  1.0000
  S   S23       1.0  0.21164  0.44719  0.26751  1.0000
  H   H124      1.0  0.27321  0.16922  0.44954  1.0000
  C   C82       1.0  0.15443  0.44258  0.25497  1.0000
  H   H125      1.0  0.23205  0.32077  0.45614  1.0000
  C   C83       1.0  0.25760  0.45741  0.35044  1.0000
  N   N7        1.0  0.21898  0.34192  0.41040  1.0000
  C   C84       1.0  0.19851  0.34833  0.40620  1.0000
  C   C85       1.0  0.22689  0.36022  0.40662  1.0000
  C   C86       1.0  0.21745  0.33162  0.43157  1.0000
  C   C87       1.0  0.23099  0.32823  0.39708  1.0000
  C   C88       1.0  0.18582  0.33265  0.41329  1.0000
  H   H126      1.0  0.08078  0.18882  0.44782  1.0000
  H   H127      1.0  0.26024  0.18520  0.39473  1.0000
  C   C89       1.0  0.25312  0.32137  0.39694  1.0000
  H   H128      1.0  0.19000  0.36107  0.41297  1.0000
  H   H129      1.0  0.19894  0.35358  0.39028  1.0000
  H   H130      1.0  0.29912  0.46322  0.25854  1.0000
  H   H131      1.0  0.25526  0.14064  0.47879  1.0000
  H   H132      1.0  0.20411  0.33906  0.44078  1.0000
  H   H133      1.0  0.21554  0.31635  0.43356  1.0000
  H   H134      1.0  0.22528  0.31463  0.40057  1.0000
  H   H135      1.0  0.22936  0.33455  0.38177  1.0000
  H   H136      1.0  0.19346  0.31849  0.40900  1.0000
  H   H137      1.0  0.18065  0.33003  0.42934  1.0000
  H   H138      1.0  0.17253  0.33805  0.40682  1.0000
  C   C90       1.0  0.13883  0.22713  0.45958  1.0000
  H   H139      1.0  0.17954  0.44548  0.30740  1.0000
  C   C91       1.0  0.16923  0.48494  0.29133  1.0000
  H   H140      1.0  0.16239  0.48343  0.32207  1.0000
  H   H141      1.0  0.29592  0.19512  0.46502  1.0000
  H   H142      1.0  0.25230  0.13838  0.43108  1.0000
  H   H143      1.0  0.21506  0.37796  0.38061  1.0000
  H   H144      1.0  0.15450  0.45477  0.28907  1.0000
  H   H145      1.0  0.22529  0.27801  0.46503  1.0000
  C   C92       1.0  0.03962  0.20114  0.46887  1.0000
  C   C93       1.0  0.07203  0.20135  0.47467  1.0000
  H   H146      1.0  0.21725  0.37031  0.41620  1.0000
  H   H147      1.0  0.26194  0.40461  0.25224  1.0000
  C   C94       1.0  0.19669  0.29259  0.47820  1.0000
  H   H148      1.0  0.23553  0.38487  0.38433  1.0000
  H   H149      1.0  0.07138  0.21497  0.44392  1.0000
  S   S24       1.0  0.26829  0.22905  0.45072  1.0000
  H   H150      1.0  0.14783  0.27798  0.48142  1.0000
  C   C95       1.0  0.23250  0.17235  0.46026  1.0000
  C   C96       1.0  0.24868  0.47362  0.27030  1.0000
  C   C97       1.0  0.26736  0.15663  0.44911  1.0000
  H   H151      1.0  0.22422  0.34431  0.25499  1.0000
  H   H152      1.0  0.24748  0.45996  0.26667  1.0000
  H   H153      1.0  0.12804  0.24077  0.45934  1.0000
  C   C98       1.0  0.13425  0.46104  0.33577  1.0000
  H   H154      1.0  0.12786  0.46205  0.36652  1.0000
  H   H155      1.0  0.09534  0.20482  0.44903  1.0000
  H   H156      1.0  0.13845  0.44178  0.30703  1.0000
  C   C99       1.0  0.08015  0.20234  0.45262  1.0000
  H   H157      1.0  0.12244  0.47448  0.33390  1.0000
  H   H158      1.0  0.12862  0.48546  0.28775  1.0000
  C   C100      1.0  0.22107  0.15078  0.43566  1.0000
  H   H159      1.0  0.29039  0.46387  0.29298  1.0000
  H   H160      1.0  0.25484  0.19083  0.42719  1.0000
  C   C101      1.0  0.24995  0.47715  0.35137  1.0000
  C   C102      1.0  0.13448  0.21008  0.47268  1.0000
  H   H161      1.0  0.31643  0.16754  0.45032  1.0000
  H   H162      1.0  0.15686  0.26059  0.46576  1.0000
  H   H163      1.0  0.16245  0.48527  0.27915  1.0000
  C   C103      1.0  0.28430  0.46046  0.26595  1.0000
  H   H164      1.0  0.18393  0.47488  0.24692  1.0000
  H   H165      1.0  0.28276  0.44779  0.26074  1.0000
  H   H166      1.0  0.15195  0.47328  0.24195  1.0000
  H   H167      1.0  0.15063  0.44605  0.35923  1.0000
  H   H168      1.0  0.25521  0.48377  0.36027  1.0000
  C   C104      1.0  0.21655  0.28391  0.47752  1.0000
  S   S25       1.0  0.32465  0.12516  0.46458  1.0000
  C   C105      1.0  0.31962  0.06536  0.47770  1.0000
  C   C106      1.0  0.01914  0.19603  0.47618  1.0000
  H   H169      1.0  0.22616  0.19408  0.47820  1.0000
  H   H170      1.0  0.25100  0.18070  0.47546  1.0000
  C   C107      1.0  0.30581  0.37652  0.23524  1.0000
  C   C108      1.0  0.23573  0.48839  0.34072  1.0000
  H   H171      1.0  0.21746  0.48677  0.27545  1.0000
  H   H172      1.0  0.26161  0.48545  0.29822  1.0000
  H   H173      1.0  0.07065  0.21657  0.47646  1.0000
  H   H174      1.0  0.21784  0.48835  0.32109  1.0000
  H   H175      1.0  0.26673  0.46966  0.23480  1.0000
  H   H176      1.0  0.19630  0.03788  0.48114  1.0000
  H   H177      1.0  0.08375  0.19206  0.48253  1.0000
  S   S26       1.0  0.21086  0.38699  0.64882  1.0000
  S   S27       1.0  0.24318  0.33926  0.63107  1.0000
  Fe  Fe12      1.0  0.23061  0.39822  0.66064  1.0000
  S   S28       1.0  0.23696  0.42835  0.64777  1.0000
  H   H178      1.0  0.12862  0.28346  0.53358  1.0000
  C   C109      1.0  0.31197  0.47039  0.70333  1.0000
  H   H179      1.0  0.12298  0.27829  0.51307  1.0000
  H   H180      1.0  0.23643  0.19110  0.65038  1.0000
  H   H181      1.0  0.27735  0.34146  0.68694  1.0000
  H   H182      1.0  0.31978  0.30290  0.66815  1.0000
  Fe  Fe13      1.0  0.24799  0.00042  0.55513  1.0000
  S   S29       1.0  0.23947  0.01084  0.58338  1.0000
  Fe  Fe14      1.0  0.25090  0.04136  0.53085  1.0000
  S   S30       1.0  0.24279  0.05515  0.55701  1.0000
  H   H183      1.0  0.27705  0.21309  0.48958  1.0000
  Fe  Fe15      1.0  0.26278  0.02846  0.57033  1.0000
  S   S31       1.0  0.28635  0.02836  0.58567  1.0000
  Fe  Fe16      1.0  0.22025  0.03660  0.56759  1.0000
  S   S32       1.0  0.18947  0.04973  0.58086  1.0000
  S   S33       1.0  0.27292  0.01616  0.54316  1.0000
  S   S34       1.0  0.22671  0.02471  0.54041  1.0000
  H   H184      1.0  0.18956  0.09351  0.51692  1.0000
  H   H185      1.0  0.14694  0.02776  0.51549  1.0000
  C   C110      1.0  0.30602  0.21798  0.48632  1.0000
  Fe  Fe17      1.0  0.08680  0.16085  0.54479  1.0000
  S   S35       1.0  0.11157  0.14167  0.55899  1.0000
  S   S36       1.0  0.05447  0.16082  0.55534  1.0000
  Fe  Fe18      1.0  0.11303  0.18489  0.51413  1.0000
  S   S37       1.0  0.14011  0.16795  0.52521  1.0000
  Fe  Fe19      1.0  0.12829  0.14137  0.52834  1.0000
  S   S38       1.0  0.15024  0.11567  0.51805  1.0000
  Fe  Fe20      1.0  0.12167  0.16964  0.55488  1.0000
  S   S39       1.0  0.13737  0.17399  0.57601  1.0000
  S   S40       1.0  0.10273  0.15816  0.51432  1.0000
  S   S41       1.0  0.09543  0.18895  0.54363  1.0000
  Fe  Fe21      1.0  0.19526  0.26993  0.60123  1.0000
  S   S42       1.0  0.22285  0.25798  0.58152  1.0000
  S   S43       1.0  0.19520  0.27807  0.62943  1.0000
  Fe  Fe22      1.0  0.16901  0.26253  0.57827  1.0000
  S   S44       1.0  0.19432  0.25050  0.55653  1.0000
  S   S45       1.0  0.13930  0.26157  0.57463  1.0000
  Fe  Fe23      1.0  0.20775  0.23430  0.58208  1.0000
  S   S46       1.0  0.22081  0.20223  0.58274  1.0000
  Fe  Fe24      1.0  0.20718  0.27507  0.55738  1.0000
  S   S47       1.0  0.22490  0.28823  0.52913  1.0000
  S   S48       1.0  0.18147  0.24451  0.60413  1.0000
  S   S49       1.0  0.18047  0.28914  0.57693  1.0000
  H   H186      1.0  0.28108  0.21926  0.54500  1.0000
  H   H187      1.0  0.06551  0.21371  0.50906  1.0000
  Fe  Fe25      1.0  0.30089  0.10969  0.62550  1.0000
  S   S50       1.0  0.11211  0.21124  0.48947  1.0000
  S   S51       1.0  0.27375  0.09837  0.62832  1.0000
  H   H188      1.0  0.27073  0.29146  0.69913  1.0000
  H   H189      1.0  0.31357  0.22672  0.49130  1.0000
  S   S52       1.0  0.30563  0.18070  0.59996  1.0000
  S   S53       1.0  0.30096  0.13308  0.64088  1.0000
  H   H190      1.0  0.26605  0.37929  0.69339  1.0000
  H   H191      1.0  0.23718  0.46830  0.64763  1.0000
  C   C111      1.0  0.31228  0.43813  0.69648  1.0000
  H   H192      1.0  0.13461  0.46961  0.73235  1.0000
  H   H193      1.0  0.28914  0.45737  0.72601  1.0000
  H   H194      1.0  0.12979  0.24695  0.50378  1.0000
  C   C112      1.0  0.21396  0.29003  0.50959  1.0000
  C   C113      1.0  0.19402  0.29839  0.51044  1.0000
  H   H195      1.0  0.32054  0.20552  0.51919  1.0000
  C   C114      1.0  0.14800  0.40669  0.72034  1.0000
  H   H196      1.0  0.16573  0.06500  0.48697  1.0000
  H   H197      1.0  0.18525  0.30387  0.52321  1.0000
  H   H198      1.0  0.14972  0.44957  0.70556  1.0000
  C   C115      1.0  0.24494  0.19589  0.58605  1.0000
  C   C116      1.0  0.25289  0.17651  0.59416  1.0000
  C   C117      1.0  0.27169  0.17169  0.59831  1.0000
  C   C118      1.0  0.28262  0.18619  0.59401  1.0000
  C   C119      1.0  0.27489  0.20540  0.58536  1.0000
  C   C120      1.0  0.25607  0.21022  0.58135  1.0000
  H   H199      1.0  0.24426  0.16539  0.59790  1.0000
  H   H200      1.0  0.27743  0.15689  0.60533  1.0000
  H   H201      1.0  0.28341  0.21657  0.58189  1.0000
  H   H202      1.0  0.25030  0.22497  0.57438  1.0000
  C   C121      1.0  0.13719  0.19841  0.57596  1.0000
  C   C122      1.0  0.12144  0.21376  0.57160  1.0000
  C   C123      1.0  0.12175  0.23311  0.57188  1.0000
  C   C124      1.0  0.13809  0.23721  0.57586  1.0000
  C   C125      1.0  0.15379  0.22182  0.58015  1.0000
  C   C126      1.0  0.15321  0.20249  0.58048  1.0000
  H   H203      1.0  0.10888  0.21069  0.56838  1.0000
  H   H204      1.0  0.10942  0.24490  0.56883  1.0000
  H   H205      1.0  0.16645  0.22472  0.58325  1.0000
  H   H206      1.0  0.16534  0.19075  0.58405  1.0000
  H   H207      1.0  0.13069  0.06070  0.50524  1.0000
  H   H208      1.0  0.01616  0.17333  0.54652  1.0000
  C   C127      1.0  0.04311  0.15195  0.54167  1.0000
  C   C128      1.0  0.05289  0.13593  0.53294  1.0000
  C   C129      1.0  0.04307  0.12847  0.52301  1.0000
  C   C130      1.0  0.02357  0.13720  0.52144  1.0000
  C   C131      1.0  0.01405  0.15363  0.52962  1.0000
  C   C132      1.0  0.02369  0.16079  0.53996  1.0000
  H   H209      1.0  0.06787  0.12901  0.53423  1.0000
  H   H210      1.0  0.30532  0.18512  0.51594  1.0000
  H   H211      1.0  0.24091  0.48367  0.67316  1.0000
  H   H212      1.0  0.99926  0.16077  0.52806  1.0000
  C   C133      1.0  0.17907  0.06941  0.56409  1.0000
  C   C134      1.0  0.19000  0.07497  0.54542  1.0000
  C   C135      1.0  0.18119  0.08965  0.53152  1.0000
  C   C136      1.0  0.16152  0.09908  0.53634  1.0000
  C   C137      1.0  0.15079  0.09408  0.55525  1.0000
  C   C138      1.0  0.15955  0.07918  0.56910  1.0000
  H   H213      1.0  0.20512  0.06763  0.54147  1.0000
  H   H214      1.0  0.13553  0.10111  0.55899  1.0000
  H   H215      1.0  0.15106  0.07494  0.58356  1.0000
  H   H216      1.0  0.26964  0.30194  0.64729  1.0000
  H   H217      1.0  0.18313  0.23125  0.49107  1.0000
  N   N8        1.0  0.28963  0.31180  0.68242  1.0000
  C   C139      1.0  0.28215  0.04715  0.59861  1.0000
  C   C140      1.0  0.29749  0.04927  0.60594  1.0000
  C   C141      1.0  0.29500  0.06486  0.61522  1.0000
  C   C142      1.0  0.27696  0.07815  0.61765  1.0000
  C   C143      1.0  0.26144  0.07571  0.61079  1.0000
  C   C144      1.0  0.26408  0.06038  0.60109  1.0000
  H   H218      1.0  0.31148  0.03906  0.60410  1.0000
  H   H219      1.0  0.30700  0.06659  0.62053  1.0000
  H   H220      1.0  0.24745  0.08592  0.61271  1.0000
  H   H221      1.0  0.25213  0.05875  0.59564  1.0000
  C   C145      1.0  0.29532  0.04622  0.49628  1.0000
  C   C146      1.0  0.21007  0.29373  0.62976  1.0000
  C   C147      1.0  0.20966  0.29832  0.64754  1.0000
  C   C148      1.0  0.22002  0.31203  0.64815  1.0000
  C   C149      1.0  0.23103  0.32108  0.63100  1.0000
  C   C150      1.0  0.23226  0.31574  0.61336  1.0000
  C   C151      1.0  0.22163  0.30224  0.61269  1.0000
  H   H222      1.0  0.20088  0.29162  0.66081  1.0000
  H   H223      1.0  0.21930  0.31576  0.66187  1.0000
  H   H224      1.0  0.22212  0.29871  0.59892  1.0000
  C   C152      1.0  0.24065  0.43907  0.66532  1.0000
  C   C153      1.0  0.24408  0.42752  0.68328  1.0000
  C   C154      1.0  0.24623  0.43614  0.69759  1.0000
  C   C155      1.0  0.24488  0.45640  0.69407  1.0000
  C   C156      1.0  0.24180  0.46802  0.67599  1.0000
  C   C157      1.0  0.23972  0.45933  0.66158  1.0000
  H   H225      1.0  0.24538  0.41186  0.68607  1.0000
  H   H226      1.0  0.29477  0.16208  0.54349  1.0000
  H   H227      1.0  0.29109  0.39580  0.69552  1.0000
  N   N9        1.0  0.30573  0.08842  0.54882  1.0000
  C   C158      1.0  0.29886  0.09769  0.56647  1.0000
  C   C159      1.0  0.28786  0.08561  0.54349  1.0000
  H   H228      1.0  0.01032  0.20288  0.48858  1.0000
  C   C160      1.0  0.28320  0.11700  0.56471  1.0000
  C   C161      1.0  0.15275  0.26421  0.51826  1.0000
  C   C162      1.0  0.27454  0.30509  0.69989  1.0000
  H   H229      1.0  0.29268  0.08727  0.57921  1.0000
  H   H230      1.0  0.11948  0.47005  0.71622  1.0000
  H   H231      1.0  0.15983  0.26175  0.53090  1.0000
  H   H232      1.0  0.28127  0.09911  0.53381  1.0000
  H   H233      1.0  0.16125  0.01383  0.55092  1.0000
  H   H234      1.0  0.29474  0.31541  0.65093  1.0000
  H   H235      1.0  0.16036  0.19695  0.53457  1.0000
  H   H236      1.0  0.28921  0.18383  0.55295  1.0000
  C   C163      1.0  0.20123  0.04509  0.49023  1.0000
  H   H237      1.0  0.16263  0.22886  0.53830  1.0000
  H   H238      1.0  0.18244  0.46861  0.67377  1.0000
  H   H239      1.0  0.25558  0.20759  0.54212  1.0000
  H   H240      1.0  0.17296  0.43684  0.68214  1.0000
  H   H241      1.0  0.29237  0.05404  0.54441  1.0000
  N   N10       1.0  0.24781  0.21781  0.64080  1.0000
  H   H242      1.0  0.26987  0.11550  0.56086  1.0000
  H   H243      1.0  0.15847  0.27654  0.50768  1.0000
  H   H244      1.0  0.16675  0.07597  0.50581  1.0000
  C   C164      1.0  0.27159  0.37570  0.70662  1.0000
  H   H245      1.0  0.28930  0.48184  0.72611  1.0000
  C   C165      1.0  0.15907  0.04474  0.53577  1.0000
  N   N11       1.0  0.28107  0.21055  0.51870  1.0000
  C   C166      1.0  0.15057  0.46524  0.70290  1.0000
  S   S54       1.0  0.31136  0.12663  0.59582  1.0000
  C   C167      1.0  0.28453  0.21957  0.49723  1.0000
  C   C168      1.0  0.28928  0.22062  0.52966  1.0000
  H   H246      1.0  0.16788  0.99823  0.50702  1.0000
  S   S55       1.0  0.24665  0.46663  0.71283  1.0000
  C   C169      1.0  0.31620  0.10215  0.53265  1.0000
  H   H247      1.0  0.32002  0.33453  0.66357  1.0000
  H   H248      1.0  0.28862  0.43452  0.68539  1.0000
  H   H249      1.0  0.25658  0.30143  0.67177  1.0000
  H   H250      1.0  0.29754  0.27075  0.69186  1.0000
  H   H251      1.0  0.05057  0.11584  0.51659  1.0000
  H   H252      1.0  0.31756  0.22571  0.53012  1.0000
  H   H253      1.0  0.30425  0.43301  0.71145  1.0000
  H   H254      1.0  0.28696  0.23669  0.52347  1.0000
  H   H255      1.0  0.16109  0.05789  0.53963  1.0000
  H   H256      1.0  0.25064  0.26600  0.61594  1.0000
  N   N12       1.0  0.17044  0.46698  0.70462  1.0000
  H   H257      1.0  0.20704  0.21929  0.64142  1.0000
  H   H258      1.0  0.32172  0.42464  0.69170  1.0000
  H   H259      1.0  0.30194  0.47854  0.69337  1.0000
  H   H260      1.0  0.27001  0.17543  0.54773  1.0000
  H   H261      1.0  0.27722  0.06970  0.52820  1.0000
  H   H262      1.0  0.31275  0.20336  0.54531  1.0000
  H   H263      1.0  0.29846  0.34624  0.65305  1.0000
  H   H264      1.0  0.31654  0.29865  0.69346  1.0000
  H   H265      1.0  0.13779  0.41591  0.71140  1.0000
  C   C170      1.0  0.19009  0.04171  0.51163  1.0000
  N   N13       1.0  0.15819  0.24602  0.50978  1.0000
  C   C171      1.0  0.15568  0.22867  0.52634  1.0000
  C   C172      1.0  0.17901  0.24386  0.49852  1.0000
  H   H266      1.0  0.18587  0.36689  0.72013  1.0000
  C   C173      1.0  0.30943  0.29804  0.68176  1.0000
  C   C174      1.0  0.19461  0.24173  0.51037  1.0000
  H   H267      1.0  0.13234  0.07631  0.52061  1.0000
  H   H268      1.0  0.20126  0.43308  0.72633  1.0000
  C   C175      1.0  0.29061  0.06821  0.53373  1.0000
  H   H269      1.0  0.13452  0.08517  0.49508  1.0000
  H   H270      1.0  0.23206  0.23503  0.53138  1.0000
  H   H271      1.0  0.27951  0.28414  0.66633  1.0000
  C   C176      1.0  0.21885  0.23144  0.66693  1.0000
  S   S56       1.0  0.24786  0.34906  0.72041  1.0000
  H   H272      1.0  0.20936  0.23941  0.50075  1.0000
  H   H273      1.0  0.19447  0.22907  0.52285  1.0000
  H   H274      1.0  0.19280  0.25539  0.51555  1.0000
  C   C177      1.0  0.31120  0.21304  0.53088  1.0000
  N   N14       1.0  0.16655  0.35028  0.63626  1.0000
  C   C178      1.0  0.18200  0.35072  0.61768  1.0000
  C   C179      1.0  0.16005  0.33107  0.64073  1.0000
  C   C180      1.0  0.17565  0.35150  0.65242  1.0000
  C   C181      1.0  0.15000  0.36772  0.63284  1.0000
  C   C182      1.0  0.19368  0.36713  0.61227  1.0000
  C   C183      1.0  0.15181  0.32719  0.62479  1.0000
  C   C184      1.0  0.16680  0.34218  0.67345  1.0000
  C   C185      1.0  0.13213  0.36993  0.64975  1.0000
  H   H275      1.0  0.19296  0.33659  0.61840  1.0000
  H   H276      1.0  0.17546  0.35226  0.60490  1.0000
  H   H277      1.0  0.14878  0.32938  0.65431  1.0000
  H   H278      1.0  0.17254  0.31860  0.64356  1.0000
  H   H279      1.0  0.19138  0.34406  0.65022  1.0000
  H   H280      1.0  0.17548  0.36704  0.65222  1.0000
  H   H281      1.0  0.15528  0.38158  0.62966  1.0000
  H   H282      1.0  0.14475  0.36858  0.61944  1.0000
  H   H283      1.0  0.18419  0.38202  0.61050  1.0000
  H   H284      1.0  0.20291  0.36541  0.62290  1.0000
  H   H285      1.0  0.20397  0.36607  0.59807  1.0000
  H   H286      1.0  0.13914  0.33886  0.62095  1.0000
  H   H287      1.0  0.16329  0.32506  0.61155  1.0000
  H   H288      1.0  0.14658  0.31321  0.63035  1.0000
  H   H289      1.0  0.17387  0.34560  0.68371  1.0000
  H   H290      1.0  0.16990  0.32593  0.67570  1.0000
  H   H291      1.0  0.15090  0.34792  0.67772  1.0000
  H   H292      1.0  0.13482  0.37711  0.66037  1.0000
  H   H293      1.0  0.12769  0.35596  0.65742  1.0000
  H   H294      1.0  0.11919  0.37914  0.64378  1.0000
  H   H295      1.0  0.24697  0.25800  0.64175  1.0000
  N   N15       1.0  0.05290  0.19461  0.48342  1.0000
  H   H296      1.0  0.06407  0.18858  0.51968  1.0000
  C   C186      1.0  0.19584  0.44889  0.72675  1.0000
  H   H297      1.0  0.27844  0.12137  0.57912  1.0000
  H   H298      1.0  0.31241  0.27371  0.66745  1.0000
  H   H299      1.0  0.27719  0.21839  0.64289  1.0000
  C   C187      1.0  0.23820  0.20314  0.63730  1.0000
  H   H300      1.0  0.03020  0.19721  0.50951  1.0000
  C   C188      1.0  0.16363  0.20821  0.52117  1.0000
  H   H301      1.0  0.27060  0.18626  0.66515  1.0000
  H   H302      1.0  0.18260  0.02355  0.54965  1.0000
  C   C189      1.0  0.28242  0.31469  0.66383  1.0000
  C   C190      1.0  0.16650  0.02689  0.55099  1.0000
  H   H303      1.0  0.99718  0.09693  0.56688  1.0000
  H   H304      1.0  0.26993  0.24883  0.62606  1.0000
  H   H305      1.0  0.30597  0.11623  0.52827  1.0000
  C   C191      1.0  0.05647  0.17269  0.49079  1.0000
  C   C192      1.0  0.29715  0.44592  0.68329  1.0000
  S   S57       1.0  0.01167  0.12720  0.50915  1.0000
  N   N16       1.0  0.32450  0.45208  0.69664  1.0000
  H   H306      1.0  0.29852  0.33006  0.69685  1.0000
  C   C193      1.0  0.24491  0.23665  0.62579  1.0000
  H   H307      1.0  0.29222  0.18402  0.64652  1.0000
  H   H308      1.0  0.24775  0.19587  0.62537  1.0000
  C   C194      1.0  0.31912  0.06881  0.55431  1.0000
  H   H309      1.0  0.25118  0.23365  0.61086  1.0000
  H   H310      1.0  0.04245  0.16813  0.49820  1.0000
  Fe  Fe26      1.0  0.19667  0.37810  0.68007  1.0000
  H   H311      1.0  0.14441  0.11893  0.58660  1.0000
  C   C195      1.0  0.04262  0.20413  0.50068  1.0000
  C   C196      1.0  0.20236  0.15505  0.58893  1.0000
  C   C197      1.0  0.31036  0.27630  0.68237  1.0000
  H   H312      1.0  0.21423  0.15705  0.57589  1.0000
  C   C198      1.0  0.16183  0.39088  0.71372  1.0000
  H   H313      1.0  0.14800  0.47186  0.68784  1.0000
  Fe  Fe27      1.0  0.23169  0.35777  0.65409  1.0000
  H   H314      1.0  0.31075  0.05886  0.56578  1.0000
  H   H315      1.0  0.27615  0.08300  0.55674  1.0000
  S   S58       1.0  0.25555  0.06109  0.50121  1.0000
  S   S59       1.0  0.16415  0.38681  0.69038  1.0000
  H   H316      1.0  0.13990  0.22943  0.53305  1.0000
  H   H317      1.0  0.25278  0.20486  0.51940  1.0000
  H   H318      1.0  0.26813  0.29586  0.73142  1.0000
  S   S60       1.0  0.25294  0.36994  0.66299  1.0000
  H   H319      1.0  0.20108  0.08143  0.60846  1.0000
  C   C199      1.0  0.18580  0.43794  0.68721  1.0000
  C   C200      1.0  0.13277  0.47455  0.71704  1.0000
  H   H320      1.0  0.18676  0.42776  0.70145  1.0000
  C   C201      1.0  0.17423  0.45565  0.72442  1.0000
  H   H321      1.0  0.16083  0.10778  0.60291  1.0000
  C   C202      1.0  0.25377  0.25308  0.62779  1.0000
  C   C203      1.0  0.15658  0.12117  0.59198  1.0000
  H   H322      1.0  0.19892  0.43291  0.67637  1.0000
  C   C204      1.0  0.27594  0.18806  0.64919  1.0000
  C   C205      1.0  0.29191  0.33146  0.68415  1.0000
  Fe  Fe28      1.0  0.23541  0.36223  0.69328  1.0000
  H   H323      1.0  0.19358  0.08786  0.58612  1.0000
  H   H324      1.0  0.24095  0.32254  0.60006  1.0000
  H   H325      1.0  0.17709  0.11160  0.56777  1.0000
  H   H326      1.0  0.28645  0.45921  0.68701  1.0000
  H   H327      1.0  0.24968  0.22916  0.66517  1.0000
  H   H328      1.0  0.28322  0.18212  0.51265  1.0000
  H   H329      1.0  0.21887  0.08650  0.58632  1.0000
  H   H330      1.0  0.15047  0.13397  0.59905  1.0000
  C   C206      1.0  0.20341  0.09103  0.59374  1.0000
  C   C207      1.0  0.27155  0.29946  0.66253  1.0000
  H   H331      1.0  0.27189  0.32904  0.66129  1.0000
  H   H332      1.0  0.22922  0.24323  0.62573  1.0000
  H   H333      1.0  0.29186  0.03268  0.50537  1.0000
  C   C208      1.0  0.17366  0.12453  0.57452  1.0000
  C   C209      1.0  0.13065  0.27175  0.52542  1.0000
  H   H334      1.0  0.24915  0.42700  0.71133  1.0000
  H   H335      1.0  0.19381  0.05182  0.51873  1.0000
  H   H336      1.0  0.32132  0.48061  0.70293  1.0000
  C   C210      1.0  0.00693  0.12377  0.58626  1.0000
  C   C211      1.0  0.18523  0.45920  0.68803  1.0000
  C   C212      1.0  0.20775  0.12933  0.56113  1.0000
  H   H337      1.0  0.14293  0.04609  0.53861  1.0000
  H   H338      1.0  0.21221  0.09948  0.55534  1.0000
  H   H339      1.0  0.16781  0.13707  0.56338  1.0000
  H   H340      1.0  0.18830  0.11393  0.60990  1.0000
  H   H341      1.0  0.31436  0.20261  0.48713  1.0000
  H   H342      1.0  0.12356  0.26007  0.53546  1.0000
  H   H343      1.0  0.32487  0.06116  0.54191  1.0000
  H   H344      1.0  0.16018  0.03032  0.56572  1.0000
  H   H345      1.0  0.27132  0.17734  0.64370  1.0000
  H   H346      1.0  0.24599  0.24042  0.50736  1.0000
  C   C213      1.0  0.22527  0.28307  0.49299  1.0000
  C   C214      1.0  0.19869  0.11260  0.59575  1.0000
  H   H347      1.0  0.26042  0.31614  0.70024  1.0000
  H   H348      1.0  0.27800  0.23557  0.49460  1.0000
  H   H349      1.0  0.27639  0.20965  0.62251  1.0000
  H   H350      1.0  0.31562  0.09280  0.50626  1.0000
  H   H351      1.0  0.22455  0.11597  0.53653  1.0000
  C   C215      1.0  0.29307  0.38065  0.72496  1.0000
  H   H352      1.0  0.24072  0.27671  0.49224  1.0000
  N   N17       1.0  0.19157  0.12797  0.57913  1.0000
  C   C216      1.0  0.21081  0.11496  0.54760  1.0000
  H   H353      1.0  0.17424  0.14748  0.59868  1.0000
  H   H354      1.0  0.24218  0.20685  0.67196  1.0000
  C   C217      1.0  0.21813  0.21095  0.63126  1.0000
  H   H355      1.0  0.30429  0.44869  0.66768  1.0000
  C   C218      1.0  0.28026  0.06209  0.49130  1.0000
  H   H356      1.0  0.21245  0.11500  0.59806  1.0000
  C   C219      1.0  0.18574  0.14761  0.58513  1.0000
  C   C220      1.0  0.28577  0.38507  0.70787  1.0000
  C   C221      1.0  0.16068  0.06457  0.50290  1.0000
  H   H357      1.0  0.25325  0.24474  0.52785  1.0000
  C   C222      1.0  0.25914  0.21336  0.52612  1.0000
  H   H358      1.0  0.20616  0.45724  0.71618  1.0000
  H   H359      1.0  0.03607  0.21992  0.49571  1.0000
  C   C223      1.0  0.18553  0.30015  0.49452  1.0000
  C   C224      1.0  0.28929  0.18871  0.52149  1.0000
  H   H360      1.0  0.17914  0.15921  0.57376  1.0000
  H   H361      1.0  0.19876  0.11898  0.53943  1.0000
  H   H362      1.0  0.20513  0.14423  0.55160  1.0000
  C   C225      1.0  0.26964  0.20937  0.63818  1.0000
  H   H363      1.0  0.14980  0.23389  0.48975  1.0000
  H   H364      1.0  0.21716  0.03900  0.48971  1.0000
  H   H365      1.0  0.19408  0.48867  0.71551  1.0000
  H   H366      1.0  0.22209  0.12743  0.56520  1.0000
  H   H367      1.0  0.19622  0.16973  0.59275  1.0000
  H   H368      1.0  0.18061  0.25687  0.48653  1.0000
  H   H369      1.0  0.18954  0.00782  0.50000  1.0000
  C   C226      1.0  0.24724  0.23470  0.52284  1.0000
  H   H370      1.0  0.00993  0.12799  0.57021  1.0000
  H   H371      1.0  0.19681  0.02679  0.51876  1.0000
  H   H372      1.0  0.20855  0.14548  0.60150  1.0000
  H   H373      1.0  0.20036  0.45978  0.68808  1.0000
  H   H374      1.0  0.21340  0.24291  0.65504  1.0000
  H   H375      1.0  0.21723  0.23938  0.67867  1.0000
  H   H376      1.0  0.21964  0.22012  0.61633  1.0000
  C   C227      1.0  0.24048  0.22110  0.66136  1.0000
  H   H377      1.0  0.01893  0.11094  0.58959  1.0000
  S   S61       1.0  0.21484  0.39141  0.69160  1.0000
  H   H378      1.0  0.21231  0.19834  0.63073  1.0000
  S   S62       1.0  0.21577  0.34786  0.68462  1.0000
  H   H379      1.0  0.20922  0.22064  0.67230  1.0000
  Fe  Fe29      1.0  0.31417  0.14842  0.61133  1.0000
  C   C228      1.0  0.05540  0.20341  0.51511  1.0000
  C   C229      1.0  0.13821  0.07181  0.50633  1.0000
  C   C230      1.0  0.26491  0.36154  0.72232  1.0000
  H   H380      1.0  0.19962  0.06102  0.48376  1.0000
  N   N18       1.0  0.16816  0.04455  0.51458  1.0000
  C   C231      1.0  0.28018  0.30111  0.71990  1.0000
  H   H381      1.0  0.17792  0.00225  0.52528  1.0000
  C   C232      1.0  0.28546  0.17709  0.54270  1.0000
  H   H382      1.0  0.28926  0.12913  0.55417  1.0000
  H   H383      1.0  0.17976  0.20508  0.51608  1.0000
  C   C233      1.0  0.16215  0.02922  0.50791  1.0000
  H   H384      1.0  0.15645  0.20613  0.51029  1.0000
  C   C234      1.0  0.14523  0.24724  0.49606  1.0000
  C   C235      1.0  0.17517  0.37912  0.72515  1.0000
  H   H385      1.0  0.31128  0.10111  0.57045  1.0000
  H   H386      1.0  0.28183  0.31457  0.72342  1.0000
  H   H387      1.0  0.30471  0.35682  0.66961  1.0000
  S   S63       1.0  0.31165  0.39193  0.72539  1.0000
  H   H388      1.0  0.16839  0.44200  0.72854  1.0000
  C   C236      1.0  0.31497  0.04782  0.48944  1.0000
  H   H389      1.0  0.29364  0.28951  0.72103  1.0000
  H   H390      1.0  0.04576  0.20791  0.52854  1.0000
  C   C237      1.0  0.29899  0.46751  0.72393  1.0000
  H   H391      1.0  0.32303  0.26706  0.68880  1.0000
  C   C238      1.0  0.17523  0.00834  0.51037  1.0000
  C   C239      1.0  0.30457  0.34260  0.66641  1.0000
  H   H392      1.0  0.17022  0.30706  0.49503  1.0000
  H   H393      1.0  0.16153  0.03375  0.49214  1.0000
  H   H394      1.0  0.30314  0.06747  0.52131  1.0000
  H   H395      1.0  0.00850  0.13582  0.59229  1.0000
  C   C240      1.0  0.16986  0.48851  0.70228  1.0000
  H   H396      1.0  0.31401  0.47642  0.66091  1.0000
  H   H397      1.0  0.06549  0.16806  0.50208  1.0000
  H   H398      1.0  0.27263  0.99068  0.60449  1.0000
  C   C241      1.0  0.32633  0.09471  0.51375  1.0000
  H   H399      1.0  0.06726  0.14423  0.48294  1.0000
  H   H400      1.0  0.32655  0.03557  0.49353  1.0000
  H   H401      1.0  0.18801  0.43254  0.95790  1.0000
  C   C242      1.0  0.10436  0.40209  0.78301  1.0000
  H   H402      1.0  0.99944  0.46835  0.81749  1.0000
  C   C243      1.0  0.30165  0.48689  0.88308  1.0000
  C   C244      1.0  0.18087  0.46239  0.96268  1.0000
  H   H403      1.0  0.21323  0.39614  0.73851  1.0000
  C   C245      1.0  0.28232  0.47446  0.80828  1.0000
  H   H404      1.0  0.26996  0.46679  0.81455  1.0000
  H   H405      1.0  0.08349  0.41009  0.76304  1.0000
  S   S64       1.0  0.12887  0.42677  0.81321  1.0000
  H   H406      1.0  0.13719  0.37340  0.77721  1.0000
  Fe  Fe30      1.0  0.29680  0.40708  0.79291  1.0000
  S   S65       1.0  0.30332  0.42394  0.76233  1.0000
  S   S66       1.0  0.26648  0.41761  0.80981  1.0000
  H   H407      1.0  0.19667  0.45034  0.74138  1.0000
  Fe  Fe31      1.0  0.31573  0.39468  0.75415  1.0000
  N   N19       1.0  0.23036  0.40060  0.77806  1.0000
  C   C246      1.0  0.10730  0.36576  0.78729  1.0000
  S   S67       1.0  0.30659  0.37771  0.78430  1.0000
  C   C247      1.0  0.24443  0.42976  0.75510  1.0000
  S   S68       1.0  0.07194  0.44410  0.81668  1.0000
  S   S69       1.0  0.27107  0.45559  0.87716  1.0000
  H   H408      1.0  0.09701  0.41494  0.78996  1.0000
  H   H409      1.0  0.20400  0.39516  0.77343  1.0000
  H   H410      1.0  0.12012  0.40195  0.78071  1.0000
  Fe  Fe32      1.0  0.14271  0.43081  0.78154  1.0000
  S   S70       1.0  0.16256  0.40420  0.77149  1.0000
  H   H411      1.0  0.28829  0.48652  0.87843  1.0000
  C   C248      1.0  0.02915  0.43301  0.78528  1.0000
  C   C249      1.0  0.04715  0.43763  0.77462  1.0000
  C   C250      1.0  0.06023  0.44150  0.78392  1.0000
  C   C251      1.0  0.05561  0.44037  0.80408  1.0000
  C   C252      1.0  0.03762  0.43573  0.81473  1.0000
  C   C253      1.0  0.02443  0.43213  0.80540  1.0000
  H   H412      1.0  0.05087  0.43849  0.75903  1.0000
  H   H413      1.0  0.07385  0.44535  0.77548  1.0000
  H   H414      1.0  0.15466  0.47855  0.93850  1.0000
  H   H415      1.0  0.30763  0.46756  0.85542  1.0000
  C   C254      1.0  0.26674  0.42658  0.83004  1.0000
  C   C255      1.0  0.28389  0.42204  0.83726  1.0000
  C   C256      1.0  0.28489  0.43086  0.85191  1.0000
  C   C257      1.0  0.26861  0.44405  0.85970  1.0000
  C   C258      1.0  0.25110  0.44813  0.85306  1.0000
  C   C259      1.0  0.25014  0.43930  0.83826  1.0000
  H   H416      1.0  0.29640  0.41160  0.83166  1.0000
  H   H417      1.0  0.29832  0.42738  0.85727  1.0000
  H   H418      1.0  0.23840  0.45815  0.85922  1.0000
  H   H419      1.0  0.23673  0.44268  0.83288  1.0000
  H   H420      1.0  0.26280  0.37969  0.79724  1.0000
  H   H421      1.0  0.30926  0.45252  0.81135  1.0000
  C   C260      1.0  0.20230  0.40501  0.80804  1.0000
  S   S71       1.0  0.15672  0.45483  0.78166  1.0000
  C   C261      1.0  0.99417  0.48831  0.76017  1.0000
  C   C262      1.0  0.22493  0.39351  0.74685  1.0000
  N   N20       1.0  0.16468  0.48049  0.96366  1.0000
  H   H422      1.0  0.26932  0.47056  0.75937  1.0000
  H   H423      1.0  0.26688  0.46116  0.78497  1.0000
  S   S72       1.0  0.21965  0.46724  0.91364  1.0000
  H   H424      1.0  0.25868  0.43356  0.74700  1.0000
  C   C263      1.0  0.16162  0.39935  0.74938  1.0000
  H   H425      1.0  0.09983  0.36828  0.82618  1.0000
  H   H426      1.0  0.26705  0.34609  0.75165  1.0000
  H   H427      1.0  0.09847  0.39399  0.82193  1.0000
  H   H428      1.0  0.00930  0.48062  0.75460  1.0000
  H   H429      1.0  0.18546  0.37413  0.75166  1.0000
  H   H430      1.0  0.10629  0.35217  0.79871  1.0000
  H   H431      1.0  0.13492  0.38722  0.80464  1.0000
  H   H432      1.0  0.23733  0.44038  0.76476  1.0000
  N   N21       1.0  0.09894  0.38362  0.79632  1.0000
  C   C264      1.0  0.15095  0.48276  0.86996  1.0000
  H   H433      1.0  0.10701  0.39534  0.75420  1.0000
  H   H434      1.0  0.23546  0.43180  0.74416  1.0000
  C   C265      1.0  0.12733  0.37603  0.81488  1.0000
  H   H435      1.0  0.23007  0.37738  0.75070  1.0000
  H   H436      1.0  0.29180  0.36322  0.75408  1.0000
  H   H437      1.0  0.18518  0.45552  0.97688  1.0000
  C   C266      1.0  0.18486  0.46585  0.86850  1.0000
  H   H438      1.0  0.19565  0.44524  0.84935  1.0000
  H   H439      1.0  0.07381  0.35607  0.81139  1.0000
  H   H440      1.0  0.05158  0.37401  0.81496  1.0000
  H   H441      1.0  0.25285  0.35835  0.80777  1.0000
  Fe  Fe33      1.0  0.14150  0.45210  0.81308  1.0000
  H   H442      1.0  0.20562  0.47394  0.78381  1.0000
  H   H443      1.0  0.09826  0.36563  0.77697  1.0000
  H   H444      1.0  0.07016  0.40075  0.80643  1.0000
  H   H445      1.0  0.21425  0.42777  0.78713  1.0000
  S   S73       1.0  0.16453  0.44694  0.83109  1.0000
  H   H446      1.0  0.17776  0.45022  0.93902  1.0000
  C   C267      1.0  0.09942  0.40700  0.76256  1.0000
  C   C268      1.0  0.29989  0.45898  0.80032  1.0000
  H   H447      1.0  0.18997  0.40697  0.80074  1.0000
  C   C269      1.0  0.22003  0.41224  0.79369  1.0000
  H   H448      1.0  0.24054  0.38067  0.81570  1.0000
  Fe  Fe34      1.0  0.12887  0.47477  0.77501  1.0000
  C   C270      1.0  0.07680  0.38709  0.80063  1.0000
  H   H449      1.0  0.25734  0.39902  0.75619  1.0000
  C   C271      1.0  0.24829  0.40843  0.76663  1.0000
  H   H450      1.0  0.12943  0.36475  0.76001  1.0000
  H   H451      1.0  0.03392  0.43477  0.83034  1.0000
  H   H452      1.0  0.25804  0.40796  0.77643  1.0000
  C   C272      1.0  0.24888  0.37452  0.80273  1.0000
  C   C273      1.0  0.21629  0.40249  0.76517  1.0000
  H   H453      1.0  0.06829  0.37011  0.83041  1.0000
  C   C274      1.0  0.28607  0.36682  0.74091  1.0000
  C   C275      1.0  0.27215  0.35710  0.73949  1.0000
  S   S74       1.0  0.11606  0.45091  0.77165  1.0000
  H   H454      1.0  0.01070  0.42845  0.81382  1.0000
  C   C276      1.0  0.06747  0.37066  0.81521  1.0000
  H   H455      1.0  0.13788  0.42364  0.74297  1.0000
  H   H456      1.0  0.19679  0.41403  0.81941  1.0000
  C   C277      1.0  0.32196  0.46972  0.85656  1.0000
  C   C278      1.0  0.14804  0.41107  0.73814  1.0000
  H   H457      1.0  0.13706  0.34819  0.78076  1.0000
  Fe  Fe35      1.0  0.10300  0.44900  0.80349  1.0000
  H   H458      1.0  0.24610  0.37114  0.77520  1.0000
  H   H459      1.0  0.22405  0.37199  0.79281  1.0000
  H   H460      1.0  0.20610  0.38957  0.81576  1.0000
  H   H461      1.0  0.07118  0.38932  0.78716  1.0000
  H   H462      1.0  0.30949  0.46444  0.78660  1.0000
  H   H463      1.0  0.02495  0.47200  0.78704  1.0000
  C   C279      1.0  0.16542  0.45933  0.84876  1.0000
  H   H464      1.0  0.19861  0.46305  0.87315  1.0000
  H   H465      1.0  0.24898  0.48174  0.77548  1.0000
  H   H466      1.0  0.13446  0.36129  0.81167  1.0000
  H   H467      1.0  0.29475  0.44654  0.79842  1.0000
  S   S75       1.0  0.22551  0.47901  0.95984  1.0000
  Fe  Fe36      1.0  0.24434  0.47604  0.88981  1.0000
  C   C280      1.0  0.18313  0.45575  0.85505  1.0000
  S   S76       1.0  0.01296  0.42877  0.77287  1.0000
  C   C281      1.0  0.12882  0.36328  0.77578  1.0000
  H   H468      1.0  0.16216  0.44265  0.96227  1.0000
  C   C282      1.0  0.26481  0.47483  0.77378  1.0000
  H   H469      1.0  0.12959  0.37573  0.82955  1.0000
  H   H470      1.0  0.23040  0.41298  0.80234  1.0000
  C   C283      1.0  0.23683  0.37916  0.78671  1.0000
  H   H471      1.0  0.10436  0.42062  0.75413  1.0000
  C   C284      1.0  0.14929  0.47282  0.85631  1.0000
  C   C285      1.0  0.10516  0.38072  0.81539  1.0000
  H   H472      1.0  0.32527  0.43810  0.86715  1.0000
  C   C286      1.0  0.17667  0.44615  0.95506  1.0000
  H   H473      1.0  0.28583  0.47797  0.82089  1.0000
  S   S77       1.0  0.11425  0.47436  0.80643  1.0000
  H   H474      1.0  0.20915  0.41809  0.76049  1.0000
  S   S78       1.0  0.32573  0.40710  0.79919  1.0000
  C   C287      1.0  0.17496  0.38326  0.74299  1.0000
  H   H475      1.0  0.31597  0.46848  0.90740  1.0000
  C   C288      1.0  0.16087  0.48869  0.94326  1.0000
  H   H476      1.0  0.16607  0.46425  0.73582  1.0000
  H   H477      1.0  0.29219  0.48426  0.76661  1.0000
  H   H478      1.0  0.29006  0.47227  0.91226  1.0000
  C   C289      1.0  0.16876  0.47940  0.87600  1.0000
  H   H479      1.0  0.13554  0.47552  0.85171  1.0000
  C   C290      1.0  0.30341  0.46972  0.90074  1.0000
  N   N22       1.0  0.31888  0.48687  0.86612  1.0000
  C   C291      1.0  0.14583  0.47629  0.97714  1.0000
  H   H480      1.0  0.30368  0.45567  0.89704  1.0000
  H   H481      1.0  0.13748  0.47081  0.96945  1.0000
  H   H482      1.0  0.21275  0.48318  0.80075  1.0000
  C   C292      1.0  0.20396  0.48744  0.78929  1.0000
  H   H483      1.0  0.19450  0.46640  0.95299  1.0000
  H   H484      1.0  0.17634  0.48242  0.80734  1.0000
  H   H485      1.0  0.03282  0.48457  0.81145  1.0000
  C   C293      1.0  0.01972  0.48804  0.78610  1.0000
  H   H486      1.0  0.23691  0.40021  0.73684  1.0000
  H   H487      1.0  0.30785  0.46283  0.73539  1.0000
  C   C294      1.0  0.99332  0.48448  0.81466  1.0000
  H   H488      1.0  0.99363  0.46680  0.78690  1.0000
  Fe  Fe37      1.0  0.21973  0.51960  0.09303  1.0000
  S   S79       1.0  0.23151  0.54038  0.06648  1.0000
  S   S80       1.0  0.19810  0.52975  0.11876  1.0000
  H   H489      1.0  0.19567  0.57281  0.20048  1.0000
  C   C295      1.0  0.05826  0.55065  0.22834  1.0000
  H   H490      1.0  0.03014  0.51881  0.15274  1.0000
  Fe  Fe38      1.0  0.26112  0.52357  0.07169  1.0000
  S   S81       1.0  0.28579  0.53805  0.06989  1.0000
  Fe  Fe39      1.0  0.23304  0.51724  0.05001  1.0000
  H   H491      1.0  0.23861  0.50772  0.20185  1.0000
  C   C296      1.0  0.30777  0.60780  0.21207  1.0000
  H   H492      1.0  0.06524  0.49077  0.18212  1.0000
  H   H493      1.0  0.25508  0.57770  0.99054  1.0000
  S   S82       1.0  0.28259  0.55842  0.15076  1.0000
  H   H494      1.0  0.30582  0.58404  0.98398  1.0000
  C   C297      1.0  0.19602  0.53978  0.19102  1.0000
  C   C298      1.0  0.04809  0.56217  0.21124  1.0000
  C   C299      1.0  0.26614  0.57026  0.02604  1.0000
  S   S83       1.0  0.26378  0.50182  0.05337  1.0000
  S   S84       1.0  0.30928  0.57169  0.18394  1.0000
  H   H495      1.0  0.21296  0.55565  0.21266  1.0000
  S   S85       1.0  0.09948  0.51633  0.19693  1.0000
  Fe  Fe40      1.0  0.11844  0.51139  0.21865  1.0000
  H   H496      1.0  0.27944  0.57645  0.02239  1.0000
  C   C300      1.0  0.20863  0.55355  0.14898  1.0000
  C   C301      1.0  0.28144  0.50617  0.16426  1.0000
  H   H497      1.0  0.20941  0.56413  0.13476  1.0000
  C   C302      1.0  0.25975  0.54919  0.22500  1.0000
  H   H498      1.0  0.28280  0.54121  0.02745  1.0000
  H   H499      1.0  0.22486  0.58449  0.20360  1.0000
  C   C303      1.0  0.15896  0.49537  0.12813  1.0000
  Fe  Fe41      1.0  0.08191  0.49663  0.22001  1.0000
  H   H500      1.0  0.27668  0.49359  0.17528  1.0000
  H   H501      1.0  0.25391  0.58088  0.02004  1.0000
  H   H502      1.0  0.04302  0.52051  0.17793  1.0000
  C   C304      1.0  0.17439  0.50522  0.11936  1.0000
  Fe  Fe42      1.0  0.31083  0.55663  0.15993  1.0000
  C   C305      1.0  0.22567  0.51507  0.00353  1.0000
  C   C306      1.0  0.05798  0.52086  0.16901  1.0000
  S   S86       1.0  0.24934  0.50468  0.09951  1.0000
  S   S87       1.0  0.22434  0.52933  0.02052  1.0000
  H   H503      1.0  0.03839  0.57626  0.21412  1.0000
  H   H504      1.0  0.30857  0.60782  0.19657  1.0000
  C   C307      1.0  0.28013  0.54318  0.22092  1.0000
  H   H505      1.0  0.31133  0.62172  0.21214  1.0000
  N   N23       1.0  0.21274  0.55044  0.18432  1.0000
  H   H506      1.0  0.28765  0.54119  0.20639  1.0000
  H   H507      1.0  0.25175  0.55205  0.21358  1.0000
  C   C308      1.0  0.17844  0.51782  0.12887  1.0000
  C   C309      1.0  0.16700  0.52059  0.14710  1.0000
  C   C310      1.0  0.15174  0.51062  0.15594  1.0000
  C   C311      1.0  0.08333  0.57012  0.21890  1.0000
  C   C312      1.0  0.09384  0.50802  0.12638  1.0000
  C   C313      1.0  0.22967  0.49458  0.00834  1.0000
  H   H508      1.0  0.16996  0.53039  0.15448  1.0000
  H   H509      1.0  0.14297  0.51291  0.16999  1.0000
  H   H510      1.0  0.08797  0.59550  0.22729  1.0000
  H   H511      1.0  0.31175  0.49392  0.16586  1.0000
  C   C314      1.0  0.28452  0.54541  0.09164  1.0000
  C   C315      1.0  0.26729  0.54636  0.10593  1.0000
  C   C316      1.0  0.26681  0.55086  0.12379  1.0000
  C   C317      1.0  0.28360  0.55416  0.12763  1.0000
  C   C318      1.0  0.30081  0.55343  0.11328  1.0000
  C   C319      1.0  0.30119  0.54929  0.09522  1.0000
  H   H512      1.0  0.25428  0.54368  0.10322  1.0000
  H   H513      1.0  0.25344  0.55157  0.13473  1.0000
  H   H514      1.0  0.07582  0.58065  0.20756  1.0000
  H   H515      1.0  0.05891  0.56467  0.19737  1.0000
  H   H516      1.0  0.23267  0.52604  0.17284  1.0000
  C   C320      1.0  0.01579  0.50396  0.21433  1.0000
  C   C321      1.0  0.32200  0.58932  0.22060  1.0000
  C   C322      1.0  0.23234  0.53629  0.18207  1.0000
  C   C323      1.0  0.27070  0.55029  0.02010  1.0000
  C   C324      1.0  0.07310  0.50363  0.13173  1.0000
  H   H517      1.0  0.24427  0.54414  0.17372  1.0000
  H   H518      1.0  0.19125  0.53715  0.22312  1.0000
  C   C325      1.0  0.21087  0.56344  0.16455  1.0000
  C   C326      1.0  0.14776  0.49792  0.14652  1.0000
  H   H519      1.0  0.29455  0.51250  0.02045  1.0000
  H   H520      1.0  0.09618  0.51562  0.13680  1.0000
  H   H521      1.0  0.09573  0.51798  0.11183  1.0000
  S   S88       1.0  0.21850  0.49785  0.07639  1.0000
  C   C327      1.0  0.27900  0.52936  0.99650  1.0000
  H   H522      1.0  0.26556  0.52340  0.00366  1.0000
  H   H523      1.0  0.29235  0.60780  0.21963  1.0000
  C   C328      1.0  0.23898  0.52325  0.20082  1.0000
  H   H524      1.0  0.31382  0.55601  0.11610  1.0000
  C   C329      1.0  0.30571  0.49264  0.10300  1.0000
  H   H525      1.0  0.25776  0.54352  0.02716  1.0000
  S   S89       1.0  0.13165  0.53529  0.22172  1.0000
  C   C330      1.0  0.25858  0.56210  0.98949  1.0000
  H   H526      1.0  0.22039  0.54048  0.14667  1.0000
  H   H527      1.0  0.09320  0.55814  0.21168  1.0000
  H   H528      1.0  0.05708  0.53080  0.15472  1.0000
  C   C331      1.0  0.00487  0.49473  0.20729  1.0000
  C   C332      1.0  0.17690  0.49037  0.98973  1.0000
  H   H529      1.0  0.27156  0.51211  0.15371  1.0000
  H   H530      1.0  0.27984  0.51786  0.17229  1.0000
  H   H531      1.0  0.06548  0.52775  0.17617  1.0000
  C   C333      1.0  0.22494  0.57817  0.19113  1.0000
  H   H532      1.0  0.20401  0.51463  0.21456  1.0000
  H   H533      1.0  0.22390  0.57020  0.15797  1.0000
  H   H534      1.0  0.00984  0.51879  0.21661  1.0000
  H   H535      1.0  0.18299  0.50318  0.10521  1.0000
  C   C334      1.0  0.03462  0.49437  0.21773  1.0000
  H   H536      1.0  0.25437  0.52372  0.20023  1.0000
  C   C335      1.0  0.30315  0.50087  0.15415  1.0000
  H   H537      1.0  0.07184  0.49644  0.12036  1.0000
  H   H538      1.0  0.31457  0.54854  0.08424  1.0000
  H   H539      1.0  0.28155  0.49735  0.12734  1.0000
  H   H540      1.0  0.19409  0.54964  0.15246  1.0000
  C   C336      1.0  0.29718  0.49864  0.12302  1.0000
  N   N24       1.0  0.06766  0.49125  0.15171  1.0000
  H   H541      1.0  0.23046  0.52742  0.21465  1.0000
  H   H542      1.0  0.24503  0.55687  0.99767  1.0000
  H   H543      1.0  0.10744  0.58519  0.20978  1.0000
  H   H544      1.0  0.29516  0.49702  0.23006  1.0000
  H   H545      1.0  0.18295  0.50237  0.99139  1.0000
  H   H546      1.0  0.30745  0.51520  0.14721  1.0000
  C   C337      1.0  0.21088  0.56379  0.19795  1.0000
  H   H547      1.0  0.06283  0.51806  0.12965  1.0000
  S   S90       1.0  0.31621  0.53246  0.23001  1.0000
  H   H548      1.0  0.29684  0.51451  0.12025  1.0000
  H   H549      1.0  0.19798  0.57594  0.16596  1.0000
  H   H550      1.0  0.19783  0.52900  0.18181  1.0000
  H   H551      1.0  0.23648  0.49980  0.14433  1.0000
  H   H552      1.0  0.29348  0.49249  0.09642  1.0000
  C   C338      1.0  0.06982  0.49994  0.16765  1.0000
  C   C339      1.0  0.03138  0.50543  0.14744  1.0000
  H   H553      1.0  0.16372  0.48940  0.00152  1.0000
  C   C340      1.0  0.29642  0.51469  0.00446  1.0000
  H   H554      1.0  0.31336  0.50383  0.09260  1.0000
  H   H555      1.0  0.08545  0.49939  0.16729  1.0000
  H   H556      1.0  0.30522  0.55218  0.99877  1.0000
  C   C341      1.0  0.09650  0.58141  0.22328  1.0000
  H   H557      1.0  0.24027  0.57095  0.18578  1.0000
  H   H558      1.0  0.22005  0.59064  0.17956  1.0000
  H   H559      1.0  0.26141  0.56795  0.04217  1.0000
  H   H560      1.0  0.29737  0.50009  0.00145  1.0000
  H   H561      1.0  0.27987  0.58918  0.99042  1.0000
  S   S91       1.0  0.04884  0.50712  0.22452  1.0000
  C   C342      1.0  0.29447  0.55768  0.98895  1.0000
  H   H562      1.0  0.18191  0.55042  0.18924  1.0000
  H   H563      1.0  0.06862  0.53753  0.22356  1.0000
  S   S92       1.0  0.32528  0.52697  0.17488  1.0000
  C   C343      1.0  0.19267  0.52824  0.21228  1.0000
  H   H564      1.0  0.31589  0.57661  0.22079  1.0000
  N   N25       1.0  0.27584  0.55036  0.99856  1.0000
  H   H565      1.0  0.03878  0.55319  0.20904  1.0000
  H   H566      1.0  0.10550  0.49460  0.12521  1.0000
  H   H567      1.0  0.17857  0.52339  0.21556  1.0000
  H   H568      1.0  0.03394  0.50874  0.13128  1.0000
  H   H569      1.0  0.01686  0.50126  0.15283  1.0000
  H   H570      1.0  0.21931  0.49335  0.16603  1.0000
  H   H571      1.0  0.31061  0.51895  0.99722  1.0000
  H   H572      1.0  0.28829  0.49118  0.21067  1.0000
  Fe  Fe43      1.0  0.32555  0.54259  0.19773  1.0000
  C   C344      1.0  0.22231  0.52463  0.98478  1.0000
  H   H573      1.0  0.04962  0.59070  0.23279  1.0000
  Fe  Fe44      1.0  0.20904  0.55551  0.27967  1.0000
  S   S93       1.0  0.17878  0.57357  0.28752  1.0000
  H   H574      1.0  0.05305  0.60184  0.25810  1.0000
  Fe  Fe45      1.0  0.20912  0.53299  0.32097  1.0000
  S   S94       1.0  0.17868  0.54856  0.33224  1.0000
  S   S95       1.0  0.22683  0.51308  0.34243  1.0000
  Fe  Fe46      1.0  0.17173  0.54491  0.30505  1.0000
  S   S96       1.0  0.14490  0.53440  0.30518  1.0000
  Fe  Fe47      1.0  0.18869  0.57565  0.31381  1.0000
  S   S97       1.0  0.18078  0.60315  0.32616  1.0000
  S   S98       1.0  0.20140  0.52662  0.29559  1.0000
  S   S99       1.0  0.21968  0.56030  0.30416  1.0000
  H   H575      1.0  0.19589  0.52225  0.37541  1.0000
  Fe  Fe48      1.0  0.21272  0.62400  0.41090  1.0000
  S   S100      1.0  0.19809  0.65496  0.39969  1.0000
  S   S101      1.0  0.22581  0.60251  0.39079  1.0000
  Fe  Fe49      1.0  0.20737  0.63086  0.45191  1.0000
  S   S102      1.0  0.19313  0.66237  0.44339  1.0000
  H   H576      1.0  0.29125  0.63347  0.33812  1.0000
  Fe  Fe50      1.0  0.17652  0.65123  0.42804  1.0000
  S   S103      1.0  0.14394  0.66199  0.43383  1.0000
  Fe  Fe51      1.0  0.21620  0.66293  0.41628  1.0000
  S   S104      1.0  0.22965  0.68948  0.40333  1.0000
  S   S105      1.0  0.18945  0.61952  0.43796  1.0000
  S   S106      1.0  0.23234  0.63210  0.42592  1.0000
  H   H577      1.0  0.24365  0.64159  0.31840  1.0000
  S   S107      1.0  0.29558  0.75215  0.41919  1.0000
  H   H578      1.0  0.22745  0.66497  0.32059  1.0000
  Fe  Fe52      1.0  0.28901  0.76252  0.44734  1.0000
  S   S108      1.0  0.25926  0.77797  0.46111  1.0000
  S   S109      1.0  0.29788  0.73254  0.46491  1.0000
  H   H579      1.0  0.08798  0.55385  0.25682  1.0000
  C   C345      1.0  0.30821  0.59801  0.25353  1.0000
  H   H580      1.0  0.21469  0.70105  0.47480  1.0000
  Fe  Fe53      1.0  0.32593  0.75694  0.41611  1.0000
  H   H581      1.0  0.14190  0.49278  0.31090  1.0000
  C   C346      1.0  0.31514  0.65294  0.48206  1.0000
  H   H582      1.0  0.18474  0.53675  0.43900  1.0000
  C   C347      1.0  0.27803  0.63727  0.33163  1.0000
  H   H583      1.0  0.15090  0.55842  0.38950  1.0000
  C   C348      1.0  0.22607  0.68932  0.34263  1.0000
  C   C349      1.0  0.13977  0.68717  0.43267  1.0000
  C   C350      1.0  0.12326  0.69652  0.44448  1.0000
  C   C351      1.0  0.12119  0.71624  0.44513  1.0000
  C   C352      1.0  0.13525  0.72670  0.43334  1.0000
  C   C353      1.0  0.15132  0.71754  0.42100  1.0000
  C   C354      1.0  0.15377  0.69769  0.42094  1.0000
  H   H584      1.0  0.11244  0.68835  0.45355  1.0000
  C   C355      1.0  0.02095  0.78084  0.42612  1.0000
  H   H585      1.0  0.16220  0.72564  0.41191  1.0000
  H   H586      1.0  0.16655  0.69051  0.41181  1.0000
  C   C356      1.0  0.24875  0.69079  0.41355  1.0000
  C   C357      1.0  0.25729  0.70727  0.40681  1.0000
  C   C358      1.0  0.27295  0.70838  0.41436  1.0000
  C   C359      1.0  0.28019  0.69294  0.42857  1.0000
  C   C360      1.0  0.27149  0.67657  0.43547  1.0000
  C   C361      1.0  0.25569  0.67556  0.42810  1.0000
  H   H587      1.0  0.25194  0.71910  0.39557  1.0000
  H   H588      1.0  0.27704  0.66459  0.44649  1.0000
  H   H589      1.0  0.24909  0.66289  0.43352  1.0000
  C   C362      1.0  0.05489  0.77326  0.38664  1.0000
  N   N26       1.0  0.06870  0.56183  0.23591  1.0000
  H   H590      1.0  0.07968  0.88255  0.47393  1.0000
  H   H591      1.0  0.22337  0.76545  0.47199  1.0000
  C   C363      1.0  0.09700  0.84312  0.46450  1.0000
  H   H592      1.0  0.24155  0.64071  0.38316  1.0000
  H   H593      1.0  0.09141  0.76358  0.44829  1.0000
  H   H594      1.0  0.21510  0.54023  0.40887  1.0000
  H   H595      1.0  0.28738  0.49628  0.26279  1.0000
  C   C364      1.0  0.27307  0.81023  0.46075  1.0000
  C   C365      1.0  0.25448  0.83554  0.47904  1.0000
  H   H596      1.0  0.27033  0.62490  0.33650  1.0000
  H   H597      1.0  0.19950  0.55502  0.43403  1.0000
  H   H598      1.0  0.07520  0.58398  0.25890  1.0000
  H   H599      1.0  0.28625  0.80435  0.45120  1.0000
  C   C366      1.0  0.22523  0.70645  0.47972  1.0000
  S   S110      1.0  0.13330  0.75112  0.43408  1.0000
  C   C367      1.0  0.24970  0.55141  0.24376  1.0000
  H   H600      1.0  0.06985  0.72851  0.40304  1.0000
  C   C368      1.0  0.10100  0.85722  0.44463  1.0000
  C   C369      1.0  0.15181  0.54499  0.26496  1.0000
  C   C370      1.0  0.06716  0.76757  0.40256  1.0000
  H   H601      1.0  0.19682  0.71855  0.43848  1.0000
  H   H602      1.0  0.03992  0.57274  0.25201  1.0000
  H   H603      1.0  0.21268  0.68451  0.34269  1.0000
  C   C371      1.0  0.19422  0.60407  0.34292  1.0000
  C   C372      1.0  0.18609  0.61702  0.35580  1.0000
  C   C373      1.0  0.19567  0.61675  0.37051  1.0000
  C   C374      1.0  0.21364  0.60378  0.37216  1.0000
  C   C375      1.0  0.22217  0.59143  0.35876  1.0000
  C   C376      1.0  0.21242  0.59142  0.34431  1.0000
  H   H604      1.0  0.17201  0.62683  0.35480  1.0000
  H   H605      1.0  0.18895  0.62635  0.38073  1.0000
  H   H606      1.0  0.23616  0.58149  0.35983  1.0000
  H   H607      1.0  0.21885  0.58144  0.33443  1.0000
  C   C377      1.0  0.14118  0.53510  0.28189  1.0000
  C   C378      1.0  0.12518  0.52447  0.26190  1.0000
  C   C379      1.0  0.12753  0.52527  0.28029  1.0000
  H   H608      1.0  0.24906  0.74134  0.45652  1.0000
  H   H609      1.0  0.11892  0.51805  0.29334  1.0000
  H   H610      1.0  0.23519  0.69181  0.32775  1.0000
  H   H611      1.0  0.10986  0.83054  0.46471  1.0000
  H   H612      1.0  0.21853  0.54744  0.36445  1.0000
  H   H613      1.0  0.15228  0.58295  0.38994  1.0000
  C   C380      1.0  0.16513  0.70410  0.46880  1.0000
  H   H614      1.0  0.27279  0.63821  0.39171  1.0000
  C   C381      1.0  0.13550  0.53465  0.24497  1.0000
  H   H615      1.0  0.27228  0.50629  0.29140  1.0000
  H   H616      1.0  0.06892  0.78079  0.44721  1.0000
  H   H617      1.0  0.07393  0.71846  0.42773  1.0000
  C   C382      1.0  0.19205  0.76886  0.47775  1.0000
  C   C383      1.0  0.26019  0.54782  0.25855  1.0000
  C   C384      1.0  0.21825  0.72846  0.48017  1.0000
  S   S111      1.0  0.22406  0.55803  0.24817  1.0000
  C   C385      1.0  0.26919  0.64895  0.37841  1.0000
  H   H618      1.0  0.03890  0.77442  0.44690  1.0000
  N   N27       1.0  0.24768  0.65497  0.35280  1.0000
  S   S112      1.0  0.30061  0.69326  0.43733  1.0000
  H   H619      1.0  0.19261  0.52067  0.41251  1.0000
  H   H620      1.0  0.18958  0.73710  0.46187  1.0000
  H   H621      1.0  0.08791  0.77872  0.42534  1.0000
  N   N28       1.0  0.21796  0.74265  0.46080  1.0000
  H   H622      1.0  0.29247  0.57503  0.27142  1.0000
  C   C386      1.0  0.23837  0.74025  0.44836  1.0000
  H   H623      1.0  0.04726  0.78895  0.38496  1.0000
  H   H624      1.0  0.26579  0.64104  0.48191  1.0000
  H   H625      1.0  0.12481  0.84812  0.47831  1.0000
  C   C387      1.0  0.24086  0.75518  0.42880  1.0000
  H   H626      1.0  0.21848  0.64923  0.35823  1.0000
  C   C388      1.0  0.27149  0.82781  0.46656  1.0000
  H   H627      1.0  0.18015  0.76763  0.47139  1.0000
  H   H628      1.0  0.21249  0.77444  0.45116  1.0000
  H   H629      1.0  0.24374  0.72551  0.44477  1.0000
  H   H630      1.0  0.11604  0.85999  0.44130  1.0000
  H   H631      1.0  0.26458  0.50949  0.25649  1.0000
  H   H632      1.0  0.17245  0.49970  0.28893  1.0000
  H   H633      1.0  0.31212  0.59847  0.26728  1.0000
  H   H634      1.0  0.19794  0.75430  0.44097  1.0000
  C   C389      1.0  0.26278  0.49899  0.28710  1.0000
  Fe  Fe54      1.0  0.12143  0.75752  0.46393  1.0000
  C   C390      1.0  0.18227  0.52260  0.38662  1.0000
  H   H635      1.0  0.22876  0.75772  0.42108  1.0000
  H   H636      1.0  0.24218  0.76941  0.43098  1.0000
  H   H637      1.0  0.25465  0.74960  0.41903  1.0000
  H   H638      1.0  0.23741  0.62914  0.35302  1.0000
  C   C391      1.0  0.01470  0.75368  0.47914  1.0000
  S   S113      1.0  0.14237  0.75580  0.48244  1.0000
  H   H639      1.0  0.08073  0.75677  0.39797  1.0000
  C   C392      1.0  0.25753  0.80046  0.46725  1.0000
  H   H640      1.0  0.31945  0.55928  0.25167  1.0000
  C   C393      1.0  0.05372  0.57795  0.24454  1.0000
  H   H641      1.0  0.04415  0.76404  0.38904  1.0000
  H   H642      1.0  0.28348  0.63890  0.31563  1.0000
  H   H643      1.0  0.05648  0.85168  0.47713  1.0000
  H   H644      1.0  0.16546  0.69665  0.45715  1.0000
  C   C394      1.0  0.26491  0.65694  0.33613  1.0000
  H   H645      1.0  0.17456  0.55986  0.44628  1.0000
  H   H646      1.0  0.23795  0.54183  0.37708  1.0000
  H   H647      1.0  0.05373  0.54536  0.27481  1.0000
  H   H648      1.0  0.24845  0.68257  0.35906  1.0000
  H   H649      1.0  0.16762  0.53200  0.41324  1.0000
  C   C395      1.0  0.04828  0.74318  0.42538  1.0000
  C   C396      1.0  0.06683  0.53565  0.26788  1.0000
  H   H650      1.0  0.14179  0.63952  0.48031  1.0000
  S   S114      1.0  0.31826  0.76999  0.44290  1.0000
  C   C397      1.0  0.07955  0.54715  0.25056  1.0000
  Fe  Fe55      1.0  0.30670  0.72254  0.43659  1.0000
  C   C398      1.0  0.29042  0.58808  0.25943  1.0000
  H   H651      1.0  0.21443  0.73114  0.42264  1.0000
  H   H652      1.0  0.22105  0.71175  0.44278  1.0000
  C   C399      1.0  0.18477  0.55264  0.43462  1.0000
  S   S115      1.0  0.00129  0.74132  0.47090  1.0000
  C   C400      1.0  0.07236  0.75411  0.43570  1.0000
  H   H653      1.0  0.09019  0.87136  0.44381  1.0000
  H   H654      1.0  0.24827  0.50931  0.28802  1.0000
  H   H655      1.0  0.21805  0.64313  0.32746  1.0000
  H   H656      1.0  0.15633  0.55342  0.23362  1.0000
  H   H657      1.0  0.07570  0.52779  0.27913  1.0000
  H   H658      1.0  0.28317  0.64946  0.36769  1.0000
  H   H659      1.0  0.03618  0.74682  0.41742  1.0000
  H   H660      1.0  0.24285  0.63206  0.46712  1.0000
  H   H661      1.0  0.25251  0.54943  0.27311  1.0000
  N   N29       1.0  0.32588  0.58833  0.24038  1.0000
  H   H662      1.0  0.05438  0.71361  0.42022  1.0000
  C   C401      1.0  0.08035  0.77052  0.43908  1.0000
  H   H663      1.0  0.17203  0.83168  0.47498  1.0000
  C   C402      1.0  0.20294  0.74022  0.45093  1.0000
  H   H664      1.0  0.06663  0.74577  0.45035  1.0000
  C   C403      1.0  0.06269  0.72507  0.41863  1.0000
  S   S116      1.0  0.10617  0.78838  0.46570  1.0000
  H   H665      1.0  0.28888  0.53900  0.26585  1.0000
  C   C404      1.0  0.25442  0.64216  0.37095  1.0000
  H   H666      1.0  0.22718  0.67341  0.37167  1.0000
  H   H667      1.0  0.30297  0.61360  0.24688  1.0000
  C   C405      1.0  0.05934  0.58582  0.25985  1.0000
  C   C406      1.0  0.23061  0.64928  0.32756  1.0000
  H   H668      1.0  0.09085  0.53615  0.24318  1.0000
  C   C407      1.0  0.28074  0.54187  0.25444  1.0000
  H   H669      1.0  0.06224  0.52426  0.26336  1.0000
  H   H670      1.0  0.11514  0.51623  0.26093  1.0000
  C   C408      1.0  0.14857  0.54519  0.24659  1.0000
  H   H671      1.0  0.22339  0.52422  0.38168  1.0000
  H   H672      1.0  0.16229  0.55274  0.26603  1.0000
  S   S117      1.0  0.14512  0.80780  0.47840  1.0000
  H   H673      1.0  0.16078  0.72010  0.46303  1.0000
  C   C409      1.0  0.24033  0.80846  0.47927  1.0000
  H   H674      1.0  0.08542  0.74379  0.42931  1.0000
  C   C410      1.0  0.04149  0.77711  0.43073  1.0000
  H   H675      1.0  0.15533  0.57615  0.36722  1.0000
  H   H676      1.0  0.01172  0.79419  0.43134  1.0000
  H   H677      1.0  0.18640  0.57806  0.37670  1.0000
  H   H678      1.0  0.18036  0.57749  0.41099  1.0000
  C   C411      1.0  0.23320  0.64540  0.34882  1.0000
  H   H679      1.0  0.07281  0.78080  0.40149  1.0000
  H   H680      1.0  0.21305  0.56408  0.39393  1.0000
  H   H681      1.0  0.16974  0.53041  0.37944  1.0000
  H   H682      1.0  0.01340  0.76868  0.43412  1.0000
  H   H683      1.0  0.26107  0.62681  0.36906  1.0000
  H   H684      1.0  0.26302  0.66329  0.38283  1.0000
  H   H685      1.0  0.06479  0.77098  0.37252  1.0000
  H   H686      1.0  0.16187  0.56343  0.41844  1.0000
  H   H687      1.0  0.04649  0.79125  0.42543  1.0000
  H   H688      1.0  0.26012  0.66593  0.32258  1.0000
  H   H689      1.0  0.18707  0.55747  0.36764  1.0000
  H   H690      1.0  0.28349  0.83539  0.46143  1.0000
  H   H691      1.0  0.22095  0.70375  0.34710  1.0000
  H   H692      1.0  0.13183  0.67405  0.48105  1.0000
  H   H693      1.0  0.04125  0.73837  0.44091  1.0000
  C   C412      1.0  0.20961  0.72447  0.43821  1.0000
  C   C413      1.0  0.23766  0.67489  0.35743  1.0000
  C   C414      1.0  0.31476  0.84687  0.47707  1.0000
  H   H694      1.0  0.30581  0.66123  0.47130  1.0000
  H   H695      1.0  0.10871  0.72335  0.45459  1.0000
  H   H696      1.0  0.31646  0.83714  0.46686  1.0000
  H   H697      1.0  0.02115  0.78339  0.41041  1.0000
  H   H698      1.0  0.32333  0.68664  0.46520  1.0000
  H   H699      1.0  0.18060  0.50717  0.39231  1.0000
  H   H700      1.0  0.10020  0.85025  0.43296  1.0000
  H   H701      1.0  0.28771  0.58345  0.24709  1.0000
  N   N30       1.0  0.05703  0.76062  0.42322  1.0000
  H   H702      1.0  0.27980  0.72089  0.40876  1.0000
  H   H703      1.0  0.27436  0.66527  0.33917  1.0000
  H   H704      1.0  0.30454  0.86068  0.47208  1.0000
  H   H705      1.0  0.05248  0.57923  0.27484  1.0000
  H   H706      1.0  0.10510  0.57262  0.23442  1.0000
  N   N31       1.0  0.18774  0.55149  0.39854  1.0000
  C   C415      1.0  0.17804  0.56212  0.41512  1.0000
  C   C416      1.0  0.18092  0.56433  0.38055  1.0000
  C   C417      1.0  0.20959  0.54948  0.39575  1.0000
  C   C418      1.0  0.18246  0.53160  0.40371  1.0000
  C   C419      1.0  0.21243  0.76314  0.46490  1.0000
  C   C420      1.0  0.15852  0.57062  0.38212  1.0000
  C   C421      1.0  0.22271  0.54022  0.37867  1.0000
  H   H707      1.0  0.05666  0.87579  0.46187  1.0000
  H   H708      1.0  0.27700  0.59847  0.26495  1.0000
  H   H709      1.0  0.08483  0.83655  0.46438  1.0000
  C   C422      1.0  0.27150  0.49605  0.26593  1.0000
  H   H710      1.0  0.04662  0.54482  0.24006  1.0000
  H   H711      1.0  0.23236  0.50463  0.26484  1.0000
  C   C423      1.0  0.23878  0.63343  0.48222  1.0000
  S   S118      1.0  0.09928  0.49422  0.24260  1.0000
  H   H712      1.0  0.25901  0.49533  0.23420  1.0000
  H   H713      1.0  0.11297  0.87198  0.46821  1.0000
  H   H714      1.0  0.18945  0.78452  0.47864  1.0000
  H   H715      1.0  0.28947  0.69490  0.47728  1.0000
  H   H716      1.0  0.24022  0.70273  0.47099  1.0000
  H   H717      1.0  0.15627  0.66828  0.46880  1.0000
  H   H718      1.0  0.18005  0.70128  0.47171  1.0000
  H   H719      1.0  0.03986  0.72966  0.47896  1.0000
  C   C424      1.0  0.11125  0.85959  0.48091  1.0000
  C   C425      1.0  0.05752  0.86678  0.47670  1.0000
  C   C426      1.0  0.29066  0.53959  0.23558  1.0000
  H   H720      1.0  0.22871  0.48947  0.25027  1.0000
  C   C427      1.0  0.03392  0.74445  0.48138  1.0000
  C   C428      1.0  0.23097  0.48973  0.26476  1.0000
  N   N32       1.0  0.09328  0.85194  0.48219  1.0000
  H   H721      1.0  0.18375  0.66719  0.48287  1.0000
  C   C429      1.0  0.00711  0.77272  0.48251  1.0000
  Fe  Fe56      1.0  0.25089  0.53852  0.67986  1.0000
  S   S119      1.0  0.24781  0.55259  0.70500  1.0000
  S   S120      1.0  0.26071  0.55308  0.64856  1.0000
  H   H722      1.0  0.29987  0.88704  0.52357  1.0000
  H   H723      1.0  0.30743  0.59367  0.66010  1.0000
  C   C430      1.0  0.22847  0.63685  0.52136  1.0000
  S   S121      1.0  0.30188  0.75092  0.60880  1.0000
  Fe  Fe57      1.0  0.21761  0.85510  0.55525  1.0000
  S   S122      1.0  0.18808  0.87495  0.55642  1.0000
  S   S123      1.0  0.22634  0.83470  0.58209  1.0000
  H   H724      1.0  0.32096  0.86021  0.54012  1.0000
  S   S124      1.0  0.19856  0.88518  0.50862  1.0000
  Fe  Fe58      1.0  0.20333  0.89627  0.53310  1.0000
  S   S125      1.0  0.19487  0.92808  0.53627  1.0000
  Fe  Fe59      1.0  0.18597  0.86202  0.53230  1.0000
  S   S126      1.0  0.15852  0.85019  0.53826  1.0000
  S   S127      1.0  0.23328  0.87724  0.53386  1.0000
  S   S128      1.0  0.21471  0.84065  0.53279  1.0000
  C   C431      1.0  0.29806  0.97491  0.57329  1.0000
  Fe  Fe60      1.0  0.23713  0.65857  0.58964  1.0000
  S   S129      1.0  0.26727  0.64895  0.57238  1.0000
  S   S130      1.0  0.22384  0.64223  0.61907  1.0000
  Fe  Fe61      1.0  0.22766  0.69601  0.55997  1.0000
  S   S131      1.0  0.25704  0.68965  0.54056  1.0000
  S   S132      1.0  0.20848  0.72505  0.54928  1.0000
  Fe  Fe62      1.0  0.25278  0.65897  0.54658  1.0000
  S   S133      1.0  0.26399  0.64414  0.52093  1.0000
  Fe  Fe63      1.0  0.26920  0.68037  0.56763  1.0000
  S   S134      1.0  0.29839  0.68755  0.56454  1.0000
  S   S135      1.0  0.22226  0.66581  0.56406  1.0000
  S   S136      1.0  0.24014  0.68950  0.58686  1.0000
  H   H725      1.0  0.24817  0.55429  0.60369  1.0000
  H   H726      1.0  0.27530  0.79622  0.50043  1.0000
  H   H727      1.0  0.12976  0.49082  0.71307  1.0000
  S   S137      1.0  0.10395  0.77571  0.51267  1.0000
  H   H728      1.0  0.27655  0.62643  0.69644  1.0000
  C   C432      1.0  0.16724  0.83898  0.50304  1.0000
  C   C433      1.0  0.15055  0.81715  0.49602  1.0000
  H   H729      1.0  0.18652  0.51046  0.69889  1.0000
  H   H730      1.0  0.05980  0.83601  0.50793  1.0000
  H   H731      1.0  0.31408  0.93693  0.57025  1.0000
  Fe  Fe64      1.0  0.11951  0.74559  0.50756  1.0000
  S   S138      1.0  0.12867  0.72064  0.53146  1.0000
  H   H732      1.0  0.21518  0.59902  0.55721  1.0000
  H   H733      1.0  0.15925  0.49451  0.71453  1.0000
  H   H734      1.0  0.25762  0.61532  0.55885  1.0000
  C   C434      1.0  0.01895  0.78265  0.48746  1.0000
  C   C435      1.0  0.25173  0.63852  0.49060  1.0000
  H   H735      1.0  0.24992  0.60207  0.54521  1.0000
  C   C436      1.0  0.24666  0.64004  0.51022  1.0000
  H   H736      1.0  0.29603  0.98832  0.57887  1.0000
  S   S139      1.0  0.22498  0.52422  0.69295  1.0000
  C   C437      1.0  0.18634  0.72353  0.54445  1.0000
  C   C438      1.0  0.17894  0.70642  0.55168  1.0000
  C   C439      1.0  0.16111  0.70564  0.54782  1.0000
  C   C440      1.0  0.15071  0.72193  0.53660  1.0000
  C   C441      1.0  0.15808  0.73906  0.52942  1.0000
  C   C442      1.0  0.17582  0.73986  0.53340  1.0000
  H   H737      1.0  0.18667  0.69394  0.56063  1.0000
  H   H738      1.0  0.15535  0.69245  0.55361  1.0000
  H   H739      1.0  0.14994  0.75185  0.52113  1.0000
  H   H740      1.0  0.18131  0.75319  0.52791  1.0000
  H   H741      1.0  0.27380  0.59417  0.55110  1.0000
  N   N33       1.0  0.29712  0.95690  0.58935  1.0000
  H   H742      1.0  0.19723  0.61466  0.60856  1.0000
  C   C443      1.0  0.29924  0.70493  0.57716  1.0000
  C   C444      1.0  0.00859  0.70707  0.52314  1.0000
  C   C445      1.0  0.30116  0.73318  0.59657  1.0000
  C   C446      1.0  0.28434  0.72533  0.60115  1.0000
  C   C447      1.0  0.28331  0.71136  0.59133  1.0000
  H   H743      1.0  0.27208  0.73016  0.61226  1.0000
  H   H744      1.0  0.27031  0.70537  0.59496  1.0000
  C   C448      1.0  0.15647  0.83673  0.52215  1.0000
  H   H745      1.0  0.32383  0.69615  0.48507  1.0000
  Fe  Fe65      1.0  0.32448  0.76925  0.59408  1.0000
  H   H746      1.0  0.29921  0.56366  0.67307  1.0000
  C   C449      1.0  0.14045  0.81413  0.51539  1.0000
  C   C450      1.0  0.14328  0.82409  0.52840  1.0000
  H   H747      1.0  0.30582  0.91588  0.60489  1.0000
  C   C451      1.0  0.21594  0.63083  0.51327  1.0000
  H   H748      1.0  0.13000  0.80468  0.52019  1.0000
  H   H749      1.0  0.13495  0.82229  0.54322  1.0000
  C   C452      1.0  0.21201  0.93958  0.53999  1.0000
  C   C453      1.0  0.20566  0.95849  0.54411  1.0000
  C   C454      1.0  0.21872  0.96765  0.54813  1.0000
  C   C455      1.0  0.23823  0.95787  0.54810  1.0000
  C   C456      1.0  0.24463  0.93908  0.54372  1.0000
  C   C457      1.0  0.23158  0.92996  0.53971  1.0000
  H   H750      1.0  0.19051  0.96597  0.54445  1.0000
  H   H751      1.0  0.25971  0.93146  0.54362  1.0000
  H   H752      1.0  0.23668  0.91548  0.53644  1.0000
  C   C458      1.0  0.28487  0.84109  0.58936  1.0000
  C   C459      1.0  0.27235  0.85736  0.58056  1.0000
  C   C460      1.0  0.25431  0.85543  0.57828  1.0000
  C   C461      1.0  0.24837  0.83755  0.58569  1.0000
  C   C462      1.0  0.26034  0.82166  0.59563  1.0000
  C   C463      1.0  0.27871  0.82336  0.59724  1.0000
  H   H753      1.0  0.27703  0.87113  0.57469  1.0000
  H   H754      1.0  0.24514  0.86765  0.57052  1.0000
  H   H755      1.0  0.25580  0.80779  0.60146  1.0000
  H   H756      1.0  0.28821  0.81081  0.60438  1.0000
  C   C464      1.0  0.25147  0.57837  0.64192  1.0000
  C   C465      1.0  0.26156  0.58933  0.62534  1.0000
  C   C466      1.0  0.25357  0.60917  0.61860  1.0000
  C   C467      1.0  0.23528  0.61806  0.62826  1.0000
  C   C468      1.0  0.22552  0.60726  0.64523  1.0000
  C   C469      1.0  0.23366  0.58748  0.65215  1.0000
  H   H757      1.0  0.27543  0.58232  0.61749  1.0000
  H   H758      1.0  0.26133  0.61742  0.60569  1.0000
  H   H759      1.0  0.21141  0.61411  0.65282  1.0000
  H   H760      1.0  0.22581  0.57910  0.66498  1.0000
  C   C470      1.0  0.16417  0.82931  0.48998  1.0000
  H   H761      1.0  0.31706  0.96476  0.54723  1.0000
  H   H762      1.0  0.00549  0.71248  0.53690  1.0000
  H   H763      1.0  0.19493  0.81236  0.52492  1.0000
  H   H764      1.0  0.24330  0.61479  0.70082  1.0000
  H   H765      1.0  0.30058  0.68693  0.51092  1.0000
  H   H766      1.0  0.22835  0.55244  0.62382  1.0000
  H   H767      1.0  0.27277  0.75329  0.50069  1.0000
  S   S140      1.0  0.31600  0.79516  0.57103  1.0000
  H   H768      1.0  0.13749  0.64124  0.50522  1.0000
  Fe  Fe66      1.0  0.26752  0.52477  0.71679  1.0000
  H   H769      1.0  0.15031  0.70681  0.49800  1.0000
  H   H770      1.0  0.28566  0.97799  0.56574  1.0000
  H   H771      1.0  0.17747  0.84869  0.49815  1.0000
  H   H772      1.0  0.27141  0.69610  0.49912  1.0000
  C   C471      1.0  0.28714  0.63621  0.63696  1.0000
  H   H773      1.0  0.25609  0.97730  0.62178  1.0000
  H   H774      1.0  0.03018  0.68001  0.53188  1.0000
  C   C472      1.0  0.28642  0.57580  0.67604  1.0000
  H   H775      1.0  0.30695  0.81805  0.53372  1.0000
  H   H776      1.0  0.22813  0.80117  0.48396  1.0000
  H   H777      1.0  0.22782  0.58650  0.61352  1.0000
  H   H778      1.0  0.22521  0.54974  0.60130  1.0000
  C   C473      1.0  0.31608  0.71271  0.57262  1.0000
  C   C474      1.0  0.29197  0.86633  0.51097  1.0000
  H   H779      1.0  0.01255  0.67807  0.50421  1.0000
  S   S141      1.0  0.10021  0.74367  0.48857  1.0000
  H   H780      1.0  0.30919  0.94223  0.61509  1.0000
  H   H781      1.0  0.07501  0.81395  0.51764  1.0000
  Fe  Fe67      1.0  0.22357  0.53619  0.71904  1.0000
  C   C475      1.0  0.09139  0.83597  0.50028  1.0000
  H   H782      1.0  0.25738  0.61592  0.65685  1.0000
  S   S142      1.0  0.25472  0.96801  0.55468  1.0000
  H   H783      1.0  0.11435  0.85518  0.51138  1.0000
  H   H784      1.0  0.03586  0.69204  0.50636  1.0000
  C   C476      1.0  0.23196  0.55793  0.60779  1.0000
  H   H785      1.0  0.11127  0.67855  0.53389  1.0000
  C   C477      1.0  0.31313  0.95217  0.60080  1.0000
  H   H786      1.0  0.26659  0.84619  0.54012  1.0000
  H   H787      1.0  0.12458  0.87446  0.49496  1.0000
  H   H788      1.0  0.23073  0.61236  0.68369  1.0000
  C   C478      1.0  0.11849  0.68034  0.51823  1.0000
  C   C479      1.0  0.04568  0.75433  0.48640  1.0000
  H   H789      1.0  0.29277  0.66471  0.51585  1.0000
  N   N34       1.0  0.20526  0.90046  0.60747  1.0000
  C   C480      1.0  0.22507  0.90269  0.60886  1.0000
  C   C481      1.0  0.19208  0.90113  0.62726  1.0000
  C   C482      1.0  0.19734  0.91780  0.59274  1.0000
  C   C483      1.0  0.20778  0.88141  0.60110  1.0000
  C   C484      1.0  0.23975  0.90659  0.58942  1.0000
  C   C485      1.0  0.19977  0.88590  0.64438  1.0000
  C   C486      1.0  0.17681  0.91900  0.58948  1.0000
  C   C487      1.0  0.18989  0.87156  0.60752  1.0000
  H   H790      1.0  0.22344  0.91496  0.61626  1.0000
  H   H791      1.0  0.23255  0.88929  0.61799  1.0000
  H   H792      1.0  0.17723  0.89925  0.62777  1.0000
  H   H793      1.0  0.18954  0.91591  0.63069  1.0000
  H   H794      1.0  0.19715  0.93183  0.59663  1.0000
  H   H795      1.0  0.20699  0.91791  0.57807  1.0000
  H   H796      1.0  0.21235  0.88342  0.58495  1.0000
  H   H797      1.0  0.21981  0.87014  0.60707  1.0000
  H   H798      1.0  0.23656  0.92238  0.58243  1.0000
  H   H799      1.0  0.25486  0.90304  0.59216  1.0000
  H   H800      1.0  0.23956  0.89769  0.57917  1.0000
  H   H801      1.0  0.18765  0.88499  0.65740  1.0000
  H   H802      1.0  0.20542  0.87102  0.64110  1.0000
  H   H803      1.0  0.21150  0.89038  0.64845  1.0000
  C   C488      1.0  0.28338  0.68605  0.49125  1.0000
  C   C489      1.0  0.29680  0.92011  0.59360  1.0000
  H   H804      1.0  0.21363  0.98210  0.55158  1.0000
  H   H805      1.0  0.19095  0.86243  0.59698  1.0000
  H   H806      1.0  0.17545  0.88176  0.60803  1.0000
  H   H807      1.0  0.19040  0.86089  0.62157  1.0000
  H   H808      1.0  0.21801  0.79466  0.52364  1.0000
  H   H809      1.0  0.27545  0.94609  0.61383  1.0000
  H   H810      1.0  0.18979  0.61422  0.58655  1.0000
  C   C490      1.0  0.15018  0.69817  0.48744  1.0000
  C   C491      1.0  0.25946  0.61902  0.67035  1.0000
  H   H811      1.0  0.11267  0.67135  0.51169  1.0000
  H   H812      1.0  0.19574  0.63576  0.58941  1.0000
  H   H813      1.0  0.22541  0.83210  0.49429  1.0000
  N   N35       1.0  0.28113  0.75910  0.52502  1.0000
  C   C492      1.0  0.29633  0.76931  0.51068  1.0000
  C   C493      1.0  0.29131  0.73862  0.53321  1.0000
  C   C494      1.0  0.27132  0.76971  0.54151  1.0000
  C   C495      1.0  0.26581  0.75881  0.51441  1.0000
  N   N36       1.0  0.30545  0.84643  0.51418  1.0000
  H   H814      1.0  0.20710  0.58170  0.60835  1.0000
  C   C496      1.0  0.28513  0.77186  0.55354  1.0000
  C   C497      1.0  0.25015  0.74677  0.52610  1.0000
  H   H815      1.0  0.28740  0.86942  0.54141  1.0000
  H   H816      1.0  0.30141  0.76324  0.49717  1.0000
  H   H817      1.0  0.28201  0.73169  0.54662  1.0000
  H   H818      1.0  0.21891  0.56568  0.55195  1.0000
  H   H819      1.0  0.26284  0.78460  0.53614  1.0000
  H   H820      1.0  0.26032  0.76191  0.55209  1.0000
  H   H821      1.0  0.25772  0.77394  0.50931  1.0000
  C   C498      1.0  0.99862  0.68926  0.50434  1.0000
  C   C499      1.0  0.11187  0.86728  0.49868  1.0000
  H   H822      1.0  0.31543  0.82133  0.50031  1.0000
  H   H823      1.0  0.24187  0.57221  0.54811  1.0000
  C   C500      1.0  0.14087  0.67364  0.51664  1.0000
  H   H824      1.0  0.27370  0.57283  0.67231  1.0000
  H   H825      1.0  0.29158  0.75742  0.56176  1.0000
  H   H826      1.0  0.27661  0.78084  0.56450  1.0000
  H   H827      1.0  0.29712  0.77917  0.54456  1.0000
  H   H828      1.0  0.23536  0.75651  0.52754  1.0000
  H   H829      1.0  0.25221  0.73894  0.54094  1.0000
  H   H830      1.0  0.20102  0.48969  0.68931  1.0000
  N   N37       1.0  0.19349  0.78579  0.56271  1.0000
  C   C501      1.0  0.19269  0.78291  0.54303  1.0000
  C   C502      1.0  0.18698  0.76872  0.57773  1.0000
  C   C503      1.0  0.21448  0.78572  0.56254  1.0000
  C   C504      1.0  0.18020  0.80522  0.56565  1.0000
  C   C505      1.0  0.20198  0.79676  0.52502  1.0000
  C   C506      1.0  0.16600  0.76651  0.57898  1.0000
  C   C507      1.0  0.22070  0.78078  0.58238  1.0000
  C   C508      1.0  0.17702  0.81075  0.58554  1.0000
  H   H831      1.0  0.20009  0.76767  0.54126  1.0000
  H   H832      1.0  0.17726  0.78479  0.54164  1.0000
  H   H833      1.0  0.18783  0.76923  0.59261  1.0000
  H   H834      1.0  0.19713  0.75468  0.57488  1.0000
  H   H835      1.0  0.22469  0.77469  0.55435  1.0000
  H   H836      1.0  0.21813  0.80015  0.55475  1.0000
  H   H837      1.0  0.18600  0.81738  0.55487  1.0000
  H   H838      1.0  0.16557  0.80686  0.56231  1.0000
  C   C509      1.0  0.29795  0.83326  0.53302  1.0000
  H   H839      1.0  0.24991  0.73565  0.51810  1.0000
  C   C510      1.0  0.27709  0.95956  0.60249  1.0000
  H   H840      1.0  0.16253  0.75428  0.59132  1.0000
  H   H841      1.0  0.15488  0.77989  0.58182  1.0000
  H   H842      1.0  0.16460  0.76247  0.56573  1.0000
  H   H843      1.0  0.21125  0.79009  0.59256  1.0000
  H   H844      1.0  0.23574  0.78334  0.57997  1.0000
  H   H845      1.0  0.22137  0.76505  0.58939  1.0000
  H   H846      1.0  0.18844  0.81845  0.58562  1.0000
  H   H847      1.0  0.17638  0.79824  0.59805  1.0000
  H   H848      1.0  0.16252  0.82090  0.58820  1.0000
  H   H849      1.0  0.14404  0.65802  0.52432  1.0000
  S   S143      1.0  0.29502  0.51957  0.72818  1.0000
  H   H850      1.0  0.20224  0.62751  0.52216  1.0000
  H   H851      1.0  0.31756  0.98891  0.54860  1.0000
  C   C511      1.0  0.29808  0.72436  0.51912  1.0000
  H   H852      1.0  0.28772  0.59642  0.64914  1.0000
  H   H853      1.0  0.17687  0.90713  0.58232  1.0000
  H   H854      1.0  0.17739  0.69235  0.50858  1.0000
  H   H855      1.0  0.30819  0.71108  0.52536  1.0000
  H   H856      1.0  0.29788  0.87569  0.49705  1.0000
  H   H857      1.0  0.26551  0.96215  0.59392  1.0000
  H   H858      1.0  0.11414  0.69609  0.51160  1.0000
  H   H859      1.0  0.29162  0.83506  0.49737  1.0000
  H   H860      1.0  0.20352  0.58350  0.57734  1.0000
  H   H861      1.0  0.23370  0.55518  0.56984  1.0000
  H   H862      1.0  0.27382  0.88881  0.52679  1.0000
  H   H863      1.0  0.22352  0.62185  0.56798  1.0000
  H   H864      1.0  0.17580  0.65166  0.50457  1.0000
  C   C512      1.0  0.24539  0.60901  0.68748  1.0000
  C   C513      1.0  0.28339  0.61220  0.69170  1.0000
  Fe  Fe68      1.0  0.22768  0.86445  0.51118  1.0000
  C   C514      1.0  0.31698  0.72695  0.58218  1.0000
  H   H865      1.0  0.28442  0.64393  0.66445  1.0000
  C   C515      1.0  0.23882  0.82591  0.48523  1.0000
  H   H866      1.0  0.30462  0.73894  0.53809  1.0000
  H   H867      1.0  0.29942  0.83771  0.54601  1.0000
  H   H868      1.0  0.14494  0.68174  0.52561  1.0000
  H   H869      1.0  0.22438  0.63836  0.53636  1.0000
  C   C516      1.0  0.14720  0.64457  0.49080  1.0000
  H   H870      1.0  0.23038  0.61759  0.59060  1.0000
  H   H871      1.0  0.25747  0.58917  0.58724  1.0000
  H   H872      1.0  0.27554  0.60147  0.70256  1.0000
  H   H873      1.0  0.07065  0.87149  0.49835  1.0000
  S   S144      1.0  0.27231  0.51176  0.69072  1.0000
  H   H874      1.0  0.25659  0.57189  0.57438  1.0000
  H   H875      1.0  0.08960  0.84172  0.51357  1.0000
  N   N38       1.0  0.22847  0.59123  0.58273  1.0000
  C   C517      1.0  0.22146  0.61284  0.58299  1.0000
  C   C518      1.0  0.25045  0.58731  0.57603  1.0000
  C   C519      1.0  0.22325  0.58013  0.60342  1.0000
  C   C520      1.0  0.21823  0.58632  0.56941  1.0000
  C   C521      1.0  0.19974  0.61946  0.59244  1.0000
  C   C522      1.0  0.25818  0.60052  0.55665  1.0000
  H   H876      1.0  0.16455  0.49704  0.68877  1.0000
  Fe  Fe69      1.0  0.08601  0.77467  0.49169  1.0000
  C   C523      1.0  0.29931  0.93993  0.57977  1.0000
  S   S145      1.0  0.05332  0.78691  0.49415  1.0000
  H   H877      1.0  0.27194  0.82861  0.52488  1.0000
  C   C524      1.0  0.07406  0.82583  0.50444  1.0000
  C   C525      1.0  0.29905  0.67574  0.50373  1.0000
  H   H878      1.0  0.30970  0.76668  0.51667  1.0000
  H   H879      1.0  0.00915  0.72035  0.51120  1.0000
  H   H880      1.0  0.00213  0.66766  0.53844  1.0000
  C   C526      1.0  0.28831  0.87851  0.52659  1.0000
  H   H881      1.0  0.30679  0.64210  0.49232  1.0000
  N   N39       1.0  0.28096  0.61376  0.67125  1.0000
  H   H882      1.0  0.25351  0.63508  0.66946  1.0000
  H   H883      1.0  0.30628  0.62688  0.65728  1.0000
  C   C527      1.0  0.30637  0.83655  0.49787  1.0000
  C   C528      1.0  0.31700  0.97391  0.55744  1.0000
  H   H884      1.0  0.27305  0.82069  0.55012  1.0000
  H   H885      1.0  0.17258  0.93297  0.57912  1.0000
  H   H886      1.0  0.18099  0.66889  0.52492  1.0000
  C   C529      1.0  0.14682  0.66670  0.48356  1.0000
  H   H887      1.0  0.31331  0.61745  0.68678  1.0000
  H   H888      1.0  0.13546  0.70396  0.48361  1.0000
  C   C530      1.0  0.27162  0.97611  0.61396  1.0000
  C   C531      1.0  0.28994  0.79168  0.50417  1.0000
  H   H889      1.0  0.19923  0.67482  0.50331  1.0000
  H   H890      1.0  0.30620  0.73077  0.50481  1.0000
  H   H891      1.0  0.30745  0.98341  0.60478  1.0000
  H   H892      1.0  0.31878  0.66667  0.53432  1.0000
  H   H893      1.0  0.19973  0.79349  0.51169  1.0000
  C   C532      1.0  0.29120  0.59537  0.66350  1.0000
  S   S146      1.0  0.30897  0.84224  0.58847  1.0000
  Fe  Fe70      1.0  0.24628  0.49883  0.70640  1.0000
  C   C533      1.0  0.18324  0.67645  0.50934  1.0000
  H   H894      1.0  0.16536  0.91920  0.60296  1.0000
  C   C534      1.0  0.17413  0.66746  0.49750  1.0000
  S   S147      1.0  0.25335  0.85691  0.48705  1.0000
  C   C535      1.0  0.27618  0.83221  0.53692  1.0000
  C   C536      1.0  0.22898  0.56879  0.55950  1.0000
  H   H895      1.0  0.28378  0.57481  0.69191  1.0000
  C   C537      1.0  0.32604  0.84837  0.51335  1.0000
  N   N40       1.0  0.31875  0.66639  0.49300  1.0000
  N   N41       1.0  0.15304  0.67649  0.49629  1.0000
  C   C538      1.0  0.22112  0.62905  0.49371  1.0000
  H   H896      1.0  0.27662  0.67526  0.48829  1.0000
  H   H897      1.0  0.19096  0.76033  0.49289  1.0000
  C   C539      1.0  0.18917  0.49421  0.70144  1.0000
  H   H898      1.0  0.00146  0.70119  0.49138  1.0000
  H   H899      1.0  0.28866  0.94357  0.56997  1.0000
  H   H900      1.0  0.30165  0.90839  0.58495  1.0000
  H   H901      1.0  0.27146  0.64149  0.63600  1.0000
  C   C540      1.0  0.29015  0.63040  0.65825  1.0000
  H   H902      1.0  0.07429  0.81870  0.49255  1.0000
  H   H903      1.0  0.28051  0.97278  0.62526  1.0000
  H   H904      1.0  0.27756  0.86537  0.50884  1.0000
  H   H905      1.0  0.28550  0.71960  0.51709  1.0000
  H   H906      1.0  0.03917  0.70220  0.52484  1.0000
  H   H907      1.0  0.16228  0.63581  0.49108  1.0000
  H   H908      1.0  0.10501  0.82428  0.49976  1.0000
  H   H909      1.0  0.30060  0.79688  0.49101  1.0000
  H   H910      1.0  0.25023  0.59293  0.69070  1.0000
  H   H911      1.0  0.28119  0.92017  0.60051  1.0000
  H   H912      1.0  0.29000  0.79919  0.51562  1.0000
  H   H913      1.0  0.29386  0.62408  0.62899  1.0000
  C   C541      1.0  0.03839  0.77361  0.48915  1.0000
  C   C542      1.0  0.02955  0.69431  0.52146  1.0000
  Fe  Fe71      1.0  0.12575  0.78591  0.48608  1.0000
  H   H914      1.0  0.09851  0.87834  0.50287  1.0000
  H   H915      1.0  0.29448  0.64858  0.62903  1.0000
  H   H916      1.0  0.01309  0.79751  0.48971  1.0000
  H   H917      1.0  0.32250  0.96557  0.61960  1.0000
  S   S148      1.0  0.20568  0.62052  0.48423  1.0000
  H   H918      1.0  0.30442  0.60462  0.71060  1.0000
  C   C543      1.0  0.30467  0.60618  0.69487  1.0000
  C   C544      1.0  0.31886  0.96976  0.60489  1.0000
  H   H919      1.0  0.31228  0.59173  0.69113  1.0000
  C   C545      1.0  0.07562  0.86872  0.48324  1.0000
  H   H920      1.0  0.20336  0.72988  0.48965  1.0000
  H   H921      1.0  0.06044  0.74707  0.48796  1.0000
  H   H922      1.0  0.22772  0.73193  0.48824  1.0000
  H   H923      1.0  0.22580  0.69806  0.49484  1.0000
  H   H924      1.0  0.27375  0.55929  0.73220  1.0000
  H   H925      1.0  0.04400  0.87305  0.48644  1.0000
  H   H926      1.0  0.32393  0.64153  0.51666  1.0000
  H   H927      1.0  0.30155  0.55155  0.97559  1.0000
  H   H928      1.0  0.25597  0.49554  0.83305  1.0000
  C   C546      1.0  0.18119  0.51573  0.74332  1.0000
  H   H929      1.0  0.18189  0.49354  0.83380  1.0000
  C   C547      1.0  0.31027  0.50121  0.78606  1.0000
  C   C548      1.0  0.30855  0.56534  0.75310  1.0000
  H   H930      1.0  0.28180  0.52838  0.98095  1.0000
  S   S149      1.0  0.31355  0.58228  0.76375  1.0000
  H   H931      1.0  0.21428  0.51929  0.79218  1.0000
  H   H932      1.0  0.24959  0.51547  0.79105  1.0000
  H   H933      1.0  0.18951  0.51888  0.84760  1.0000
  Fe  Fe72      1.0  0.22874  0.51916  0.88912  1.0000
  C   C549      1.0  0.14670  0.51528  0.74815  1.0000
  S   S150      1.0  0.23431  0.54827  0.87122  1.0000
  H   H934      1.0  0.32287  0.62191  0.85133  1.0000
  C   C550      1.0  0.22277  0.51381  0.97099  1.0000
  H   H935      1.0  0.20187  0.50385  0.82052  1.0000
  S   S151      1.0  0.32182  0.55655  0.85856  1.0000
  C   C551      1.0  0.31741  0.53368  0.74391  1.0000
  H   H936      1.0  0.28144  0.58384  0.74618  1.0000
  C   C552      1.0  0.32149  0.54725  0.75225  1.0000
  H   H937      1.0  0.29258  0.49721  0.84012  1.0000
  H   H938      1.0  0.24915  0.57382  0.96175  1.0000
  H   H939      1.0  0.28565  0.51294  0.80557  1.0000
  S   S152      1.0  0.19466  0.54986  0.73554  1.0000
  Fe  Fe73      1.0  0.20044  0.49236  0.89716  1.0000
  C   C553      1.0  0.25025  0.50774  0.82171  1.0000
  N   N42       1.0  0.17658  0.51252  0.80655  1.0000
  C   C554      1.0  0.29149  0.56984  0.74550  1.0000
  H   H940      1.0  0.29412  0.52253  0.83233  1.0000
  H   H941      1.0  0.15011  0.50416  0.82526  1.0000
  H   H942      1.0  0.28341  0.52140  0.78082  1.0000
  H   H943      1.0  0.20819  0.54000  0.77373  1.0000
  C   C555      1.0  0.30010  0.53783  0.73692  1.0000
  H   H944      1.0  0.20398  0.54339  0.79785  1.0000
  H   H945      1.0  0.24522  0.49172  0.80329  1.0000
  H   H946      1.0  0.31722  0.51373  0.78435  1.0000
  C   C556      1.0  0.29719  0.55516  0.86239  1.0000
  C   C557      1.0  0.28798  0.54572  0.88053  1.0000
  C   C558      1.0  0.26873  0.54331  0.88328  1.0000
  C   C559      1.0  0.25847  0.55087  0.86807  1.0000
  C   C560      1.0  0.26758  0.56064  0.85007  1.0000
  C   C561      1.0  0.28702  0.56250  0.84713  1.0000
  H   H947      1.0  0.29584  0.53995  0.89233  1.0000
  H   H948      1.0  0.26165  0.53599  0.89727  1.0000
  H   H949      1.0  0.25967  0.56654  0.83830  1.0000
  H   H950      1.0  0.29405  0.56981  0.83309  1.0000
  C   C562      1.0  0.18568  0.50728  0.82425  1.0000
  H   H951      1.0  0.21993  0.52132  0.95669  1.0000
  S   S153      1.0  0.17046  0.49245  0.89278  1.0000
  S   S154      1.0  0.25024  0.49660  0.90498  1.0000
  C   C563      1.0  0.17963  0.52280  0.83706  1.0000
  H   H952      1.0  0.16974  0.48936  0.75107  1.0000
  H   H953      1.0  0.14643  0.53170  0.78513  1.0000
  C   C564      1.0  0.29461  0.50982  0.84482  1.0000
  H   H954      1.0  0.02699  0.50983  0.79825  1.0000
  N   N43       1.0  0.99774  0.49303  0.79309  1.0000
  S   S155      1.0  0.24294  0.50984  0.73346  1.0000
  H   H955      1.0  0.16459  0.52292  0.84595  1.0000
  C   C565      1.0  0.18208  0.53048  0.79224  1.0000
  H   H956      1.0  0.21911  0.54050  0.98098  1.0000
  H   H957      1.0  0.18062  0.53772  0.82842  1.0000
  C   C566      1.0  0.15458  0.51656  0.81361  1.0000
  H   H958      1.0  0.31483  0.49639  0.77197  1.0000
  C   C567      1.0  0.28797  0.50797  0.79178  1.0000
  C   C568      1.0  0.31437  0.50554  0.85124  1.0000
  C   C569      1.0  0.20336  0.53299  0.78921  1.0000
  C   C570      1.0  0.26049  0.56177  0.96788  1.0000
  H   H959      1.0  0.17249  0.54402  0.79692  1.0000
  H   H960      1.0  0.12725  0.54365  0.74404  1.0000
  C   C571      1.0  0.14219  0.52034  0.79801  1.0000
  H   H961      1.0  0.31460  0.51849  0.85670  1.0000
  S   S156      1.0  0.20269  0.51437  0.91318  1.0000
  H   H962      1.0  0.15377  0.52091  0.93957  1.0000
  C   C572      1.0  0.16618  0.50520  0.74797  1.0000
  H   H963      1.0  0.29821  0.50077  0.88854  1.0000
  H   H964      1.0  0.29243  0.58482  0.96641  1.0000
  H   H965      1.0  0.99978  0.52164  0.77497  1.0000
  C   C573      1.0  0.14668  0.50886  0.94002  1.0000
  C   C574      1.0  0.17657  0.53630  0.73962  1.0000
  H   H966      1.0  0.27500  0.56383  0.95891  1.0000
  H   H967      1.0  0.27176  0.50346  0.76430  1.0000
  H   H968      1.0  0.12654  0.52570  0.80439  1.0000
  H   H969      1.0  0.25558  0.52104  0.82097  1.0000
  H   H970      1.0  0.14947  0.52971  0.82035  1.0000
  H   H971      1.0  0.17931  0.53103  0.77772  1.0000
  H   H972      1.0  0.13613  0.49008  0.98110  1.0000
  H   H973      1.0  0.31844  0.59859  0.86682  1.0000
  H   H974      1.0  0.18481  0.49966  0.95856  1.0000
  H   H975      1.0  0.02400  0.49481  0.77042  1.0000
  S   S157      1.0  0.22486  0.49914  0.87206  1.0000
  C   C575      1.0  0.15708  0.54625  0.74021  1.0000
  C   C576      1.0  0.28714  0.55600  0.73758  1.0000
  H   H976      1.0  0.14286  0.50665  0.79334  1.0000
  H   H977      1.0  0.00047  0.49074  0.82278  1.0000
  H   H978      1.0  0.32587  0.50557  0.83766  1.0000
  H   H979      1.0  0.13842  0.49316  0.87581  1.0000
  H   H980      1.0  0.28205  0.51417  0.85650  1.0000
  H   H981      1.0  0.23409  0.51154  0.82672  1.0000
  H   H982      1.0  0.17484  0.49000  0.93260  1.0000
  H   H983      1.0  0.31880  0.60356  0.84140  1.0000
  H   H984      1.0  0.14280  0.51169  0.92552  1.0000
  C   C577      1.0  0.25485  0.50203  0.80163  1.0000
  N   N44       1.0  0.27597  0.49301  0.79401  1.0000
  C   C578      1.0  0.17169  0.49570  0.96944  1.0000
  C   C579      1.0  0.32580  0.60583  0.85239  1.0000
  H   H985      1.0  0.15344  0.56213  0.73743  1.0000
  C   C580      1.0  0.22640  0.49331  0.97595  1.0000
  H   H986      1.0  0.25758  0.54790  0.96643  1.0000
  H   H987      1.0  0.17510  0.49821  0.78428  1.0000
  C   C581      1.0  0.18204  0.49501  0.79704  1.0000
  C   C582      1.0  0.03219  0.49428  0.79688  1.0000
  S   S158      1.0  0.12763  0.50284  0.75259  1.0000
  H   H988      1.0  0.19626  0.50798  0.74298  1.0000
  C   C583      1.0  0.14226  0.53579  0.74401  1.0000
  H   H989      1.0  0.20991  0.49814  0.77662  1.0000
  H   H990      1.0  0.04757  0.49250  0.78853  1.0000
  H   H991      1.0  0.13283  0.50949  0.95105  1.0000
  H   H992      1.0  0.16039  0.50954  0.96950  1.0000
  H   H993      1.0  0.31618  0.48959  0.79770  1.0000
  Fe  Fe74      1.0  0.22405  0.48975  0.92777  1.0000
  H   H994      1.0  0.99350  0.52133  0.80041  1.0000
  C   C584      1.0  0.29254  0.58017  0.98224  1.0000
  C   C585      1.0  0.27696  0.48940  0.77415  1.0000
  H   H995      1.0  0.56456  0.16712  0.14805  1.0000
  C   C586      1.0  0.58765  0.23526  0.09091  1.0000
  H   H996      1.0  0.59521  0.10115  0.13465  1.0000
  H   H997      1.0  0.47117  0.34296  0.17010  1.0000
  Fe  Fe75      1.0  0.55506  0.18507  0.04944  1.0000
  S   S159      1.0  0.54172  0.16491  0.07600  1.0000
  S   S160      1.0  0.55065  0.19254  0.01815  1.0000
  Fe  Fe76      1.0  0.57294  0.20267  0.07318  1.0000
  S   S161      1.0  0.56118  0.18431  0.10136  1.0000
  Fe  Fe77      1.0  0.57045  0.15971  0.08534  1.0000
  S   S162      1.0  0.58710  0.13267  0.10252  1.0000
  Fe  Fe78      1.0  0.53346  0.19085  0.09035  1.0000
  S   S163      1.0  0.50339  0.19911  0.10885  1.0000
  S   S164      1.0  0.58464  0.17761  0.05758  1.0000
  S   S165      1.0  0.54438  0.21159  0.06327  1.0000
  C   C587      1.0  0.59628  0.25754  0.10593  1.0000
  C   C588      1.0  0.60019  0.24715  0.09094  1.0000
  Fe  Fe79      1.0  0.55131  0.05180  0.18121  1.0000
  H   H998      1.0  0.55569  0.32524  0.18383  1.0000
  S   S166      1.0  0.53915  0.06906  0.15478  1.0000
  H   H999      1.0  0.60485  0.23124  0.14759  1.0000
  S   S167      1.0  0.60554  0.06312  0.20497  1.0000
  H   H1000     1.0  0.54319  0.14194  0.17084  1.0000
  H   H1001     1.0  0.47870  0.12095  0.19381  1.0000
  S   S168      1.0  0.58123  0.03278  0.18282  1.0000
  H   H1002     1.0  0.54027  0.34870  0.17578  1.0000
  Fe  Fe80      1.0  0.48106  0.23839  0.19834  1.0000
  S   S169      1.0  0.49281  0.26557  0.19289  1.0000
  S   S170      1.0  0.50262  0.21082  0.19203  1.0000
  Fe  Fe81      1.0  0.44021  0.25793  0.21561  1.0000
  S   S171      1.0  0.44842  0.28664  0.21180  1.0000
  H   H1003     1.0  0.53426  0.28216  0.16058  1.0000
  Fe  Fe82      1.0  0.46501  0.28116  0.18250  1.0000
  S   S172      1.0  0.46393  0.30696  0.15739  1.0000
  C   C589      1.0  0.62655  0.99865  0.18297  1.0000
  H   H1004     1.0  0.63293  0.35590  0.22076  1.0000
  S   S173      1.0  0.45459  0.25378  0.18520  1.0000
  H   H1005     1.0  0.37151  0.34385  0.20172  1.0000
  Fe  Fe83      1.0  0.36520  0.37790  0.15754  1.0000
  S   S174      1.0  0.36151  0.39358  0.18172  1.0000
  S   S175      1.0  0.37401  0.34519  0.16012  1.0000
  C   C590      1.0  0.48436  0.34687  0.15953  1.0000
  Fe  Fe84      1.0  0.37608  0.41514  0.15802  1.0000
  S   S176      1.0  0.39986  0.42778  0.16141  1.0000
  H   H1006     1.0  0.42382  0.45583  0.14319  1.0000
  S   S177      1.0  0.38190  0.39812  0.13456  1.0000
  S   S178      1.0  0.34765  0.42787  0.09835  1.0000
  C   C591      1.0  0.43916  0.31775  0.15699  1.0000
  C   C592      1.0  0.42527  0.30599  0.16268  1.0000
  C   C593      1.0  0.40542  0.31454  0.16285  1.0000
  C   C594      1.0  0.39923  0.33496  0.15807  1.0000
  C   C595      1.0  0.41309  0.34678  0.15249  1.0000
  C   C596      1.0  0.43309  0.33816  0.15161  1.0000
  H   H1007     1.0  0.42980  0.29024  0.16685  1.0000
  H   H1008     1.0  0.39478  0.30531  0.16723  1.0000
  H   H1009     1.0  0.40846  0.36256  0.14900  1.0000
  H   H1010     1.0  0.44375  0.34734  0.14733  1.0000
  C   C597      1.0  0.53191  0.29175  0.17106  1.0000
  C   C598      1.0  0.63503  0.17243  0.16247  1.0000
  H   H1011     1.0  0.53417  0.08902  0.22990  1.0000
  H   H1012     1.0  0.36069  0.40428  0.06830  1.0000
  C   C599      1.0  0.37496  0.46400  0.16264  1.0000
  H   H1013     1.0  0.56197  0.22396  0.10648  1.0000
  H   H1014     1.0  0.55293  0.26454  0.21035  1.0000
  H   H1015     1.0  0.57349  0.33163  0.23259  1.0000
  H   H1016     1.0  0.48289  0.31254  0.18700  1.0000
  H   H1017     1.0  0.52592  0.28364  0.18555  1.0000
  C   C600      1.0  0.57347  0.11526  0.11706  1.0000
  C   C601      1.0  0.58110  0.10116  0.13209  1.0000
  C   C602      1.0  0.57055  0.08705  0.14384  1.0000
  C   C603      1.0  0.55250  0.08672  0.14033  1.0000
  C   C604      1.0  0.54485  0.10081  0.12532  1.0000
  C   C605      1.0  0.55522  0.11518  0.11383  1.0000
  C   C606      1.0  0.56776  0.24359  0.12127  1.0000
  H   H1018     1.0  0.57654  0.07624  0.15541  1.0000
  H   H1019     1.0  0.53094  0.10056  0.12250  1.0000
  H   H1020     1.0  0.54933  0.12587  0.10216  1.0000
  C   C607      1.0  0.50258  0.19957  0.13312  1.0000
  C   C608      1.0  0.51938  0.19251  0.14116  1.0000
  C   C609      1.0  0.51910  0.19538  0.15961  1.0000
  C   C610      1.0  0.50201  0.20540  0.17006  1.0000
  C   C611      1.0  0.48491  0.21159  0.16251  1.0000
  C   C612      1.0  0.48516  0.20853  0.14412  1.0000
  H   H1021     1.0  0.53260  0.18493  0.13319  1.0000
  H   H1022     1.0  0.53229  0.19034  0.16553  1.0000
  H   H1023     1.0  0.47149  0.21870  0.17082  1.0000
  H   H1024     1.0  0.47202  0.21375  0.13811  1.0000
  H   H1025     1.0  0.61271  0.24865  0.07911  1.0000
  C   C613      1.0  0.49439  0.11471  0.19451  1.0000
  C   C614      1.0  0.55053  0.14423  0.99875  1.0000
  C   C615      1.0  0.55178  0.15618  0.01083  1.0000
  C   C616      1.0  0.54786  0.17661  0.00468  1.0000
  H   H1026     1.0  0.63763  0.16402  0.17707  1.0000
  S   S179      1.0  0.62689  0.26179  0.14982  1.0000
  H   H1027     1.0  0.55371  0.12843  0.00351  1.0000
  H   H1028     1.0  0.55605  0.14959  0.02473  1.0000
  H   H1029     1.0  0.35476  0.38567  0.11171  1.0000
  H   H1030     1.0  0.58499  0.21887  0.15590  1.0000
  C   C617      1.0  0.52302  0.26972  0.22619  1.0000
  C   C618      1.0  0.57158  0.23325  0.10630  1.0000
  C   C619      1.0  0.57976  0.25611  0.12087  1.0000
  S   S180      1.0  0.59238  0.22317  0.07150  1.0000
  N   N45       1.0  0.50033  0.26554  0.11606  1.0000
  C   C620      1.0  0.47963  0.26664  0.12784  1.0000
  C   C621      1.0  0.51335  0.24902  0.12726  1.0000
  C   C622      1.0  0.50073  0.26050  0.09700  1.0000
  C   C623      1.0  0.50577  0.28511  0.11289  1.0000
  C   C624      1.0  0.46337  0.28167  0.11839  1.0000
  C   C625      1.0  0.51299  0.25084  0.14806  1.0000
  C   C626      1.0  0.52071  0.25745  0.08285  1.0000
  C   C627      1.0  0.52792  0.28520  0.10864  1.0000
  H   H1031     1.0  0.47562  0.25202  0.13160  1.0000
  H   H1032     1.0  0.47827  0.27066  0.14200  1.0000
  H   H1033     1.0  0.52875  0.24683  0.11950  1.0000
  H   H1034     1.0  0.50937  0.23491  0.12845  1.0000
  H   H1035     1.0  0.49506  0.24684  0.09977  1.0000
  H   H1036     1.0  0.49095  0.27225  0.08850  1.0000
  H   H1037     1.0  0.49941  0.29573  0.10081  1.0000
  H   H1038     1.0  0.49917  0.29157  0.12612  1.0000
  H   H1039     1.0  0.44945  0.28274  0.12944  1.0000
  H   H1040     1.0  0.46654  0.29659  0.11356  1.0000
  H   H1041     1.0  0.46062  0.27692  0.10615  1.0000
  H   H1042     1.0  0.52486  0.23939  0.15397  1.0000
  H   H1043     1.0  0.51517  0.26531  0.14851  1.0000
  H   H1044     1.0  0.49913  0.24806  0.15806  1.0000
  H   H1045     1.0  0.53193  0.24554  0.08920  1.0000
  H   H1046     1.0  0.52608  0.27128  0.07704  1.0000
  H   H1047     1.0  0.51881  0.25289  0.07005  1.0000
  H   H1048     1.0  0.53055  0.29903  0.09833  1.0000
  H   H1049     1.0  0.53793  0.27315  0.10197  1.0000
  H   H1050     1.0  0.53250  0.28549  0.12204  1.0000
  H   H1051     1.0  0.60640  0.22982  0.21796  1.0000
  H   H1052     1.0  0.62098  0.09196  0.21391  1.0000
  H   H1053     1.0  0.62762  0.34263  0.19417  1.0000
  H   H1054     1.0  0.62413  0.19286  0.09709  1.0000
  S   S181      1.0  0.64496  0.30949  0.15030  1.0000
  H   H1055     1.0  0.43756  0.16852  0.00719  1.0000
  H   H1056     1.0  0.58532  0.21997  0.98462  1.0000
  H   H1057     1.0  0.38434  0.40946  0.05858  1.0000
  C   C628      1.0  0.50328  0.12866  0.15958  1.0000
  H   H1058     1.0  0.62697  0.20436  0.13334  1.0000
  H   H1059     1.0  0.34231  0.34869  0.10920  1.0000
  H   H1060     1.0  0.33704  0.47621  0.14532  1.0000
  H   H1061     1.0  0.37854  0.34253  0.11724  1.0000
  H   H1062     1.0  0.47210  0.15131  0.19988  1.0000
  C   C629      1.0  0.34192  0.36081  0.11611  1.0000
  C   C630      1.0  0.36262  0.30600  0.20890  1.0000
  N   N46       1.0  0.37879  0.32194  0.22714  1.0000
  S   S182      1.0  0.33594  0.39336  0.15009  1.0000
  C   C631      1.0  0.54814  0.28502  0.22892  1.0000
  H   H1063     1.0  0.49033  0.32805  0.21981  1.0000
  Fe  Fe85      1.0  0.58093  0.04903  0.20553  1.0000
  H   H1064     1.0  0.53054  0.11323  0.19557  1.0000
  H   H1065     1.0  0.60827  0.99677  0.22193  1.0000
  C   C632      1.0  0.62503  0.20245  0.21200  1.0000
  H   H1066     1.0  0.48006  0.36247  0.15229  1.0000
  H   H1067     1.0  0.51059  0.11493  0.15406  1.0000
  C   C633      1.0  0.49598  0.15595  0.99946  1.0000
  C   C634      1.0  0.52838  0.11672  0.18028  1.0000
  C   C635      1.0  0.48182  0.15811  0.18681  1.0000
  H   H1068     1.0  0.51869  0.25986  0.21994  1.0000
  C   C636      1.0  0.37635  0.39728  0.06427  1.0000
  C   C637      1.0  0.56851  0.35967  0.21337  1.0000
  H   H1069     1.0  0.38639  0.36104  0.21995  1.0000
  C   C638      1.0  0.54269  0.33260  0.17715  1.0000
  H   H1070     1.0  0.50723  0.14462  0.19956  1.0000
  H   H1071     1.0  0.56818  0.36789  0.22445  1.0000
  H   H1072     1.0  0.61590  0.34739  0.16478  1.0000
  H   H1073     1.0  0.54649  0.29400  0.17118  1.0000
  H   H1074     1.0  0.51231  0.15658  0.17499  1.0000
  C   C639      1.0  0.46011  0.15577  0.98494  1.0000
  H   H1075     1.0  0.62482  0.00637  0.16793  1.0000
  H   H1076     1.0  0.55543  0.24205  0.13320  1.0000
  H   H1077     1.0  0.48855  0.33805  0.14807  1.0000
  H   H1078     1.0  0.60655  0.21011  0.16672  1.0000
  C   C640      1.0  0.39479  0.35201  0.20914  1.0000
  C   C641      1.0  0.51799  0.31131  0.16457  1.0000
  Fe  Fe86      1.0  0.59142  0.27786  0.19587  1.0000
  C   C642      1.0  0.37741  0.30349  0.22185  1.0000
  S   S183      1.0  0.34834  0.43402  0.15004  1.0000
  N   N47       1.0  0.50942  0.32402  0.17959  1.0000
  H   H1079     1.0  0.64639  0.16515  0.15157  1.0000
  H   H1080     1.0  0.33506  0.47337  0.12268  1.0000
  H   H1081     1.0  0.60561  0.26723  0.10550  1.0000
  H   H1082     1.0  0.37329  0.33877  0.08861  1.0000
  H   H1083     1.0  0.54661  0.21040  0.21770  1.0000
  H   H1084     1.0  0.60389  0.17797  0.17373  1.0000
  H   H1085     1.0  0.49585  0.15785  0.14098  1.0000
  C   C643      1.0  0.52463  0.32475  0.19007  1.0000
  H   H1086     1.0  0.46270  0.14356  0.99763  1.0000
  C   C644      1.0  0.60710  0.06739  0.22732  1.0000
  H   H1087     1.0  0.65383  0.29270  0.18884  1.0000
  H   H1088     1.0  0.60556  0.21255  0.12372  1.0000
  C   C645      1.0  0.55866  0.20438  0.22573  1.0000
  C   C646      1.0  0.49804  0.09303  0.19304  1.0000
  H   H1089     1.0  0.48596  0.08638  0.20307  1.0000
  S   S184      1.0  0.58941  0.25207  0.18540  1.0000
  S   S185      1.0  0.56699  0.02820  0.23060  1.0000
  N   N48       1.0  0.37437  0.36701  0.09278  1.0000
  H   H1090     1.0  0.57783  0.18924  0.15842  1.0000
  S   S186      1.0  0.59339  0.29763  0.16641  1.0000
  S   S187      1.0  0.63726  0.21316  0.18917  1.0000
  S   S188      1.0  0.57241  0.27141  0.13791  1.0000
  H   H1091     1.0  0.61954  0.15737  0.12969  1.0000
  H   H1092     1.0  0.63718  0.18738  0.16123  1.0000
  H   H1093     1.0  0.49963  0.30060  0.20239  1.0000
  H   H1094     1.0  0.50407  0.16423  0.00446  1.0000
  H   H1095     1.0  0.41256  0.33559  0.11473  1.0000
  C   C647      1.0  0.38468  0.38346  0.08167  1.0000
  S   S189      1.0  0.62396  0.26895  0.19399  1.0000
  Fe  Fe87      1.0  0.59408  0.27100  0.15555  1.0000
  C   C648      1.0  0.38451  0.33610  0.20835  1.0000
  H   H1096     1.0  0.34697  0.35466  0.13011  1.0000
  H   H1097     1.0  0.52976  0.31023  0.19919  1.0000
  C   C649      1.0  0.49342  0.31527  0.19430  1.0000
  C   C650      1.0  0.48133  0.32717  0.20991  1.0000
  H   H1098     1.0  0.51817  0.33437  0.20086  1.0000
  H   H1099     1.0  0.52609  0.31923  0.15088  1.0000
  H   H1100     1.0  0.50613  0.30754  0.15990  1.0000
  H   H1101     1.0  0.54665  0.32941  0.16234  1.0000
  C   C651      1.0  0.61015  0.21415  0.22317  1.0000
  C   C652      1.0  0.61985  0.17327  0.12602  1.0000
  C   C653      1.0  0.50153  0.34458  0.16951  1.0000
  H   H1102     1.0  0.51328  0.35043  0.15798  1.0000
  H   H1103     1.0  0.57739  0.33029  0.20793  1.0000
  C   C654      1.0  0.61139  0.34596  0.19590  1.0000
  C   C655      1.0  0.39410  0.45357  0.15692  1.0000
  H   H1104     1.0  0.59899  0.36121  0.22806  1.0000
  C   C656      1.0  0.55445  0.16098  0.21735  1.0000
  Fe  Fe88      1.0  0.56514  0.01309  0.20768  1.0000
  H   H1105     1.0  0.49680  0.35482  0.17978  1.0000
  S   S190      1.0  0.53510  0.03098  0.20436  1.0000
  H   H1106     1.0  0.34726  0.31009  0.21670  1.0000
  C   C657      1.0  0.61483  0.18224  0.10564  1.0000
  C   C658      1.0  0.37083  0.48466  0.15899  1.0000
  H   H1107     1.0  0.51170  0.08431  0.19785  1.0000
  C   C659      1.0  0.40902  0.46381  0.14757  1.0000
  H   H1108     1.0  0.40024  0.37765  0.07539  1.0000
  H   H1109     1.0  0.47378  0.34203  0.20352  1.0000
  H   H1110     1.0  0.57232  0.19929  0.21547  1.0000
  S   S191      1.0  0.55268  0.06970  0.20142  1.0000
  H   H1111     1.0  0.53308  0.18797  0.21665  1.0000
  H   H1112     1.0  0.47613  0.15967  0.17356  1.0000
  H   H1113     1.0  0.60707  0.36221  0.19400  1.0000
  C   C660      1.0  0.61596  0.08245  0.22748  1.0000
  Fe  Fe89      1.0  0.62600  0.28688  0.16351  1.0000
  H   H1114     1.0  0.34645  0.35143  0.07480  1.0000
  C   C661      1.0  0.58076  0.16489  0.14534  1.0000
  H   H1115     1.0  0.58651  0.16003  0.13124  1.0000
  C   C662      1.0  0.61105  0.20423  0.13714  1.0000
  C   C663      1.0  0.40724  0.34638  0.10219  1.0000
  C   C664      1.0  0.61408  0.17239  0.16102  1.0000
  N   N49       1.0  0.60779  0.18358  0.14219  1.0000
  H   H1116     1.0  0.46971  0.31940  0.21920  1.0000
  C   C665      1.0  0.38526  0.35518  0.10872  1.0000
  C   C666      1.0  0.54246  0.27227  0.22084  1.0000
  H   H1117     1.0  0.58586  0.15299  0.15721  1.0000
  H   H1118     1.0  0.39200  0.29647  0.21408  1.0000
  S   S192      1.0  0.57176  0.28996  0.22149  1.0000
  H   H1119     1.0  0.48101  0.17311  0.18871  1.0000
  C   C667      1.0  0.61705  0.00560  0.22507  1.0000
  C   C668      1.0  0.58034  0.33839  0.21764  1.0000
  H   H1120     1.0  0.51120  0.21112  0.22867  1.0000
  Fe  Fe90      1.0  0.47528  0.26865  0.22261  1.0000
  H   H1121     1.0  0.57392  0.36782  0.19860  1.0000
  H   H1122     1.0  0.39493  0.32799  0.19745  1.0000
  H   H1123     1.0  0.54549  0.12856  0.15188  1.0000
  C   C669      1.0  0.37454  0.35368  0.07973  1.0000
  C   C670      1.0  0.63558  0.01097  0.19134  1.0000
  C   C671      1.0  0.60119  0.21652  0.15295  1.0000
  H   H1124     1.0  0.57976  0.19568  0.13308  1.0000
  C   C672      1.0  0.62705  0.34356  0.23127  1.0000
  H   H1125     1.0  0.63680  0.32968  0.22799  1.0000
  H   H1126     1.0  0.52038  0.15244  0.14535  1.0000
  H   H1127     1.0  0.55895  0.11842  0.17064  1.0000
  H   H1128     1.0  0.65018  0.01137  0.18163  1.0000
  C   C673      1.0  0.50325  0.14659  0.18519  1.0000
  H   H1129     1.0  0.53189  0.10245  0.17564  1.0000
  H   H1130     1.0  0.36348  0.45614  0.17030  1.0000
  H   H1131     1.0  0.59156  0.34541  0.17737  1.0000
  H   H1132     1.0  0.62723  0.31163  0.21363  1.0000
  H   H1133     1.0  0.41007  0.33844  0.09023  1.0000
  H   H1134     1.0  0.38495  0.39276  0.09169  1.0000
  Fe  Fe91      1.0  0.35240  0.41492  0.12891  1.0000
  H   H1135     1.0  0.61329  0.15671  0.16366  1.0000
  C   C674      1.0  0.63025  0.18222  0.21926  1.0000
  C   C675      1.0  0.50898  0.14606  0.14330  1.0000
  C   C676      1.0  0.54458  0.12742  0.16759  1.0000
  H   H1136     1.0  0.56119  0.21698  0.23018  1.0000
  H   H1137     1.0  0.39651  0.36210  0.19464  1.0000
  H   H1138     1.0  0.38886  0.35162  0.06927  1.0000
  H   H1139     1.0  0.51474  0.14103  0.12925  1.0000
  C   C677      1.0  0.54237  0.18493  0.98662  1.0000
  H   H1140     1.0  0.48730  0.13008  0.16078  1.0000
  N   N50       1.0  0.60207  0.33600  0.21580  1.0000
  C   C678      1.0  0.60716  0.34031  0.17853  1.0000
  H   H1141     1.0  0.49846  0.09134  0.17816  1.0000
  H   H1142     1.0  0.48258  0.15434  0.01079  1.0000
  C   C679      1.0  0.58621  0.18437  0.14469  1.0000
  H   H1143     1.0  0.63563  0.17327  0.12405  1.0000
  H   H1144     1.0  0.61165  0.32430  0.17922  1.0000
  H   H1145     1.0  0.64184  0.17315  0.21066  1.0000
  H   H1146     1.0  0.50579  0.14139  0.99853  1.0000
  Fe  Fe92      1.0  0.62217  0.24474  0.18073  1.0000
  C   C680      1.0  0.61114  0.31434  0.21883  1.0000
  H   H1147     1.0  0.59939  0.18990  0.10606  1.0000
  H   H1148     1.0  0.49560  0.11474  0.20953  1.0000
  H   H1149     1.0  0.60182  0.19908  0.99469  1.0000
  N   N51       1.0  0.50745  0.12702  0.17939  1.0000
  C   C681      1.0  0.65803  0.30673  0.18372  1.0000
  H   H1150     1.0  0.56823  0.16580  0.21573  1.0000
  H   H1151     1.0  0.41613  0.35777  0.09800  1.0000
  H   H1152     1.0  0.38420  0.36420  0.11942  1.0000
  H   H1153     1.0  0.34805  0.33539  0.22878  1.0000
  H   H1154     1.0  0.34498  0.38532  0.09219  1.0000
  H   H1155     1.0  0.45428  0.18369  0.99533  1.0000
  H   H1156     1.0  0.36430  0.35593  0.05331  1.0000
  H   H1157     1.0  0.36535  0.31675  0.19508  1.0000
  C   C682      1.0  0.44646  0.17368  0.99269  1.0000
  C   C683      1.0  0.35398  0.37570  0.10266  1.0000
  C   C684      1.0  0.53644  0.17434  0.22754  1.0000
  H   H1158     1.0  0.60603  0.30713  0.20981  1.0000
  H   H1159     1.0  0.61719  0.17039  0.09755  1.0000
  S   S193      1.0  0.40893  0.25692  0.22970  1.0000
  H   H1160     1.0  0.62686  0.02635  0.18892  1.0000
  C   C685      1.0  0.35812  0.35991  0.06781  1.0000
  H   H1161     1.0  0.36421  0.29171  0.20493  1.0000
  Fe  Fe93      1.0  0.33385  0.41126  0.17179  1.0000
  H   H1162     1.0  0.40984  0.34551  0.21184  1.0000
  S   S194      1.0  0.46577  0.24023  0.22909  1.0000
  H   H1163     1.0  0.37876  0.38966  0.05214  1.0000
  H   H1164     1.0  0.55252  0.16146  0.20250  1.0000
  H   H1165     1.0  0.35140  0.37572  0.06498  1.0000
  H   H1166     1.0  0.52362  0.16752  0.22999  1.0000
  H   H1167     1.0  0.60862  0.02094  0.22175  1.0000
  H   H1168     1.0  0.65869  0.22526  0.22505  1.0000
  H   H1169     1.0  0.55306  0.35927  0.21409  1.0000
  H   H1170     1.0  0.40880  0.30951  0.23015  1.0000
  N   N52       1.0  0.63733  0.00389  0.21243  1.0000
  H   H1171     1.0  0.61176  0.99681  0.19127  1.0000
  C   C686      1.0  0.60540  0.34519  0.23077  1.0000
  C   C687      1.0  0.40482  0.48436  0.14350  1.0000
  C   C688      1.0  0.32989  0.48379  0.13268  1.0000
  Fe  Fe94      1.0  0.53855  0.04788  0.22484  1.0000
  H   H1172     1.0  0.63742  0.03269  0.21646  1.0000
  C   C689      1.0  0.65584  0.31761  0.16516  1.0000
  C   C690      1.0  0.64699  0.01773  0.21731  1.0000
  H   H1173     1.0  0.55581  0.14544  0.22521  1.0000
  H   H1174     1.0  0.52554  0.12414  0.23117  1.0000
  H   H1175     1.0  0.64920  0.01289  0.23260  1.0000
  H   H1176     1.0  0.63758  0.14717  0.41615  1.0000
  S   S195      1.0  0.58969  0.12274  0.29830  1.0000
  Fe  Fe95      1.0  0.59730  0.12037  0.32685  1.0000
  S   S196      1.0  0.57304  0.11675  0.35288  1.0000
  S   S197      1.0  0.62508  0.09808  0.32166  1.0000
  Fe  Fe96      1.0  0.45924  0.13341  0.32541  1.0000
  S   S198      1.0  0.45174  0.16182  0.33559  1.0000
  S   S199      1.0  0.45087  0.10590  0.34468  1.0000
  Fe  Fe97      1.0  0.47652  0.15111  0.28414  1.0000
  S   S200      1.0  0.47010  0.18117  0.29040  1.0000
  S   S201      1.0  0.49420  0.14638  0.25478  1.0000
  Fe  Fe98      1.0  0.48114  0.16588  0.31767  1.0000
  S   S202      1.0  0.50169  0.18007  0.32477  1.0000
  Fe  Fe99      1.0  0.44127  0.17459  0.30756  1.0000
  S   S203      1.0  0.41297  0.19691  0.30913  1.0000
  S   S204      1.0  0.48990  0.13618  0.31022  1.0000
  S   S205      1.0  0.44640  0.14589  0.29859  1.0000
  Fe  Fe100     1.0  0.37952  0.12231  0.44011  1.0000
  S   S206      1.0  0.35987  0.11112  0.42814  1.0000
  S   S207      1.0  0.41152  0.12208  0.42889  1.0000
  Fe  Fe101     1.0  0.34819  0.09864  0.45948  1.0000
  H   H1177     1.0  0.56568  0.05528  0.30234  1.0000
  H   H1178     1.0  0.53473  0.08079  0.33029  1.0000
  H   H1179     1.0  0.41713  0.14327  0.34982  1.0000
  H   H1180     1.0  0.64119  0.19333  0.30367  1.0000
  C   C691      1.0  0.60546  0.18550  0.24867  1.0000
  Fe  Fe102     1.0  0.33812  0.13854  0.43429  1.0000
  H   H1181     1.0  0.54152  0.05419  0.31422  1.0000
  C   C692      1.0  0.42211  0.11743  0.40549  1.0000
  C   C693      1.0  0.41350  0.10782  0.39655  1.0000
  C   C694      1.0  0.42275  0.10365  0.37811  1.0000
  C   C695      1.0  0.44017  0.10982  0.36828  1.0000
  C   C696      1.0  0.44850  0.11985  0.37700  1.0000
  C   C697      1.0  0.43967  0.12332  0.39574  1.0000
  H   H1182     1.0  0.39978  0.10354  0.40378  1.0000
  H   H1183     1.0  0.41617  0.09612  0.37121  1.0000
  H   H1184     1.0  0.46194  0.12468  0.36942  1.0000
  H   H1185     1.0  0.44635  0.13081  0.40259  1.0000
  C   C698      1.0  0.41054  0.21200  0.28640  1.0000
  C   C699      1.0  0.42484  0.20874  0.26979  1.0000
  C   C700      1.0  0.42383  0.22210  0.25204  1.0000
  H   H1186     1.0  0.51003  0.22722  0.27970  1.0000
  C   C701      1.0  0.39359  0.24128  0.26726  1.0000
  C   C702      1.0  0.39471  0.22805  0.28508  1.0000
  H   H1187     1.0  0.43677  0.19605  0.27060  1.0000
  H   H1188     1.0  0.37680  0.30696  0.26805  1.0000
  H   H1189     1.0  0.38158  0.25392  0.26635  1.0000
  H   H1190     1.0  0.38355  0.23046  0.29791  1.0000
  C   C703      1.0  0.55280  0.13443  0.34608  1.0000
  C   C704      1.0  0.53430  0.12983  0.35038  1.0000
  C   C705      1.0  0.51850  0.14375  0.34369  1.0000
  C   C706      1.0  0.52113  0.16244  0.33325  1.0000
  C   C707      1.0  0.53954  0.16708  0.32923  1.0000
  C   C708      1.0  0.55542  0.15299  0.33534  1.0000
  H   H1191     1.0  0.53227  0.11543  0.35855  1.0000
  H   H1192     1.0  0.50424  0.14016  0.34688  1.0000
  H   H1193     1.0  0.54165  0.18145  0.32102  1.0000
  H   H1194     1.0  0.56967  0.15660  0.33186  1.0000
  H   H1195     1.0  0.43939  0.04054  0.43701  1.0000
  H   H1196     1.0  0.36592  0.21134  0.34863  1.0000
  H   H1197     1.0  0.65209  0.16408  0.29035  1.0000
  H   H1198     1.0  0.64581  0.10183  0.39192  1.0000
  C   C709      1.0  0.63959  0.11343  0.38034  1.0000
  C   C710      1.0  0.50840  0.08206  0.25039  1.0000
  C   C711      1.0  0.49161  0.08938  0.26330  1.0000
  C   C712      1.0  0.48709  0.10919  0.26472  1.0000
  C   C713      1.0  0.49922  0.12176  0.25298  1.0000
  H   H1199     1.0  0.39159  0.28680  0.25651  1.0000
  C   C714      1.0  0.42475  0.07126  0.45870  1.0000
  H   H1200     1.0  0.48211  0.07971  0.27231  1.0000
  H   H1201     1.0  0.47416  0.11472  0.27481  1.0000
  H   H1202     1.0  0.52618  0.16342  0.28951  1.0000
  C   C715      1.0  0.39069  0.15680  0.38294  1.0000
  H   H1203     1.0  0.62620  0.20586  0.28540  1.0000
  Fe  Fe103     1.0  0.60686  0.14631  0.28723  1.0000
  C   C716      1.0  0.40849  0.23861  0.25089  1.0000
  H   H1204     1.0  0.44268  0.03518  0.47526  1.0000
  H   H1205     1.0  0.40271  0.30008  0.26642  1.0000
  H   H1206     1.0  0.61668  0.14419  0.36090  1.0000
  H   H1207     1.0  0.65282  0.45617  0.24861  1.0000
  C   C717      1.0  0.35772  0.16554  0.37583  1.0000
  H   H1208     1.0  0.43423  0.23333  0.33992  1.0000
  H   H1209     1.0  0.37393  0.17758  0.40226  1.0000
  H   H1210     1.0  0.55070  0.16837  0.28259  1.0000
  H   H1211     1.0  0.39724  0.16445  0.40719  1.0000
  C   C718      1.0  0.51915  0.19022  0.25522  1.0000
  C   C719      1.0  0.63293  0.19151  0.29355  1.0000
  C   C720      1.0  0.56528  0.07965  0.32555  1.0000
  C   C721      1.0  0.52562  0.09319  0.29445  1.0000
  H   H1212     1.0  0.50455  0.30025  0.25830  1.0000
  H   H1213     1.0  0.51002  0.06914  0.30950  1.0000
  H   H1214     1.0  0.38350  0.13259  0.36606  1.0000
  H   H1215     1.0  0.55745  0.08489  0.25762  1.0000
  C   C722      1.0  0.51511  0.29233  0.24794  1.0000
  Fe  Fe104     1.0  0.34728  0.13509  0.47358  1.0000
  C   C723      1.0  0.37475  0.20157  0.35929  1.0000
  H   H1216     1.0  0.38635  0.20919  0.35900  1.0000
  H   H1217     1.0  0.34357  0.16263  0.35332  1.0000
  C   C724      1.0  0.55514  0.18791  0.24403  1.0000
  H   H1218     1.0  0.42054  0.06998  0.42263  1.0000
  H   H1219     1.0  0.50043  0.22149  0.30520  1.0000
  H   H1220     1.0  0.44979  0.25651  0.26403  1.0000
  H   H1221     1.0  0.52472  0.09232  0.27973  1.0000
  C   C725      1.0  0.50826  0.08506  0.30857  1.0000
  H   H1222     1.0  0.50016  0.24676  0.29243  1.0000
  H   H1223     1.0  0.57781  0.13837  0.38982  1.0000
  C   C726      1.0  0.39656  0.05469  0.46934  1.0000
  H   H1224     1.0  0.65205  0.12809  0.40411  1.0000
  C   C727      1.0  0.51254  0.21100  0.24353  1.0000
  H   H1225     1.0  0.62051  0.18497  0.30285  1.0000
  H   H1226     1.0  0.47860  0.21986  0.28281  1.0000
  H   H1227     1.0  0.42463  0.25600  0.27302  1.0000
  C   C728      1.0  0.56112  0.09279  0.28396  1.0000
  C   C729      1.0  0.61300  0.07220  0.26256  1.0000
  C   C730      1.0  0.54814  0.05391  0.28345  1.0000
  H   H1228     1.0  0.63571  0.17263  0.27395  1.0000
  H   H1229     1.0  0.35289  0.31889  0.25014  1.0000
  H   H1230     1.0  0.58878  0.21484  0.24997  1.0000
  C   C731      1.0  0.38917  0.17185  0.39520  1.0000
  H   H1231     1.0  0.56149  0.10702  0.28701  1.0000
  C   C732      1.0  0.44171  0.26762  0.31984  1.0000
  C   C733      1.0  0.54569  0.08747  0.31845  1.0000
  H   H1232     1.0  0.39765  0.32909  0.24229  1.0000
  H   H1233     1.0  0.42894  0.24028  0.30548  1.0000
  H   H1234     1.0  0.57765  0.08526  0.31504  1.0000
  S   S208      1.0  0.59278  0.17566  0.27159  1.0000
  S   S209      1.0  0.61190  0.14590  0.31654  1.0000
  H   H1235     1.0  0.51967  0.19245  0.26966  1.0000
  H   H1236     1.0  0.54705  0.14382  0.28929  1.0000
  H   H1237     1.0  0.50711  0.18227  0.25785  1.0000
  N   N53       1.0  0.54561  0.08351  0.29900  1.0000
  C   C734      1.0  0.52071  0.09463  0.23904  1.0000
  C   C735      1.0  0.55926  0.09750  0.26244  1.0000
  S   S210      1.0  0.35877  0.15089  0.44356  1.0000
  H   H1238     1.0  0.53084  0.14993  0.26074  1.0000
  H   H1239     1.0  0.45231  0.01702  0.46125  1.0000
  H   H1240     1.0  0.57289  0.10179  0.25307  1.0000
  H   H1241     1.0  0.60846  0.14814  0.40498  1.0000
  C   C736      1.0  0.50926  0.28005  0.23948  1.0000
  H   H1242     1.0  0.47225  0.22438  0.32809  1.0000
  H   H1243     1.0  0.52218  0.22084  0.24311  1.0000
  C   C737      1.0  0.55025  0.06158  0.30062  1.0000
  H   H1244     1.0  0.43501  0.27131  0.28136  1.0000
  H   H1245     1.0  0.53617  0.06293  0.27610  1.0000
  H   H1246     1.0  0.38047  0.18302  0.33867  1.0000
  C   C738      1.0  0.38434  0.18168  0.35296  1.0000
  H   H1247     1.0  0.57589  0.08341  0.28477  1.0000
  H   H1248     1.0  0.41980  0.02889  0.44796  1.0000
  H   H1249     1.0  0.54424  0.03929  0.28899  1.0000
  H   H1250     1.0  0.40052  0.18040  0.34964  1.0000
  H   H1251     1.0  0.36520  0.20065  0.37391  1.0000
  H   H1252     1.0  0.50563  0.08820  0.32330  1.0000
  C   C739      1.0  0.53449  0.29482  0.24265  1.0000
  H   H1253     1.0  0.37318  0.29238  0.23506  1.0000
  H   H1254     1.0  0.56377  0.08465  0.33922  1.0000
  H   H1255     1.0  0.61313  0.28671  0.23987  1.0000
  H   H1256     1.0  0.52271  0.10923  0.29393  1.0000
  N   N54       1.0  0.41457  0.05792  0.45380  1.0000
  C   C740      1.0  0.40785  0.06835  0.43498  1.0000
  C   C741      1.0  0.44391  0.07507  0.44441  1.0000
  H   H1257     1.0  0.63190  0.12343  0.42438  1.0000
  H   H1258     1.0  0.49461  0.09249  0.30303  1.0000
  C   C742      1.0  0.39473  0.05860  0.42834  1.0000
  H   H1259     1.0  0.65021  0.12329  0.37453  1.0000
  H   H1260     1.0  0.61492  0.08404  0.39472  1.0000
  S   S211      1.0  0.48449  0.27873  0.24502  1.0000
  H   H1261     1.0  0.39948  0.08352  0.43608  1.0000
  H   H1262     1.0  0.44156  0.08267  0.42958  1.0000
  C   C743      1.0  0.60412  0.05719  0.26235  1.0000
  C   C744      1.0  0.54182  0.15848  0.26020  1.0000
  C   C745      1.0  0.60720  0.30256  0.23994  1.0000
  H   H1263     1.0  0.63083  0.09404  0.36603  1.0000
  H   H1264     1.0  0.47773  0.24505  0.27290  1.0000
  C   C746      1.0  0.62256  0.14065  0.39693  1.0000
  H   H1265     1.0  0.39067  0.06792  0.41457  1.0000
  H   H1266     1.0  0.40244  0.04398  0.42514  1.0000
  H   H1267     1.0  0.38076  0.05747  0.43899  1.0000
  S   S212      1.0  0.61765  0.07355  0.28479  1.0000
  H   H1268     1.0  0.59988  0.04712  0.27579  1.0000
  H   H1269     1.0  0.42799  0.26437  0.31869  1.0000
  H   H1270     1.0  0.44989  0.08503  0.44963  1.0000
  H   H1271     1.0  0.53883  0.30461  0.24901  1.0000
  C   C747      1.0  0.44284  0.21977  0.33501  1.0000
  H   H1272     1.0  0.46809  0.20819  0.31568  1.0000
  H   H1273     1.0  0.59314  0.08779  0.41272  1.0000
  H   H1274     1.0  0.54703  0.11021  0.25961  1.0000
  N   N55       1.0  0.61960  0.12470  0.38865  1.0000
  H   H1275     1.0  0.60593  0.12372  0.36551  1.0000
  C   C748      1.0  0.64116  0.10378  0.36315  1.0000
  C   C749      1.0  0.58767  0.14713  0.37882  1.0000
  C   C750      1.0  0.60860  0.11157  0.40506  1.0000
  H   H1276     1.0  0.61476  0.30657  0.24939  1.0000
  H   H1277     1.0  0.64006  0.17606  0.35403  1.0000
  C   C751      1.0  0.64577  0.17737  0.28031  1.0000
  H   H1278     1.0  0.39157  0.04169  0.46836  1.0000
  H   H1279     1.0  0.38409  0.06730  0.46698  1.0000
  C   C752      1.0  0.39089  0.30169  0.25853  1.0000
  H   H1280     1.0  0.55354  0.19411  0.25705  1.0000
  H   H1281     1.0  0.59386  0.04350  0.24494  1.0000
  H   H1282     1.0  0.55639  0.14939  0.25502  1.0000
  C   C753      1.0  0.61855  0.08513  0.24514  1.0000
  H   H1283     1.0  0.59743  0.33966  0.24569  1.0000
  H   H1284     1.0  0.59516  0.12046  0.41269  1.0000
  H   H1285     1.0  0.64579  0.21550  0.25829  1.0000
  C   C754      1.0  0.42802  0.03863  0.45065  1.0000
  H   H1286     1.0  0.61978  0.01168  0.25242  1.0000
  H   H1287     1.0  0.46318  0.26934  0.29265  1.0000
  H   H1288     1.0  0.44435  0.22570  0.28928  1.0000
  H   H1289     1.0  0.64052  0.15832  0.32887  1.0000
  C   C755      1.0  0.65223  0.20283  0.25104  1.0000
  H   H1290     1.0  0.63887  0.11507  0.34984  1.0000
  C   C756      1.0  0.65244  0.15404  0.33652  1.0000
  H   H1291     1.0  0.56206  0.05230  0.27250  1.0000
  C   C757      1.0  0.39465  0.31620  0.23888  1.0000
  H   H1292     1.0  0.58079  0.15295  0.36584  1.0000
  H   H1293     1.0  0.44337  0.26305  0.33528  1.0000
  S   S213      1.0  0.51403  0.05708  0.24923  1.0000
  H   H1294     1.0  0.56909  0.06339  0.32907  1.0000
  H   H1295     1.0  0.34521  0.34840  0.26002  1.0000
  C   C758      1.0  0.60819  0.13454  0.37269  1.0000
  S   S214      1.0  0.36990  0.10739  0.47094  1.0000
  C   C759      1.0  0.60028  0.20567  0.24139  1.0000
  H   H1296     1.0  0.47258  0.25680  0.31348  1.0000
  H   H1297     1.0  0.39641  0.18401  0.38652  1.0000
  C   C760      1.0  0.60218  0.09536  0.39957  1.0000
  S   S215      1.0  0.34424  0.06756  0.47063  1.0000
  H   H1298     1.0  0.40599  0.15620  0.32927  1.0000
  H   H1299     1.0  0.45528  0.06139  0.44369  1.0000
  H   H1300     1.0  0.58832  0.16004  0.38404  1.0000
  H   H1301     1.0  0.43356  0.21345  0.32928  1.0000
  H   H1302     1.0  0.38615  0.14367  0.39334  1.0000
  H   H1303     1.0  0.65624  0.09489  0.35964  1.0000
  N   N56       1.0  0.37926  0.16338  0.36681  1.0000
  H   H1304     1.0  0.54140  0.10356  0.31823  1.0000
  H   H1305     1.0  0.44677  0.20887  0.34810  1.0000
  H   H1306     1.0  0.40843  0.13030  0.33719  1.0000
  Fe  Fe105     1.0  0.63937  0.12397  0.30857  1.0000
  C   C761      1.0  0.40526  0.14421  0.34241  1.0000
  Fe  Fe106     1.0  0.61847  0.10189  0.29209  1.0000
  C   C762      1.0  0.65224  0.16411  0.35077  1.0000
  H   H1307     1.0  0.35463  0.15105  0.38436  1.0000
  H   H1308     1.0  0.43959  0.28386  0.31556  1.0000
  H   H1309     1.0  0.40660  0.15213  0.37720  1.0000
  C   C763      1.0  0.38471  0.14690  0.35579  1.0000
  C   C764      1.0  0.54138  0.15887  0.28151  1.0000
  H   H1310     1.0  0.35301  0.17493  0.38678  1.0000
  H   H1311     1.0  0.37450  0.14902  0.34596  1.0000
  N   N57       1.0  0.46022  0.23891  0.30215  1.0000
  C   C765      1.0  0.47815  0.23396  0.28664  1.0000
  C   C766      1.0  0.44261  0.23958  0.29421  1.0000
  C   C767      1.0  0.46184  0.22263  0.32000  1.0000
  C   C768      1.0  0.46016  0.25828  0.30639  1.0000
  C   C769      1.0  0.49815  0.23231  0.29161  1.0000
  C   C770      1.0  0.43804  0.25690  0.27721  1.0000
  H   H1312     1.0  0.34633  0.18735  0.35124  1.0000
  S   S216      1.0  0.63540  0.12588  0.27817  1.0000
  H   H1313     1.0  0.59292  0.10122  0.38844  1.0000
  H   H1314     1.0  0.61753  0.10397  0.41632  1.0000
  H   H1315     1.0  0.59135  0.30421  0.24643  1.0000
  C   C771      1.0  0.60076  0.05507  0.24488  1.0000
  C   C772      1.0  0.51595  0.11451  0.24003  1.0000
  H   H1316     1.0  0.62555  0.09664  0.24517  1.0000
  H   H1317     1.0  0.42859  0.06569  0.47326  1.0000
  C   C773      1.0  0.63684  0.13409  0.41118  1.0000
  H   H1318     1.0  0.62806  0.15233  0.38504  1.0000
  H   H1319     1.0  0.41466  0.08579  0.45972  1.0000
  H   H1320     1.0  0.42901  0.01661  0.47791  1.0000
  C   C774      1.0  0.35743  0.34818  0.24706  1.0000
  C   C775      1.0  0.61613  0.00014  0.24727  1.0000
  H   H1321     1.0  0.62443  0.15810  0.24320  1.0000
  C   C776      1.0  0.43832  0.02633  0.46740  1.0000
  N   N58       1.0  0.53831  0.17819  0.24641  1.0000
  H   H1322     1.0  0.56916  0.17675  0.24354  1.0000
  H   H1323     1.0  0.32831  0.17715  0.37008  1.0000
  C   C777      1.0  0.34349  0.17365  0.36154  1.0000
  C   C778      1.0  0.62048  0.17372  0.23765  1.0000
  H   H1324     1.0  0.63959  0.19978  0.24715  1.0000
  H   H1325     1.0  0.49770  0.21745  0.25098  1.0000
  H   H1326     1.0  0.37047  0.34772  0.25256  1.0000
  C   C779      1.0  0.35899  0.33034  0.23835  1.0000
  H   H1327     1.0  0.62823  0.34379  0.24617  1.0000
  H   H1328     1.0  0.43490  0.21954  0.23922  1.0000
  H   H1329     1.0  0.60087  0.99910  0.25489  1.0000
  H   H1330     1.0  0.35421  0.36211  0.23632  1.0000
  H   H1331     1.0  0.65889  0.21471  0.28571  1.0000
  N   N59       1.0  0.64247  0.20066  0.57508  1.0000
  S   S217      1.0  0.58368  0.18319  0.69733  1.0000
  H   H1332     1.0  0.65448  0.21373  0.53477  1.0000
  H   H1333     1.0  0.34633  0.05404  0.56408  1.0000
  S   S218      1.0  0.59739  0.13580  0.71370  1.0000
  H   H1334     1.0  0.33400  0.10599  0.50365  1.0000
  Fe  Fe107     1.0  0.60982  0.15923  0.69051  1.0000
  S   S219      1.0  0.62322  0.15299  0.66050  1.0000
  C   C780      1.0  0.63191  0.21742  0.56167  1.0000
  C   C781      1.0  0.42876  0.08246  0.64315  1.0000
  S   S220      1.0  0.62729  0.16512  0.70899  1.0000
  H   H1335     1.0  0.34158  0.44490  0.66904  1.0000
  S   S221      1.0  0.49041  0.15466  0.67786  1.0000
  Fe  Fe108     1.0  0.57305  0.16040  0.72239  1.0000
  S   S222      1.0  0.36425  0.10029  0.57638  1.0000
  H   H1336     1.0  0.63719  0.16180  0.60112  1.0000
  C   C782      1.0  0.54663  0.10473  0.69974  1.0000
  H   H1337     1.0  0.34167  0.13986  0.56717  1.0000
  Fe  Fe109     1.0  0.42670  0.18866  0.71451  1.0000
  C   C783      1.0  0.35954  0.11562  0.55424  1.0000
  C   C784      1.0  0.34689  0.13404  0.55404  1.0000
  C   C785      1.0  0.60389  0.08315  0.72266  1.0000
  C   C786      1.0  0.34774  0.13776  0.51962  1.0000
  C   C787      1.0  0.36152  0.12001  0.51953  1.0000
  C   C788      1.0  0.36742  0.10894  0.53682  1.0000
  H   H1338     1.0  0.34654  0.41123  0.70695  1.0000
  H   H1339     1.0  0.56201  0.22178  0.70748  1.0000
  H   H1340     1.0  0.36734  0.11455  0.50634  1.0000
  H   H1341     1.0  0.37752  0.09489  0.53681  1.0000
  H   H1342     1.0  0.39042  0.13285  0.69567  1.0000
  H   H1343     1.0  0.44437  0.12376  0.66049  1.0000
  C   C789      1.0  0.40068  0.11982  0.61600  1.0000
  H   H1344     1.0  0.59037  0.07612  0.70284  1.0000
  H   H1345     1.0  0.53671  0.10258  0.69140  1.0000
  C   C790      1.0  0.63887  0.18193  0.57231  1.0000
  C   C791      1.0  0.38407  0.15264  0.66914  1.0000
  C   C792      1.0  0.37321  0.15699  0.65452  1.0000
  C   C793      1.0  0.36054  0.14507  0.65491  1.0000
  C   C794      1.0  0.35885  0.12848  0.66977  1.0000
  C   C795      1.0  0.36955  0.12421  0.68456  1.0000
  S   S223      1.0  0.43708  0.18484  0.68367  1.0000
  H   H1346     1.0  0.40582  0.05288  0.61373  1.0000
  H   H1347     1.0  0.36297  0.41873  0.71666  1.0000
  Fe  Fe110     1.0  0.33211  0.11757  0.64229  1.0000
  C   C796      1.0  0.63355  0.20236  0.59598  1.0000
  S   S224      1.0  0.43979  0.13767  0.69992  1.0000
  S   S225      1.0  0.59854  0.21762  0.72103  1.0000
  H   H1348     1.0  0.53845  0.19972  0.71150  1.0000
  Fe  Fe111     1.0  0.60008  0.18716  0.71793  1.0000
  S   S226      1.0  0.33776  0.15038  0.49898  1.0000
  H   H1349     1.0  0.64884  0.19570  0.70758  1.0000
  H   H1350     1.0  0.35130  0.46008  0.67815  1.0000
  S   S227      1.0  0.34457  0.11218  0.66934  1.0000
  H   H1351     1.0  0.39840  0.06647  0.49378  1.0000
  C   C797      1.0  0.53540  0.16067  0.69819  1.0000
  C   C798      1.0  0.52388  0.15982  0.68558  1.0000
  C   C799      1.0  0.50601  0.15378  0.69322  1.0000
  C   C800      1.0  0.50022  0.14774  0.71334  1.0000
  H   H1352     1.0  0.64593  0.17939  0.55734  1.0000
  H   H1353     1.0  0.54904  0.16560  0.69232  1.0000
  H   H1354     1.0  0.52855  0.16429  0.66999  1.0000
  H   H1355     1.0  0.35203  0.14883  0.64374  1.0000
  H   H1356     1.0  0.39051  0.06404  0.59624  1.0000
  C   C801      1.0  0.64328  0.16383  0.64796  1.0000
  H   H1357     1.0  0.33862  0.47654  0.64795  1.0000
  H   H1358     1.0  0.40049  0.06240  0.67310  1.0000
  C   C802      1.0  0.39169  0.06293  0.61148  1.0000
  C   C803      1.0  0.58642  0.08673  0.71267  1.0000
  H   H1359     1.0  0.42587  0.07720  0.61646  1.0000
  H   H1360     1.0  0.39947  0.09091  0.60128  1.0000
  C   C804      1.0  0.39786  0.05232  0.49075  1.0000
  Fe  Fe112     1.0  0.41667  0.16407  0.69137  1.0000
  H   H1361     1.0  0.41949  0.05899  0.63707  1.0000
  C   C805      1.0  0.64468  0.18170  0.65109  1.0000
  H   H1362     1.0  0.64576  0.15003  0.58086  1.0000
  H   H1363     1.0  0.63240  0.20562  0.53632  1.0000
  C   C806      1.0  0.54890  0.22678  0.70082  1.0000
  C   C807      1.0  0.41757  0.07519  0.63183  1.0000
  H   H1364     1.0  0.36286  0.42677  0.69128  1.0000
  H   H1365     1.0  0.38556  0.05827  0.64901  1.0000
  H   H1366     1.0  0.62290  0.18296  0.57378  1.0000
  H   H1367     1.0  0.55863  0.07381  0.70548  1.0000
  H   H1368     1.0  0.44362  0.07286  0.64283  1.0000
  C   C808      1.0  0.35331  0.42370  0.70584  1.0000
  H   H1369     1.0  0.63363  0.18871  0.66184  1.0000
  H   H1370     1.0  0.52121  0.22049  0.70284  1.0000
  H   H1371     1.0  0.42164  0.08201  0.65863  1.0000
  H   H1372     1.0  0.55947  0.10928  0.68906  1.0000
  C   C809      1.0  0.38342  0.07383  0.64995  1.0000
  C   C810      1.0  0.39149  0.10596  0.63406  1.0000
  H   H1373     1.0  0.43088  0.09757  0.63633  1.0000
  C   C811      1.0  0.33727  0.45736  0.67675  1.0000
  H   H1374     1.0  0.41039  0.04082  0.49504  1.0000
  H   H1375     1.0  0.62731  0.22019  0.61757  1.0000
  Fe  Fe113     1.0  0.45915  0.15898  0.69477  1.0000
  H   H1376     1.0  0.37541  0.11175  0.63628  1.0000
  H   H1377     1.0  0.36818  0.11150  0.69623  1.0000
  H   H1378     1.0  0.62845  0.23453  0.59347  1.0000
  H   H1379     1.0  0.43268  0.18989  0.64394  1.0000
  N   N60       1.0  0.39610  0.08464  0.63283  1.0000
  H   H1380     1.0  0.37491  0.09192  0.61427  1.0000
  H   H1381     1.0  0.44484  0.20981  0.63534  1.0000
  C   C812      1.0  0.39027  0.08367  0.61459  1.0000
  H   H1382     1.0  0.54378  0.24288  0.69944  1.0000
  H   H1383     1.0  0.65580  0.16998  0.73085  1.0000
  H   H1384     1.0  0.37459  0.06713  0.68142  1.0000
  H   H1385     1.0  0.49883  0.26705  0.72303  1.0000
  H   H1386     1.0  0.34563  0.45238  0.71294  1.0000
  C   C813      1.0  0.32891  0.47596  0.66262  1.0000
  H   H1387     1.0  0.47020  0.11980  0.65136  1.0000
  C   C814      1.0  0.38669  0.07284  0.67036  1.0000
  H   H1388     1.0  0.37446  0.16976  0.64290  1.0000
  H   H1389     1.0  0.61720  0.08537  0.71130  1.0000
  H   H1390     1.0  0.39985  0.13393  0.62000  1.0000
  C   C815      1.0  0.52883  0.15574  0.71839  1.0000
  H   H1391     1.0  0.63233  0.23117  0.53106  1.0000
  H   H1392     1.0  0.55379  0.22397  0.68579  1.0000
  C   C816      1.0  0.50196  0.25156  0.72146  1.0000
  C   C817      1.0  0.38217  0.13625  0.68425  1.0000
  H   H1393     1.0  0.65069  0.22030  0.60208  1.0000
  H   H1394     1.0  0.58590  0.10140  0.70274  1.0000
  S   S228      1.0  0.40014  0.16785  0.66753  1.0000
  H   H1395     1.0  0.64053  0.18975  0.60620  1.0000
  C   C818      1.0  0.65754  0.15494  0.63389  1.0000
  H   H1396     1.0  0.43256  0.14928  0.61490  1.0000
  Fe  Fe114     1.0  0.34144  0.11149  0.60076  1.0000
  H   H1397     1.0  0.61772  0.20183  0.59943  1.0000
  H   H1398     1.0  0.38627  0.08733  0.67308  1.0000
  C   C819      1.0  0.63834  0.21674  0.53978  1.0000
  H   H1399     1.0  0.43915  0.19972  0.61801  1.0000
  H   H1400     1.0  0.63336  0.23186  0.56303  1.0000
  H   H1401     1.0  0.61582  0.21803  0.56582  1.0000
  S   S229      1.0  0.34529  0.13479  0.61369  1.0000
  C   C820      1.0  0.55251  0.08544  0.71423  1.0000
  H   H1402     1.0  0.43161  0.17273  0.59948  1.0000
  H   H1403     1.0  0.59016  0.04698  0.72490  1.0000
  H   H1404     1.0  0.39575  0.10808  0.64690  1.0000
  C   C821      1.0  0.65831  0.20650  0.70415  1.0000
  H   H1405     1.0  0.41622  0.11363  0.61021  1.0000
  H   H1406     1.0  0.36761  0.08037  0.64987  1.0000
  H   H1407     1.0  0.39226  0.12337  0.60423  1.0000
  H   H1408     1.0  0.42667  0.17099  0.62501  1.0000
  C   C822      1.0  0.64649  0.16285  0.58624  1.0000
  N   N61       1.0  0.46573  0.16150  0.62871  1.0000
  C   C823      1.0  0.48704  0.15105  0.62659  1.0000
  C   C824      1.0  0.45484  0.15076  0.64729  1.0000
  C   C825      1.0  0.46439  0.18209  0.63087  1.0000
  C   C826      1.0  0.45852  0.16165  0.61087  1.0000
  C   C827      1.0  0.50154  0.16054  0.60944  1.0000
  C   C828      1.0  0.45592  0.12891  0.64823  1.0000
  C   C829      1.0  0.44398  0.19586  0.63211  1.0000
  C   C830      1.0  0.43614  0.16375  0.61316  1.0000
  H   H1409     1.0  0.49243  0.14948  0.64011  1.0000
  H   H1410     1.0  0.48893  0.13582  0.62466  1.0000
  H   H1411     1.0  0.43921  0.15785  0.65054  1.0000
  H   H1412     1.0  0.46043  0.15145  0.65997  1.0000
  H   H1413     1.0  0.46994  0.18169  0.64402  1.0000
  H   H1414     1.0  0.47380  0.18992  0.61829  1.0000
  H   H1415     1.0  0.46309  0.17359  0.59867  1.0000
  H   H1416     1.0  0.46555  0.14771  0.60565  1.0000
  H   H1417     1.0  0.51584  0.14993  0.60760  1.0000
  H   H1418     1.0  0.49654  0.16440  0.59545  1.0000
  H   H1419     1.0  0.50453  0.17364  0.61252  1.0000
  H   H1420     1.0  0.45347  0.12629  0.63477  1.0000
  H   H1421     1.0  0.33769  0.08109  0.51604  1.0000
  H   H1422     1.0  0.63671  0.22825  0.68979  1.0000
  C   C831      1.0  0.63523  0.22057  0.60220  1.0000
  H   H1423     1.0  0.38429  0.04808  0.50033  1.0000
  H   H1424     1.0  0.50403  0.19479  0.71797  1.0000
  S   S230      1.0  0.40447  0.16982  0.72172  1.0000
  H   H1425     1.0  0.37927  0.05650  0.62098  1.0000
  H   H1426     1.0  0.65450  0.21426  0.67384  1.0000
  H   H1427     1.0  0.33078  0.15905  0.53686  1.0000
  H   H1428     1.0  0.53836  0.11683  0.70731  1.0000
  H   H1429     1.0  0.50765  0.25159  0.70575  1.0000
  C   C832      1.0  0.33772  0.44191  0.71097  1.0000
  C   C833      1.0  0.34091  0.14503  0.53679  1.0000
  H   H1430     1.0  0.49611  0.09411  0.72879  1.0000
  H   H1431     1.0  0.65351  0.21424  0.71649  1.0000
  C   C834      1.0  0.65257  0.22147  0.68613  1.0000
  C   C835      1.0  0.53251  0.21556  0.71193  1.0000
  H   H1432     1.0  0.48722  0.14180  0.71929  1.0000
  H   H1433     1.0  0.48879  0.21885  0.71933  1.0000
  S   S231      1.0  0.45046  0.16453  0.72510  1.0000
  S   S232      1.0  0.42243  0.21900  0.71996  1.0000
  H   H1434     1.0  0.65660  0.14104  0.63153  1.0000
  N   N62       1.0  0.56676  0.08569  0.72609  1.0000
  H   H1435     1.0  0.56111  0.11728  0.72481  1.0000
  S   S233      1.0  0.33099  0.09258  0.62949  1.0000
  H   H1436     1.0  0.34642  0.07868  0.55132  1.0000
  N   N63       1.0  0.52388  0.21791  0.73268  1.0000
  C   C836      1.0  0.51130  0.14920  0.72590  1.0000
  H   H1437     1.0  0.53882  0.08142  0.72379  1.0000
  H   H1438     1.0  0.60731  0.24930  0.73210  1.0000
  H   H1439     1.0  0.60728  0.06797  0.73120  1.0000
  H   H1440     1.0  0.32909  0.43671  0.72559  1.0000
  C   C837      1.0  0.33712  0.06910  0.56188  1.0000
  H   H1441     1.0  0.46338  0.11550  0.72762  1.0000
  C   C838      1.0  0.49522  0.20470  0.72796  1.0000
  C   C839      1.0  0.65998  0.19088  0.63975  1.0000
  H   H1442     1.0  0.48790  0.24668  0.72635  1.0000
  H   H1443     1.0  0.56496  0.04511  0.72776  1.0000
  H   H1444     1.0  0.44221  0.24639  0.72503  1.0000
  H   H1445     1.0  0.52943  0.24658  0.73034  1.0000
  Fe  Fe115     1.0  0.42949  0.14502  0.72970  1.0000
  H   H1446     1.0  0.32747  0.10623  0.53783  1.0000
  H   H1447     1.0  0.33293  0.07339  0.57627  1.0000
  Fe  Fe116     1.0  0.61280  0.14352  0.73282  1.0000
  H   H1448     1.0  0.60153  0.09363  0.73216  1.0000
  C   C840      1.0  0.47759  0.03462  0.75555  1.0000
  S   S234      1.0  0.63603  0.27233  0.82621  1.0000
  H   H1449     1.0  0.62658  0.03942  0.82024  1.0000
  S   S235      1.0  0.64711  0.21864  0.85892  1.0000
  C   C841      1.0  0.62372  0.20010  0.74599  1.0000
  H   H1450     1.0  0.59934  0.06209  0.87653  1.0000
  C   C842      1.0  0.47086  0.19421  0.94995  1.0000
  C   C843      1.0  0.63750  0.20035  0.75640  1.0000
  Fe  Fe117     1.0  0.61855  0.26943  0.80595  1.0000
  S   S236      1.0  0.58760  0.28723  0.80773  1.0000
  H   H1451     1.0  0.40786  0.24614  0.76394  1.0000
  S   S237      1.0  0.62635  0.23663  0.81245  1.0000
  H   H1452     1.0  0.60637  0.18245  0.96890  1.0000
  H   H1453     1.0  0.45493  0.02220  0.81393  1.0000
  C   C844      1.0  0.39567  0.39978  0.75421  1.0000
  H   H1454     1.0  0.55203  0.21727  0.73890  1.0000
  H   H1455     1.0  0.51853  0.02312  0.75379  1.0000
  H   H1456     1.0  0.41142  0.39532  0.74770  1.0000
  S   S238      1.0  0.42846  0.12175  0.75719  1.0000
  H   H1457     1.0  0.45918  0.00709  0.75077  1.0000
  H   H1458     1.0  0.58492  0.08362  0.82657  1.0000
  C   C845      1.0  0.63758  0.34812  0.79914  1.0000
  H   H1459     1.0  0.48417  0.19927  0.94974  1.0000
  Fe  Fe118     1.0  0.46868  0.24704  0.78979  1.0000
  S   S239      1.0  0.44796  0.26854  0.80717  1.0000
  S   S240      1.0  0.46190  0.21882  0.78826  1.0000
  Fe  Fe119     1.0  0.50174  0.26921  0.77913  1.0000
  S   S241      1.0  0.48381  0.29295  0.79506  1.0000
  S   S242      1.0  0.53344  0.26558  0.76366  1.0000
  Fe  Fe120     1.0  0.47433  0.26800  0.81836  1.0000
  S   S243      1.0  0.47542  0.26580  0.84942  1.0000
  Fe  Fe121     1.0  0.45909  0.29152  0.78233  1.0000
  S   S244      1.0  0.44052  0.31793  0.76614  1.0000
  S   S245      1.0  0.49402  0.24446  0.80333  1.0000
  S   S246      1.0  0.47791  0.26990  0.76414  1.0000
  Fe  Fe122     1.0  0.56136  0.04570  0.80145  1.0000
  S   S247      1.0  0.53820  0.07324  0.79950  1.0000
  S   S248      1.0  0.59376  0.04440  0.79126  1.0000
  S   S249      1.0  0.50582  0.04469  0.81758  1.0000
  Fe  Fe123     1.0  0.52268  0.05669  0.78824  1.0000
  S   S250      1.0  0.51255  0.06753  0.75981  1.0000
  Fe  Fe124     1.0  0.52377  0.05894  0.82899  1.0000
  S   S251      1.0  0.51124  0.07648  0.85281  1.0000
  S   S252      1.0  0.54722  0.03027  0.78769  1.0000
  S   S253      1.0  0.54805  0.03211  0.83185  1.0000
  Fe  Fe125     1.0  0.55027  0.18407  0.90068  1.0000
  S   S254      1.0  0.55892  0.21313  0.89307  1.0000
  Fe  Fe126     1.0  0.55109  0.14454  0.89208  1.0000
  S   S255      1.0  0.56388  0.12638  0.86876  1.0000
  Fe  Fe127     1.0  0.51262  0.17021  0.90680  1.0000
  H   H1460     1.0  0.60005  0.36403  0.81523  1.0000
  S   S256      1.0  0.53646  0.17541  0.88084  1.0000
  S   S257      1.0  0.56763  0.15369  0.90959  1.0000
  C   C846      1.0  0.61186  0.20377  0.93396  1.0000
  H   H1461     1.0  0.50624  0.14513  0.74150  1.0000
  C   C847      1.0  0.48023  0.02763  0.79036  1.0000
  H   H1462     1.0  0.40277  0.23539  0.82087  1.0000
  S   S258      1.0  0.62950  0.11988  0.75291  1.0000
  H   H1463     1.0  0.64023  0.31214  0.85027  1.0000
  C   C848      1.0  0.52599  0.09034  0.85703  1.0000
  C   C849      1.0  0.52137  0.09648  0.87482  1.0000
  C   C850      1.0  0.53284  0.10755  0.87859  1.0000
  C   C851      1.0  0.54882  0.11288  0.86445  1.0000
  C   C852      1.0  0.55304  0.10729  0.84643  1.0000
  C   C853      1.0  0.54184  0.09587  0.84278  1.0000
  H   H1464     1.0  0.50905  0.09238  0.88586  1.0000
  H   H1465     1.0  0.52940  0.11173  0.89253  1.0000
  H   H1466     1.0  0.56480  0.11214  0.83513  1.0000
  H   H1467     1.0  0.54530  0.09157  0.82888  1.0000
  C   C854      1.0  0.41603  0.32610  0.77718  1.0000
  C   C855      1.0  0.58427  0.05733  0.84802  1.0000
  H   H1468     1.0  0.40834  0.34315  0.75005  1.0000
  H   H1469     1.0  0.41914  0.31065  0.80625  1.0000
  C   C856      1.0  0.47773  0.24162  0.86298  1.0000
  C   C857      1.0  0.48871  0.23563  0.87763  1.0000
  C   C858      1.0  0.49040  0.21652  0.88892  1.0000
  H   H1470     1.0  0.51869  0.01437  0.77952  1.0000
  H   H1471     1.0  0.49605  0.24574  0.88015  1.0000
  H   H1472     1.0  0.49904  0.21202  0.90008  1.0000
  C   C859      1.0  0.40318  0.33891  0.76561  1.0000
  H   H1473     1.0  0.58367  0.19279  0.85433  1.0000
  Fe  Fe128     1.0  0.53150  0.01903  0.81774  1.0000
  C   C860      1.0  0.45210  0.10741  0.75839  1.0000
  C   C861      1.0  0.45654  0.09624  0.77626  1.0000
  C   C862      1.0  0.47538  0.08450  0.77705  1.0000
  C   C863      1.0  0.48956  0.08351  0.75987  1.0000
  H   H1474     1.0  0.46338  0.99769  0.79385  1.0000
  H   H1475     1.0  0.54679  0.19380  0.74224  1.0000
  H   H1476     1.0  0.44542  0.09678  0.78946  1.0000
  H   H1477     1.0  0.47875  0.07596  0.79086  1.0000
  H   H1478     1.0  0.61751  0.11785  0.79859  1.0000
  N   N64       1.0  0.59224  0.20547  0.94783  1.0000
  C   C864      1.0  0.62907  0.23587  0.74983  1.0000
  C   C865      1.0  0.43557  0.20249  0.75404  1.0000
  C   C866      1.0  0.44428  0.20264  0.76918  1.0000
  C   C867      1.0  0.45203  0.21868  0.76857  1.0000
  C   C868      1.0  0.45154  0.23433  0.75251  1.0000
  H   H1479     1.0  0.48957  0.04276  0.75197  1.0000
  H   H1480     1.0  0.42922  0.19023  0.75483  1.0000
  H   H1481     1.0  0.44474  0.19041  0.78150  1.0000
  H   H1482     1.0  0.45779  0.24658  0.75179  1.0000
  H   H1483     1.0  0.60171  0.16761  0.93583  1.0000
  H   H1484     1.0  0.38333  0.24816  0.77658  1.0000
  H   H1485     1.0  0.39527  0.27640  0.73768  1.0000
  C   C869      1.0  0.53375  0.20851  0.76633  1.0000
  H   H1486     1.0  0.53037  0.23560  0.83169  1.0000
  H   H1487     1.0  0.56709  0.23203  0.92150  1.0000
  C   C870      1.0  0.63611  0.36298  0.77974  1.0000
  C   C871      1.0  0.50750  0.20677  0.74162  1.0000
  H   H1488     1.0  0.45988  0.23304  0.84835  1.0000
  H   H1489     1.0  0.41999  0.28379  0.78067  1.0000
  C   C872      1.0  0.62293  0.21687  0.87001  1.0000
  C   C873      1.0  0.61829  0.19864  0.87952  1.0000
  C   C874      1.0  0.59860  0.19720  0.88686  1.0000
  C   C875      1.0  0.58372  0.21412  0.88509  1.0000
  C   C876      1.0  0.58851  0.23239  0.87645  1.0000
  C   C877      1.0  0.60803  0.23372  0.86855  1.0000
  H   H1490     1.0  0.62984  0.18558  0.88052  1.0000
  H   H1491     1.0  0.59496  0.18306  0.89358  1.0000
  H   H1492     1.0  0.57703  0.24551  0.87522  1.0000
  H   H1493     1.0  0.61155  0.24781  0.86123  1.0000
  C   C878      1.0  0.57292  0.28203  0.79453  1.0000
  C   C879      1.0  0.58119  0.27244  0.77889  1.0000
  C   C880      1.0  0.56897  0.26794  0.76909  1.0000
  C   C881      1.0  0.54851  0.27258  0.77516  1.0000
  C   C882      1.0  0.54034  0.28222  0.79073  1.0000
  C   C883      1.0  0.55249  0.28715  0.80021  1.0000
  H   H1494     1.0  0.59695  0.26844  0.77439  1.0000
  H   H1495     1.0  0.57539  0.26053  0.75701  1.0000
  H   H1496     1.0  0.52465  0.28577  0.79563  1.0000
  H   H1497     1.0  0.54601  0.29446  0.81235  1.0000
  C   C884      1.0  0.63106  0.08067  0.76540  1.0000
  C   C885      1.0  0.62305  0.06401  0.77377  1.0000
  C   C886      1.0  0.60276  0.06583  0.77980  1.0000
  C   C887      1.0  0.59041  0.08449  0.77724  1.0000
  C   C888      1.0  0.59845  0.10124  0.76848  1.0000
  H   H1498     1.0  0.63266  0.04965  0.77577  1.0000
  H   H1499     1.0  0.57475  0.08606  0.78205  1.0000
  H   H1500     1.0  0.58894  0.11567  0.76655  1.0000
  C   C889      1.0  0.62614  0.21540  0.93579  1.0000
  C   C890      1.0  0.38378  0.34650  0.77411  1.0000
  H   H1501     1.0  0.63952  0.35658  0.80913  1.0000
  H   H1502     1.0  0.44300  0.37218  0.76871  1.0000
  C   C891      1.0  0.64193  0.31884  0.83447  1.0000
  H   H1503     1.0  0.50542  0.16863  0.96913  1.0000
  H   H1504     1.0  0.38475  0.38483  0.83012  1.0000
  S   S259      1.0  0.52492  0.18171  0.92584  1.0000
  C   C892      1.0  0.61883  0.09930  0.76269  1.0000
  C   C893      1.0  0.57562  0.04783  0.73483  1.0000
  N   N65       1.0  0.56862  0.21415  0.81937  1.0000
  C   C894      1.0  0.56464  0.21272  0.80035  1.0000
  C   C895      1.0  0.58785  0.20028  0.82212  1.0000
  C   C896      1.0  0.56969  0.23508  0.81797  1.0000
  C   C897      1.0  0.58127  0.21547  0.78225  1.0000
  C   C898      1.0  0.59426  0.19821  0.84131  1.0000
  C   C899      1.0  0.56634  0.24210  0.83723  1.0000
  H   H1505     1.0  0.56123  0.19821  0.80158  1.0000
  H   H1506     1.0  0.55148  0.22394  0.79663  1.0000
  H   H1507     1.0  0.58757  0.18527  0.82094  1.0000
  H   H1508     1.0  0.60016  0.20490  0.81047  1.0000
  H   H1509     1.0  0.58407  0.23801  0.80913  1.0000
  H   H1510     1.0  0.55853  0.24529  0.81000  1.0000
  H   H1511     1.0  0.57543  0.21808  0.76883  1.0000
  H   H1512     1.0  0.58761  0.22821  0.78111  1.0000
  H   H1513     1.0  0.59314  0.20208  0.78220  1.0000
  H   H1514     1.0  0.60830  0.18722  0.84153  1.0000
  H   H1515     1.0  0.59737  0.21208  0.84236  1.0000
  H   H1516     1.0  0.57787  0.25009  0.83622  1.0000
  H   H1517     1.0  0.56674  0.23048  0.85042  1.0000
  H   H1518     1.0  0.55218  0.25286  0.83942  1.0000
  H   H1519     1.0  0.63421  0.32444  0.76811  1.0000
  C   C900      1.0  0.35966  0.48296  0.79213  1.0000
  C   C901      1.0  0.48051  0.20356  0.88610  1.0000
  S   S260      1.0  0.48228  0.17984  0.90071  1.0000
  N   N66       1.0  0.61299  0.07551  0.83534  1.0000
  H   H1520     1.0  0.62209  0.06878  0.87513  1.0000
  H   H1521     1.0  0.57732  0.03566  0.74770  1.0000
  H   H1522     1.0  0.43130  0.36108  0.79187  1.0000
  H   H1523     1.0  0.57961  0.19975  0.92625  1.0000
  C   C902      1.0  0.40811  0.24196  0.80538  1.0000
  N   N67       1.0  0.62081  0.33776  0.80860  1.0000
  C   C903      1.0  0.42393  0.28422  0.75022  1.0000
  C   C904      1.0  0.60139  0.35195  0.80769  1.0000
  H   H1524     1.0  0.57263  0.05409  0.84265  1.0000
  C   C905      1.0  0.62279  0.32048  0.79968  1.0000
  H   H1525     1.0  0.37101  0.27376  0.75075  1.0000
  C   C906      1.0  0.58308  0.34296  0.81651  1.0000
  C   C907      1.0  0.61989  0.32471  0.77852  1.0000
  H   H1526     1.0  0.60466  0.11799  0.82310  1.0000
  H   H1527     1.0  0.61152  0.31979  0.83701  1.0000
  H   H1528     1.0  0.60007  0.35948  0.79257  1.0000
  H   H1529     1.0  0.33533  0.44849  0.88094  1.0000
  H   H1530     1.0  0.38701  0.30101  0.78225  1.0000
  H   H1531     1.0  0.59358  0.04304  0.85335  1.0000
  H   H1532     1.0  0.61285  0.31069  0.80882  1.0000
  H   H1533     1.0  0.49327  0.12862  0.98113  1.0000
  H   H1534     1.0  0.52805  0.10462  0.74132  1.0000
  C   C908      1.0  0.46213  0.00862  0.77996  1.0000
  H   H1535     1.0  0.58179  0.33669  0.83232  1.0000
  H   H1536     1.0  0.56975  0.35466  0.81479  1.0000
  H   H1537     1.0  0.58278  0.33160  0.80884  1.0000
  H   H1538     1.0  0.42738  0.39177  0.79760  1.0000
  H   H1539     1.0  0.34078  0.47486  0.88443  1.0000
  N   N68       1.0  0.50000  0.15593  0.82622  1.0000
  C   C909      1.0  0.51159  0.15888  0.80549  1.0000
  C   C910      1.0  0.48332  0.17360  0.82749  1.0000
  C   C911      1.0  0.49189  0.13776  0.82987  1.0000
  C   C912      1.0  0.51350  0.15346  0.83989  1.0000
  C   C913      1.0  0.52836  0.14158  0.80011  1.0000
  C   C914      1.0  0.48942  0.19348  0.82325  1.0000
  C   C915      1.0  0.47923  0.13188  0.85014  1.0000
  C   C916      1.0  0.50389  0.15818  0.86031  1.0000
  H   H1540     1.0  0.50173  0.16235  0.79490  1.0000
  H   H1541     1.0  0.51859  0.17168  0.80215  1.0000
  H   H1542     1.0  0.47333  0.17232  0.84194  1.0000
  H   H1543     1.0  0.47380  0.17489  0.81711  1.0000
  H   H1544     1.0  0.48303  0.13924  0.81884  1.0000
  H   H1545     1.0  0.50391  0.12460  0.82829  1.0000
  H   H1546     1.0  0.52228  0.13824  0.84211  1.0000
  H   H1547     1.0  0.52431  0.16306  0.83326  1.0000
  H   H1548     1.0  0.53732  0.14655  0.78555  1.0000
  H   H1549     1.0  0.53831  0.13623  0.81061  1.0000
  H   H1550     1.0  0.52266  0.12925  0.79874  1.0000
  H   H1551     1.0  0.49545  0.19826  0.80753  1.0000
  H   H1552     1.0  0.47621  0.20491  0.82710  1.0000
  H   H1553     1.0  0.50006  0.19339  0.83186  1.0000
  H   H1554     1.0  0.46615  0.14343  0.85374  1.0000
  H   H1555     1.0  0.48804  0.12723  0.86164  1.0000
  H   H1556     1.0  0.47377  0.11878  0.85033  1.0000
  H   H1557     1.0  0.51187  0.14763  0.87126  1.0000
  H   H1558     1.0  0.48832  0.15740  0.86557  1.0000
  H   H1559     1.0  0.50566  0.17280  0.86094  1.0000
  H   H1560     1.0  0.62507  0.08200  0.80429  1.0000
  H   H1561     1.0  0.37677  0.41888  0.77289  1.0000
  H   H1562     1.0  0.34755  0.43940  0.79540  1.0000
  H   H1563     1.0  0.58833  0.23532  0.95182  1.0000
  H   H1564     1.0  0.35577  0.45799  0.81552  1.0000
  C   C917      1.0  0.59579  0.07031  0.83120  1.0000
  H   H1565     1.0  0.35184  0.30418  0.77856  1.0000
  H   H1566     1.0  0.35833  0.28967  0.80082  1.0000
  H   H1567     1.0  0.41893  0.36891  0.77159  1.0000
  H   H1568     1.0  0.46654  0.20146  0.93571  1.0000
  N   N69       1.0  0.39965  0.40153  0.78826  1.0000
  C   C918      1.0  0.39510  0.41634  0.80108  1.0000
  C   C919      1.0  0.38789  0.38608  0.79881  1.0000
  C   C920      1.0  0.39268  0.41205  0.76960  1.0000
  C   C921      1.0  0.42150  0.39329  0.78438  1.0000
  C   C922      1.0  0.40365  0.43495  0.79217  1.0000
  C   C923      1.0  0.39166  0.37535  0.81929  1.0000
  C   C924      1.0  0.61553  0.23562  0.73910  1.0000
  C   C925      1.0  0.42854  0.37281  0.77891  1.0000
  H   H1569     1.0  0.37896  0.42129  0.80578  1.0000
  H   H1570     1.0  0.40072  0.40961  0.81476  1.0000
  H   H1571     1.0  0.39035  0.37463  0.79042  1.0000
  H   H1572     1.0  0.37187  0.39256  0.80045  1.0000
  H   H1573     1.0  0.61669  0.34220  0.83807  1.0000
  H   H1574     1.0  0.64617  0.18670  0.76291  1.0000
  H   H1575     1.0  0.42917  0.40367  0.77264  1.0000
  H   H1576     1.0  0.59109  0.23810  0.91536  1.0000
  H   H1577     1.0  0.44941  0.04466  0.79644  1.0000
  C   C926      1.0  0.62165  0.33002  0.82993  1.0000
  H   H1578     1.0  0.38473  0.36240  0.82424  1.0000
  H   H1579     1.0  0.40747  0.36995  0.81945  1.0000
  C   C927      1.0  0.58101  0.22644  0.94676  1.0000
  H   H1580     1.0  0.46288  0.16836  0.94759  1.0000
  C   C928      1.0  0.55226  0.20754  0.83538  1.0000
  H   H1581     1.0  0.52645  0.21668  0.82174  1.0000
  H   H1582     1.0  0.52099  0.21520  0.84742  1.0000
  S   S261      1.0  0.64238  0.27279  0.77936  1.0000
  H   H1583     1.0  0.59565  0.10872  0.80690  1.0000
  S   S262      1.0  0.52633  0.13877  0.91727  1.0000
  C   C929      1.0  0.53144  0.21961  0.83373  1.0000
  H   H1584     1.0  0.55417  0.20749  0.85003  1.0000
  H   H1585     1.0  0.55229  0.19194  0.83599  1.0000
  H   H1586     1.0  0.57729  0.06769  0.75190  1.0000
  Fe  Fe129     1.0  0.54130  0.15080  0.93398  1.0000
  C   C930      1.0  0.63764  0.04531  0.82381  1.0000
  C   C931      1.0  0.40928  0.32049  0.79724  1.0000
  C   C932      1.0  0.43454  0.21840  0.73826  1.0000
  H   H1587     1.0  0.33011  0.47298  0.84120  1.0000
  S   S263      1.0  0.35387  0.35274  0.80565  1.0000
  H   H1588     1.0  0.48916  0.01663  0.80032  1.0000
  H   H1589     1.0  0.46380  0.04314  0.81358  1.0000
  C   C933      1.0  0.46841  0.22843  0.85964  1.0000
  C   C934      1.0  0.56009  0.10326  0.73556  1.0000
  S   S264      1.0  0.54411  0.13743  0.96540  1.0000
  H   H1590     1.0  0.53040  0.22342  0.76949  1.0000
  H   H1591     1.0  0.64106  0.06171  0.84323  1.0000
  H   H1592     1.0  0.38373  0.29791  0.76012  1.0000
  H   H1593     1.0  0.50983  0.24054  0.74936  1.0000
  C   C935      1.0  0.46952  0.20949  0.87143  1.0000
  H   H1594     1.0  0.64864  0.03240  0.82921  1.0000
  H   H1595     1.0  0.42859  0.26056  0.77417  1.0000
  C   C936      1.0  0.41767  0.27451  0.77171  1.0000
  H   H1596     1.0  0.57017  0.25335  0.92726  1.0000
  H   H1597     1.0  0.46197  0.19945  0.86914  1.0000
  C   C937      1.0  0.35097  0.45367  0.78894  1.0000
  H   H1598     1.0  0.63504  0.20683  0.94681  1.0000
  H   H1599     1.0  0.61026  0.20751  0.91848  1.0000
  H   H1600     1.0  0.44785  0.01892  0.78318  1.0000
  H   H1601     1.0  0.53919  0.20072  0.98184  1.0000
  H   H1602     1.0  0.48801  0.04000  0.78466  1.0000
  C   C938      1.0  0.53996  0.20910  0.74418  1.0000
  H   H1603     1.0  0.57007  0.10266  0.74515  1.0000
  H   H1604     1.0  0.35668  0.27785  0.78232  1.0000
  H   H1605     1.0  0.39572  0.44513  0.78100  1.0000
  H   H1606     1.0  0.55344  0.06656  0.75140  1.0000
  H   H1607     1.0  0.57666  0.16599  0.94091  1.0000
  H   H1608     1.0  0.44545  0.04412  0.75800  1.0000
  H   H1609     1.0  0.61997  0.18821  0.93573  1.0000
  C   C939      1.0  0.62870  0.05749  0.83987  1.0000
  H   H1610     1.0  0.45947  0.06070  0.74136  1.0000
  C   C940      1.0  0.38989  0.32820  0.80575  1.0000
  H   H1611     1.0  0.63133  0.24971  0.75102  1.0000
  C   C941      1.0  0.46084  0.03482  0.80411  1.0000
  H   H1612     1.0  0.60052  0.06293  0.81866  1.0000
  H   H1613     1.0  0.45646  0.05939  0.76660  1.0000
  H   H1614     1.0  0.38487  0.32428  0.82137  1.0000
  C   C942      1.0  0.59451  0.19595  0.96855  1.0000
  H   H1615     1.0  0.65232  0.32870  0.83124  1.0000
  H   H1616     1.0  0.64679  0.07911  0.76097  1.0000
  Fe  Fe130     1.0  0.33299  0.42174  0.76780  1.0000
  H   H1617     1.0  0.40877  0.23123  0.79659  1.0000
  H   H1618     1.0  0.38770  0.25411  0.74064  1.0000
  H   H1619     1.0  0.53903  0.09467  0.76239  1.0000
  Fe  Fe131     1.0  0.64620  0.23970  0.83014  1.0000
  C   C943      1.0  0.60666  0.08658  0.85180  1.0000
  H   H1620     1.0  0.63750  0.31084  0.79971  1.0000
  H   H1621     1.0  0.34790  0.44557  0.85667  1.0000
  C   C944      1.0  0.35125  0.46143  0.76913  1.0000
  C   C945      1.0  0.37723  0.34152  0.79426  1.0000
  H   H1622     1.0  0.37403  0.35646  0.76511  1.0000
  C   C946      1.0  0.44271  0.23424  0.73741  1.0000
  H   H1623     1.0  0.48088  0.13753  0.94144  1.0000
  C   C947      1.0  0.54134  0.17303  0.97453  1.0000
  C   C948      1.0  0.47521  0.17176  0.95180  1.0000
  H   H1624     1.0  0.54623  0.19979  0.77327  1.0000
  H   H1625     1.0  0.56646  0.22691  0.95693  1.0000
  Fe  Fe132     1.0  0.65181  0.24006  0.78754  1.0000
  H   H1626     1.0  0.40027  0.42427  0.76187  1.0000
  C   C949      1.0  0.38295  0.29067  0.77570  1.0000
  H   H1627     1.0  0.37917  0.25904  0.80536  1.0000
  H   H1628     1.0  0.61336  0.31308  0.77681  1.0000
  H   H1629     1.0  0.38885  0.38686  0.75988  1.0000
  C   C950      1.0  0.35560  0.48001  0.76089  1.0000
  H   H1630     1.0  0.57666  0.06506  0.86014  1.0000
  H   H1631     1.0  0.61895  0.23001  0.93913  1.0000
  C   C951      1.0  0.46014  0.99750  0.76528  1.0000
  H   H1632     1.0  0.62454  0.37628  0.78188  1.0000
  C   C952      1.0  0.64052  0.21824  0.75792  1.0000
  H   H1633     1.0  0.59172  0.09581  0.85173  1.0000
  C   C953      1.0  0.39421  0.26189  0.79963  1.0000
  N   N70       1.0  0.39707  0.27105  0.77813  1.0000
  H   H1634     1.0  0.40161  0.44320  0.80379  1.0000
  H   H1635     1.0  0.63596  0.09096  0.81865  1.0000
  C   C954      1.0  0.53939  0.10556  0.74859  1.0000
  C   C955      1.0  0.57731  0.23786  0.92645  1.0000
  H   H1636     1.0  0.61626  0.09706  0.84983  1.0000
  H   H1637     1.0  0.42313  0.24369  0.80439  1.0000
  Fe  Fe133     1.0  0.33616  0.37883  0.78826  1.0000
  H   H1638     1.0  0.39570  0.27211  0.80812  1.0000
  S   S265      1.0  0.34671  0.44806  0.75422  1.0000
  H   H1639     1.0  0.64860  0.30676  0.82654  1.0000
  H   H1640     1.0  0.63620  0.21849  0.92144  1.0000
  H   H1641     1.0  0.38845  0.40905  0.74212  1.0000
  C   C956      1.0  0.39404  0.25712  0.76730  1.0000
  H   H1642     1.0  0.41956  0.43145  0.78593  1.0000
  H   H1643     1.0  0.62174  0.18627  0.74450  1.0000
  H   H1644     1.0  0.41450  0.29880  0.74601  1.0000
  H   H1645     1.0  0.53737  0.17973  0.96059  1.0000
  C   C957      1.0  0.60892  0.10939  0.81146  1.0000
  C   C958      1.0  0.36123  0.29032  0.78488  1.0000
  H   H1646     1.0  0.60951  0.33852  0.77429  1.0000
  H   H1647     1.0  0.35578  0.48611  0.74557  1.0000
  H   H1648     1.0  0.42498  0.27446  0.74035  1.0000
  H   H1649     1.0  0.48813  0.16862  0.93996  1.0000
  H   H1650     1.0  0.58737  0.16501  0.96061  1.0000
  H   H1651     1.0  0.35897  0.47724  0.84844  1.0000
  H   H1652     1.0  0.53477  0.12035  0.75208  1.0000
  H   H1653     1.0  0.46828  0.12513  0.96451  1.0000
  C   C959      1.0  0.58719  0.17207  0.94512  1.0000
  C   C960      1.0  0.45850  0.05038  0.75575  1.0000
  H   H1654     1.0  0.62320  0.04710  0.85311  1.0000
  C   C961      1.0  0.49761  0.00386  0.76959  1.0000
  C   C962      1.0  0.51700  0.01060  0.76628  1.0000
  C   C963      1.0  0.62173  0.08876  0.81720  1.0000
  C   C964      1.0  0.54555  0.15262  0.98042  1.0000
  H   H1655     1.0  0.65165  0.33723  0.79646  1.0000
  C   C965      1.0  0.48246  0.12885  0.95621  1.0000
  H   H1656     1.0  0.49834  0.99845  0.75632  1.0000
  C   C966      1.0  0.35549  0.46427  0.80033  1.0000
  C   C967      1.0  0.51683  0.23919  0.73409  1.0000
  S   S266      1.0  0.34609  0.39357  0.75729  1.0000
  C   C968      1.0  0.58018  0.19462  0.94193  1.0000
  C   C969      1.0  0.61324  0.21776  0.73676  1.0000
  H   H1657     1.0  0.43897  0.28670  0.74790  1.0000
  H   H1658     1.0  0.59917  0.08425  0.88322  1.0000
  C   C970      1.0  0.60685  0.07447  0.87274  1.0000
  C   C971      1.0  0.38663  0.26616  0.74807  1.0000
  N   N71       1.0  0.47899  0.01901  0.77387  1.0000
  C   C972      1.0  0.48514  0.09471  0.74209  1.0000
  H   H1659     1.0  0.45109  0.15055  0.97781  1.0000
  H   H1660     1.0  0.47972  0.02787  0.74280  1.0000
  H   H1661     1.0  0.52113  0.20143  0.77340  1.0000
  C   C973      1.0  0.46656  0.10682  0.74139  1.0000
  H   H1662     1.0  0.63382  0.35663  0.76841  1.0000
  H   H1663     1.0  0.50592  0.14053  0.95873  1.0000
  S   S267      1.0  0.58743  0.16619  0.74356  1.0000
  H   H1664     1.0  0.51338  0.19134  0.74852  1.0000
  H   H1665     1.0  0.49703  0.21327  0.75369  1.0000
  S   S268      1.0  0.54190  0.15788  0.73472  1.0000
  H   H1666     1.0  0.56468  0.19778  0.94977  1.0000
  H   H1667     1.0  0.61119  0.21551  0.97340  1.0000
  H   H1668     1.0  0.64557  0.05361  0.81036  1.0000
  H   H1669     1.0  0.45873  0.19949  0.96142  1.0000
  C   C974      1.0  0.56805  0.06740  0.74189  1.0000
  H   H1670     1.0  0.49283  0.11477  0.95410  1.0000
  H   H1671     1.0  0.65020  0.36794  0.77392  1.0000
  H   H1672     1.0  0.58092  0.19098  0.97725  1.0000
  H   H1673     1.0  0.52946  0.99827  0.76302  1.0000
  N   N72       1.0  0.47904  0.15894  0.97111  1.0000
  C   C975      1.0  0.33331  0.44963  0.86610  1.0000
  C   C976      1.0  0.59854  0.20860  0.98068  1.0000
  C   C977      1.0  0.49098  0.13918  0.96730  1.0000
  H   H1674     1.0  0.36795  0.48712  0.86379  1.0000
  H   H1675     1.0  0.44639  0.99190  0.77081  1.0000
  C   C978      1.0  0.49125  0.16742  0.97950  1.0000
  H   H1676     1.0  0.48287  0.19778  0.73688  1.0000
  H   H1677     1.0  0.48439  0.18265  0.98132  1.0000
  C   C979      1.0  0.33669  0.48762  0.87290  1.0000
  H   H1678     1.0  0.43637  0.18205  0.98269  1.0000
  H   H1679     1.0  0.49800  0.99072  0.78167  1.0000
  C   C980      1.0  0.35533  0.48891  0.85693  1.0000
  H   H1680     1.0  0.48863  0.98909  0.83348  1.0000
  H   H1681     1.0  0.50941  0.97975  0.22126  1.0000
  Fe  Fe134     1.0  0.56672  0.84972  0.20548  1.0000
  S   S269      1.0  0.55887  0.86535  0.17664  1.0000
  S   S270      1.0  0.59573  0.82874  0.20652  1.0000
  S   S271      1.0  0.59677  0.68240  0.22639  1.0000
  S   S272      1.0  0.51601  0.88338  0.20142  1.0000
  H   H1682     1.0  0.58549  0.89472  0.18273  1.0000
  Fe  Fe135     1.0  0.53029  0.85586  0.18963  1.0000
  S   S273      1.0  0.51448  0.84120  0.17613  1.0000
  Fe  Fe136     1.0  0.54561  0.89136  0.19116  1.0000
  S   S274      1.0  0.54875  0.92266  0.17650  1.0000
  C   C981      1.0  0.48573  0.93561  0.22237  1.0000
  H   H1683     1.0  0.50501  0.71433  0.23064  1.0000
  H   H1684     1.0  0.39838  0.53963  0.16842  1.0000
  Fe  Fe137     1.0  0.61560  0.67637  0.17284  1.0000
  S   S275      1.0  0.59760  0.65654  0.19480  1.0000
  S   S276      1.0  0.62587  0.67039  0.14262  1.0000
  H   H1685     1.0  0.44761  0.78313  0.10639  1.0000
  H   H1686     1.0  0.61198  0.94056  0.16796  1.0000
  H   H1687     1.0  0.59829  0.87056  0.18060  1.0000
  S   S277      1.0  0.59604  0.70398  0.18065  1.0000
  Fe  Fe138     1.0  0.61685  0.65646  0.21478  1.0000
  Fe  Fe139     1.0  0.46441  0.64892  0.20336  1.0000
  S   S278      1.0  0.45066  0.68090  0.20013  1.0000
  H   H1688     1.0  0.56692  0.91565  0.21003  1.0000
  Fe  Fe140     1.0  0.42582  0.63788  0.20365  1.0000
  S   S279      1.0  0.40910  0.66923  0.20066  1.0000
  H   H1689     1.0  0.48386  0.92075  0.22234  1.0000
  Fe  Fe141     1.0  0.43612  0.67581  0.17861  1.0000
  S   S280      1.0  0.43747  0.69492  0.14857  1.0000
  H   H1690     1.0  0.45940  0.77021  0.20362  1.0000
  H   H1691     1.0  0.39618  0.57947  0.20829  1.0000
  S   S281      1.0  0.45176  0.64431  0.18010  1.0000
  H   H1692     1.0  0.35068  0.55657  0.22434  1.0000
  C   C982      1.0  0.65170  0.61543  0.22707  1.0000
  H   H1693     1.0  0.59783  0.70794  0.14046  1.0000
  Fe  Fe142     1.0  0.54334  0.78471  0.09443  1.0000
  S   S282      1.0  0.55428  0.77209  0.06732  1.0000
  S   S283      1.0  0.55863  0.80450  0.10196  1.0000
  Fe  Fe143     1.0  0.51098  0.76196  0.11019  1.0000
  S   S284      1.0  0.51891  0.74707  0.08476  1.0000
  S   S285      1.0  0.48774  0.75793  0.13751  1.0000
  Fe  Fe144     1.0  0.54999  0.74357  0.08749  1.0000
  S   S286      1.0  0.57109  0.71541  0.08247  1.0000
  Fe  Fe145     1.0  0.52257  0.77657  0.06629  1.0000
  S   S287      1.0  0.51120  0.78980  0.03822  1.0000
  S   S288      1.0  0.54173  0.75568  0.11466  1.0000
  S   S289      1.0  0.51189  0.79199  0.09166  1.0000
  H   H1694     1.0  0.61692  0.60993  0.20276  1.0000
  S   S290      1.0  0.35517  0.54922  0.18419  1.0000
  C   C983      1.0  0.60958  0.91528  0.15860  1.0000
  H   H1695     1.0  0.45310  0.55859  0.10931  1.0000
  Fe  Fe146     1.0  0.35334  0.53679  0.15961  1.0000
  S   S291      1.0  0.38126  0.52062  0.14367  1.0000
  S   S292      1.0  0.41342  0.61089  0.20757  1.0000
  C   C984      1.0  0.47484  0.76767  0.19546  1.0000
  H   H1696     1.0  0.47339  0.77147  0.09953  1.0000
  C   C985      1.0  0.49432  0.94470  0.20126  1.0000
  H   H1697     1.0  0.41999  0.76025  0.10441  1.0000
  H   H1698     1.0  0.47516  0.74728  0.04074  1.0000
  H   H1699     1.0  0.47302  0.75070  0.08246  1.0000
  H   H1700     1.0  0.61748  0.92114  0.14373  1.0000
  H   H1701     1.0  0.63637  0.98415  0.18177  1.0000
  Fe  Fe147     1.0  0.42541  0.67131  0.22249  1.0000
  C   C986      1.0  0.41957  0.58833  0.14777  1.0000
  C   C987      1.0  0.50877  0.75272  0.99642  1.0000
  H   H1702     1.0  0.42943  0.57570  0.15517  1.0000
  C   C988      1.0  0.62408  0.60492  0.18886  1.0000
  C   C989      1.0  0.51152  0.77522  0.02186  1.0000
  C   C990      1.0  0.51618  0.75473  0.02682  1.0000
  C   C991      1.0  0.51459  0.74356  0.01424  1.0000
  S   S293      1.0  0.34771  0.60616  0.16599  1.0000
  H   H1703     1.0  0.60831  0.77280  0.19796  1.0000
  H   H1704     1.0  0.52064  0.74748  0.04050  1.0000
  H   H1705     1.0  0.51781  0.72771  0.01839  1.0000
  C   C992      1.0  0.39497  0.61020  0.19600  1.0000
  C   C993      1.0  0.38601  0.62675  0.18390  1.0000
  C   C994      1.0  0.37142  0.62537  0.17492  1.0000
  C   C995      1.0  0.36575  0.60747  0.17789  1.0000
  C   C996      1.0  0.37478  0.59097  0.18997  1.0000
  C   C997      1.0  0.38926  0.59235  0.19900  1.0000
  H   H1706     1.0  0.39032  0.64059  0.18148  1.0000
  H   H1707     1.0  0.36455  0.63824  0.16558  1.0000
  H   H1708     1.0  0.37069  0.57710  0.19241  1.0000
  H   H1709     1.0  0.60698  0.79623  0.18072  1.0000
  C   C998      1.0  0.47368  0.74061  0.14018  1.0000
  C   C999      1.0  0.46074  0.73604  0.15788  1.0000
  C   C1000     1.0  0.44951  0.72208  0.16048  1.0000
  C   C1001     1.0  0.45097  0.71286  0.14528  1.0000
  C   C1002     1.0  0.46370  0.71764  0.12745  1.0000
  C   C1003     1.0  0.47529  0.73126  0.12502  1.0000
  H   H1710     1.0  0.45937  0.74327  0.16964  1.0000
  H   H1711     1.0  0.43943  0.71872  0.17414  1.0000
  H   H1712     1.0  0.46491  0.71043  0.11571  1.0000
  H   H1713     1.0  0.48546  0.73448  0.11147  1.0000
  C   C1004     1.0  0.39781  0.56715  0.14713  1.0000
  H   H1714     1.0  0.46628  0.79663  0.10076  1.0000
  H   H1715     1.0  0.52625  0.77386  0.15967  1.0000
  H   H1716     1.0  0.38618  0.60795  0.13931  1.0000
  C   C1005     1.0  0.57026  0.94399  0.21174  1.0000
  C   C1006     1.0  0.61070  0.68360  0.12603  1.0000
  C   C1007     1.0  0.59812  0.70164  0.12842  1.0000
  C   C1008     1.0  0.58629  0.71189  0.11479  1.0000
  C   C1009     1.0  0.58680  0.70394  0.09895  1.0000
  C   C1010     1.0  0.59939  0.68593  0.09660  1.0000
  C   C1011     1.0  0.61142  0.67587  0.11000  1.0000
  H   H1717     1.0  0.44702  0.55846  0.13434  1.0000
  H   H1718     1.0  0.57688  0.72593  0.11652  1.0000
  H   H1719     1.0  0.59984  0.67974  0.08437  1.0000
  H   H1720     1.0  0.62120  0.66202  0.10799  1.0000
  H   H1721     1.0  0.43928  0.60625  0.14811  1.0000
  C   C1012     1.0  0.51034  0.65301  0.20609  1.0000
  C   C1013     1.0  0.50301  0.67329  0.20272  1.0000
  H   H1722     1.0  0.55568  0.65256  0.21247  1.0000
  H   H1723     1.0  0.47072  0.94472  0.22557  1.0000
  H   H1724     1.0  0.48514  0.94367  0.19155  1.0000
  C   C1014     1.0  0.52674  0.83210  0.15485  1.0000
  C   C1015     1.0  0.51723  0.82205  0.14726  1.0000
  C   C1016     1.0  0.52692  0.81353  0.13107  1.0000
  C   C1017     1.0  0.54606  0.81546  0.12201  1.0000
  C   C1018     1.0  0.55541  0.82603  0.12919  1.0000
  C   C1019     1.0  0.54583  0.83422  0.14567  1.0000
  H   H1725     1.0  0.50228  0.82093  0.15382  1.0000
  H   H1726     1.0  0.51950  0.80567  0.12544  1.0000
  H   H1727     1.0  0.57016  0.82775  0.12206  1.0000
  H   H1728     1.0  0.55323  0.84213  0.15122  1.0000
  H   H1729     1.0  0.46824  0.78358  0.22628  1.0000
  C   C1020     1.0  0.64476  0.61473  0.14662  1.0000
  C   C1021     1.0  0.61498  0.92434  0.17300  1.0000
  H   H1730     1.0  0.58510  0.89039  0.13055  1.0000
  H   H1731     1.0  0.65948  0.57276  0.19630  1.0000
  H   H1732     1.0  0.56015  0.73841  0.00353  1.0000
  H   H1733     1.0  0.65632  0.85710  0.16654  1.0000
  H   H1734     1.0  0.41640  0.49216  0.13599  1.0000
  H   H1735     1.0  0.61403  0.61193  0.17857  1.0000
  H   H1736     1.0  0.61958  0.89088  0.13189  1.0000
  H   H1737     1.0  0.58357  0.72138  0.99869  1.0000
  S   S294      1.0  0.33899  0.56546  0.14289  1.0000
  H   H1738     1.0  0.64067  0.62747  0.17958  1.0000
  H   H1739     1.0  0.48325  0.81419  0.18578  1.0000
  H   H1740     1.0  0.48852  0.67923  0.19986  1.0000
  S   S295      1.0  0.62135  0.72773  0.20548  1.0000
  H   H1741     1.0  0.50855  0.75879  0.16794  1.0000
  C   C1022     1.0  0.56726  0.96422  0.20369  1.0000
  C   C1023     1.0  0.55866  0.97145  0.18731  1.0000
  C   C1024     1.0  0.55327  0.95851  0.17901  1.0000
  C   C1025     1.0  0.55605  0.93833  0.18722  1.0000
  C   C1026     1.0  0.56458  0.93113  0.20364  1.0000
  C   C1027     1.0  0.63488  0.88464  0.16194  1.0000
  H   H1742     1.0  0.57172  0.81735  0.18124  1.0000
  H   H1743     1.0  0.54673  0.96424  0.16628  1.0000
  C   C1028     1.0  0.60774  0.88198  0.20019  1.0000
  H   H1744     1.0  0.63070  0.91965  0.17374  1.0000
  C   C1029     1.0  0.61263  0.78015  0.18260  1.0000
  H   H1745     1.0  0.44558  0.75393  0.10329  1.0000
  N   N73       1.0  0.45595  0.77640  0.06621  1.0000
  C   C1030     1.0  0.45635  0.78532  0.04484  1.0000
  C   C1031     1.0  0.47213  0.75824  0.06729  1.0000
  C   C1032     1.0  0.46030  0.79113  0.07508  1.0000
  C   C1033     1.0  0.43590  0.77207  0.07568  1.0000
  C   C1034     1.0  0.44249  0.80546  0.04013  1.0000
  C   C1035     1.0  0.47103  0.74260  0.05681  1.0000
  C   C1036     1.0  0.49226  0.79780  0.22227  1.0000
  C   C1037     1.0  0.43437  0.75613  0.09467  1.0000
  H   H1746     1.0  0.47140  0.78714  0.03705  1.0000
  H   H1747     1.0  0.45247  0.77548  0.03755  1.0000
  C   C1038     1.0  0.60854  0.88769  0.14556  1.0000
  H   H1748     1.0  0.48663  0.76230  0.06102  1.0000
  H   H1749     1.0  0.47427  0.79558  0.06671  1.0000
  H   H1750     1.0  0.44874  0.80481  0.07426  1.0000
  H   H1751     1.0  0.42525  0.78570  0.07888  1.0000
  H   H1752     1.0  0.43021  0.76700  0.06535  1.0000
  H   H1753     1.0  0.44215  0.80901  0.02435  1.0000
  H   H1754     1.0  0.42723  0.80557  0.04832  1.0000
  H   H1755     1.0  0.44796  0.81736  0.04275  1.0000
  H   H1756     1.0  0.58784  0.91344  0.13302  1.0000
  H   H1757     1.0  0.49142  0.76765  0.22513  1.0000
  H   H1758     1.0  0.48180  0.72890  0.06099  1.0000
  C   C1039     1.0  0.38577  0.49484  0.14924  1.0000
  H   H1759     1.0  0.50930  0.93678  0.19587  1.0000
  H   H1760     1.0  0.64386  0.89131  0.14806  1.0000
  H   H1761     1.0  0.44807  0.82512  0.18793  1.0000
  C   C1040     1.0  0.50582  0.78440  0.00398  1.0000
  H   H1762     1.0  0.43431  0.74185  0.09158  1.0000
  N   N74       1.0  0.58533  0.77196  0.17056  1.0000
  C   C1041     1.0  0.58318  0.76273  0.15492  1.0000
  C   C1042     1.0  0.57856  0.75914  0.18990  1.0000
  C   C1043     1.0  0.60682  0.77159  0.16803  1.0000
  C   C1044     1.0  0.57343  0.79273  0.16812  1.0000
  C   C1045     1.0  0.59145  0.77191  0.13365  1.0000
  H   H1763     1.0  0.54485  0.72166  0.98749  1.0000
  C   C1046     1.0  0.56745  0.72345  0.00096  1.0000
  C   C1047     1.0  0.56776  0.80273  0.18589  1.0000
  H   H1764     1.0  0.59035  0.74684  0.15723  1.0000
  H   H1765     1.0  0.56747  0.76342  0.15552  1.0000
  H   H1766     1.0  0.58132  0.76346  0.20233  1.0000
  H   H1767     1.0  0.58721  0.74383  0.19051  1.0000
  H   H1768     1.0  0.61553  0.75624  0.16863  1.0000
  H   H1769     1.0  0.61246  0.78012  0.15348  1.0000
  H   H1770     1.0  0.58127  0.80242  0.15574  1.0000
  H   H1771     1.0  0.55942  0.79342  0.16392  1.0000
  H   H1772     1.0  0.58648  0.78807  0.13022  1.0000
  H   H1773     1.0  0.60769  0.76784  0.13010  1.0000
  H   H1774     1.0  0.58616  0.76604  0.12366  1.0000
  H   H1775     1.0  0.59508  0.88620  0.21184  1.0000
  C   C1048     1.0  0.47496  0.80279  0.18698  1.0000
  H   H1776     1.0  0.63233  0.60761  0.14832  1.0000
  C   C1049     1.0  0.58827  0.89790  0.14061  1.0000
  H   H1777     1.0  0.63165  0.85422  0.17648  1.0000
  H   H1778     1.0  0.48132  0.73635  0.19551  1.0000
  H   H1779     1.0  0.62574  0.58877  0.19214  1.0000
  H   H1780     1.0  0.57483  0.79478  0.19831  1.0000
  H   H1781     1.0  0.55160  0.80566  0.19120  1.0000
  H   H1782     1.0  0.44353  0.59926  0.12523  1.0000
  S   S296      1.0  0.53915  0.83833  0.21759  1.0000
  S   S297      1.0  0.63645  0.67420  0.19192  1.0000
  N   N75       1.0  0.48493  0.78291  0.19685  1.0000
  H   H1783     1.0  0.44371  0.80092  0.19694  1.0000
  C   C1050     1.0  0.43189  0.60396  0.13744  1.0000
  H   H1784     1.0  0.59372  0.92182  0.15894  1.0000
  C   C1051     1.0  0.48386  0.74611  0.20379  1.0000
  C   C1052     1.0  0.52949  0.64561  0.20934  1.0000
  H   H1785     1.0  0.54705  0.77273  0.19376  1.0000
  H   H1786     1.0  0.53530  0.62994  0.21188  1.0000
  C   C1053     1.0  0.46191  0.78483  0.09666  1.0000
  N   N76       1.0  0.52680  0.68529  0.14003  1.0000
  C   C1054     1.0  0.50888  0.68027  0.13706  1.0000
  C   C1055     1.0  0.53939  0.69030  0.12012  1.0000
  C   C1056     1.0  0.51995  0.70326  0.14896  1.0000
  C   C1057     1.0  0.53707  0.66804  0.15325  1.0000
  C   C1058     1.0  0.49310  0.67568  0.15548  1.0000
  C   C1059     1.0  0.54647  0.67383  0.10834  1.0000
  C   C1060     1.0  0.53577  0.71109  0.15350  1.0000
  C   C1061     1.0  0.55912  0.66655  0.15226  1.0000
  H   H1787     1.0  0.50156  0.69233  0.12653  1.0000
  H   H1788     1.0  0.51301  0.66703  0.13054  1.0000
  H   H1789     1.0  0.55256  0.69479  0.12087  1.0000
  H   H1790     1.0  0.53146  0.70340  0.11101  1.0000
  H   H1791     1.0  0.51179  0.71557  0.13932  1.0000
  H   H1792     1.0  0.50955  0.70054  0.16308  1.0000
  H   H1793     1.0  0.52942  0.66780  0.16862  1.0000
  H   H1794     1.0  0.53610  0.65403  0.15014  1.0000
  H   H1795     1.0  0.49917  0.66372  0.16675  1.0000
  H   H1796     1.0  0.48535  0.68883  0.16168  1.0000
  H   H1797     1.0  0.48169  0.67063  0.15146  1.0000
  H   H1798     1.0  0.55254  0.65951  0.11705  1.0000
  H   H1799     1.0  0.53454  0.67236  0.10213  1.0000
  H   H1800     1.0  0.55832  0.67771  0.09578  1.0000
  H   H1801     1.0  0.54257  0.70074  0.16534  1.0000
  H   H1802     1.0  0.52869  0.72487  0.15891  1.0000
  H   H1803     1.0  0.54712  0.71483  0.14051  1.0000
  H   H1804     1.0  0.56213  0.66119  0.16723  1.0000
  H   H1805     1.0  0.56438  0.68036  0.14642  1.0000
  H   H1806     1.0  0.56840  0.65534  0.14387  1.0000
  H   H1807     1.0  0.55367  0.74976  0.18533  1.0000
  H   H1808     1.0  0.37131  0.61161  0.11169  1.0000
  C   C1062     1.0  0.50623  0.77919  0.18681  1.0000
  C   C1063     1.0  0.64394  0.61120  0.18130  1.0000
  H   H1809     1.0  0.45225  0.81263  0.21156  1.0000
  H   H1810     1.0  0.40315  0.61150  0.11689  1.0000
  S   S298      1.0  0.57495  0.97975  0.21425  1.0000
  C   C1064     1.0  0.54110  0.65841  0.20950  1.0000
  N   N77       1.0  0.61336  0.89316  0.16231  1.0000
  C   C1065     1.0  0.38084  0.59723  0.11658  1.0000
  S   S299      1.0  0.55573  0.87624  0.21896  1.0000
  H   H1811     1.0  0.51518  0.76733  0.19606  1.0000
  C   C1066     1.0  0.45355  0.81048  0.19666  1.0000
  S   S300      1.0  0.49618  0.63670  0.20576  1.0000
  S   S301      1.0  0.54679  0.69501  0.20821  1.0000
  Fe  Fe148     1.0  0.57944  0.68416  0.20418  1.0000
  H   H1812     1.0  0.38844  0.59114  0.10341  1.0000
  C   C1067     1.0  0.39525  0.60048  0.12732  1.0000
  C   C1068     1.0  0.51458  0.68605  0.20282  1.0000
  H   H1813     1.0  0.50159  0.78434  0.15672  1.0000
  H   H1814     1.0  0.55318  0.74975  0.20997  1.0000
  H   H1815     1.0  0.63756  0.63018  0.14744  1.0000
  H   H1816     1.0  0.43963  0.74336  0.22083  1.0000
  H   H1817     1.0  0.57642  0.89726  0.15370  1.0000
  H   H1818     1.0  0.33151  0.51184  0.11117  1.0000
  H   H1819     1.0  0.61372  0.86614  0.20538  1.0000
  C   C1069     1.0  0.42350  0.57509  0.11788  1.0000
  C   C1070     1.0  0.40720  0.55115  0.16276  1.0000
  C   C1071     1.0  0.44079  0.55789  0.12216  1.0000
  H   H1820     1.0  0.41561  0.56989  0.10956  1.0000
  H   H1821     1.0  0.42951  0.58717  0.10700  1.0000
  H   H1822     1.0  0.40706  0.55726  0.17538  1.0000
  H   H1823     1.0  0.43647  0.54358  0.12491  1.0000
  C   C1072     1.0  0.51479  0.96361  0.22519  1.0000
  H   H1824     1.0  0.60916  0.87163  0.14843  1.0000
  H   H1825     1.0  0.55634  0.98698  0.18090  1.0000
  H   H1826     1.0  0.42225  0.54366  0.15714  1.0000
  N   N78       1.0  0.65600  0.60513  0.16273  1.0000
  H   H1827     1.0  0.38351  0.57431  0.15521  1.0000
  H   H1828     1.0  0.39400  0.55946  0.13757  1.0000
  C   C1073     1.0  0.48366  0.78223  0.21807  1.0000
  C   C1074     1.0  0.55680  0.75799  0.19474  1.0000
  H   H1829     1.0  0.42265  0.61841  0.13233  1.0000
  N   N79       1.0  0.40945  0.58237  0.13510  1.0000
  H   H1830     1.0  0.37089  0.58778  0.12628  1.0000
  H   H1831     1.0  0.64638  0.57829  0.16544  1.0000
  H   H1832     1.0  0.40856  0.59415  0.15987  1.0000
  H   H1833     1.0  0.33595  0.58791  0.20962  1.0000
  H   H1834     1.0  0.61580  0.79363  0.22903  1.0000
  C   C1075     1.0  0.53355  0.67865  0.20637  1.0000
  Fe  Fe149     1.0  0.52719  0.86638  0.22832  1.0000
  C   C1076     1.0  0.51066  0.77377  0.16667  1.0000
  Fe  Fe150     1.0  0.61496  0.70015  0.20197  1.0000
  C   C1077     1.0  0.60042  0.88516  0.18107  1.0000
  H   H1835     1.0  0.45635  0.73898  0.06078  1.0000
  H   H1836     1.0  0.50216  0.80026  0.00006  1.0000
  H   H1837     1.0  0.51249  0.79233  0.18464  1.0000
  H   H1838     1.0  0.47481  0.80273  0.17169  1.0000
  H   H1839     1.0  0.47345  0.76888  0.18021  1.0000
  H   H1840     1.0  0.62887  0.77778  0.17961  1.0000
  H   H1841     1.0  0.52577  0.92687  0.21920  1.0000
  H   H1842     1.0  0.42710  0.71508  0.21933  1.0000
  H   H1843     1.0  0.50874  0.70171  0.20022  1.0000
  H   H1844     1.0  0.61858  0.89045  0.19966  1.0000
  H   H1845     1.0  0.56272  0.71319  0.01470  1.0000
  H   H1846     1.0  0.65232  0.60549  0.19313  1.0000
  Fe  Fe151     1.0  0.33909  0.57736  0.16868  1.0000
  H   H1847     1.0  0.64710  0.69494  0.22487  1.0000
  C   C1078     1.0  0.33906  0.50186  0.12264  1.0000
  C   C1079     1.0  0.64108  0.86213  0.16401  1.0000
  H   H1848     1.0  0.35614  0.49265  0.16360  1.0000
  C   C1080     1.0  0.56111  0.71883  0.98417  1.0000
  H   H1849     1.0  0.60556  0.92154  0.18767  1.0000
  H   H1850     1.0  0.49991  0.74310  0.20245  1.0000
  C   C1081     1.0  0.50461  0.77321  0.99121  1.0000
  H   H1851     1.0  0.52036  0.95849  0.21133  1.0000
  H   H1852     1.0  0.49384  0.96054  0.19945  1.0000
  H   H1853     1.0  0.64003  0.88823  0.17343  1.0000
  S   S302      1.0  0.44008  0.63945  0.22725  1.0000
  C   C1082     1.0  0.63137  0.72460  0.22594  1.0000
  H   H1854     1.0  0.48444  0.81298  0.21708  1.0000
  H   H1855     1.0  0.61769  0.75385  0.23067  1.0000
  H   H1856     1.0  0.47707  0.74179  0.21940  1.0000
  H   H1857     1.0  0.51537  0.90669  0.23147  1.0000
  H   H1858     1.0  0.62561  0.96967  0.21431  1.0000
  H   H1859     1.0  0.50814  0.79629  0.21586  1.0000
  H   H1860     1.0  0.34156  0.62168  0.21298  1.0000
  H   H1861     1.0  0.35460  0.49679  0.11566  1.0000
  H   H1862     1.0  0.56565  0.70272  0.98549  1.0000
  H   H1863     1.0  0.64110  0.85766  0.15047  1.0000
  H   H1864     1.0  0.33939  0.51024  0.13337  1.0000
  C   C1083     1.0  0.64979  0.98341  0.21591  1.0000
  C   C1084     1.0  0.34089  0.61940  0.22883  1.0000
  H   H1865     1.0  0.35371  0.62445  0.23007  1.0000
  H   H1866     1.0  0.57695  0.93826  0.22438  1.0000
  H   H1867     1.0  0.35646  0.59008  0.22976  1.0000
  H   H1868     1.0  0.64948  0.95455  0.21191  1.0000
  C   C1085     1.0  0.60183  0.82391  0.22950  1.0000
  H   H1869     1.0  0.65630  0.98096  0.22894  1.0000
  C   C1086     1.0  0.63948  0.96609  0.21951  1.0000
  H   H1870     1.0  0.64655  0.62085  0.11534  1.0000
  C   C1087     1.0  0.65668  0.61461  0.12569  1.0000
  H   H1871     1.0  0.52721  0.96166  0.23240  1.0000
  C   C1088     1.0  0.64335  0.70673  0.23270  1.0000
  C   C1089     1.0  0.64210  0.80892  0.40128  1.0000
  C   C1090     1.0  0.48964  0.67729  0.30233  1.0000
  Fe  Fe152     1.0  0.62298  0.77973  0.30428  1.0000
  S   S303      1.0  0.61245  0.77247  0.33668  1.0000
  S   S304      1.0  0.61613  0.81158  0.28983  1.0000
  H   H1872     1.0  0.63685  0.95902  0.23521  1.0000
  S   S305      1.0  0.62794  0.72648  0.33326  1.0000
  S   S306      1.0  0.65214  0.71444  0.28274  1.0000
  Fe  Fe153     1.0  0.60059  0.74958  0.33030  1.0000
  S   S307      1.0  0.56974  0.74640  0.34515  1.0000
  H   H1873     1.0  0.48764  0.65619  0.24811  1.0000
  S   S308      1.0  0.60912  0.75839  0.29792  1.0000
  C   C1091     1.0  0.43575  0.73288  0.23405  1.0000
  Fe  Fe154     1.0  0.46064  0.78079  0.30509  1.0000
  S   S309      1.0  0.47974  0.76789  0.27994  1.0000
  Fe  Fe155     1.0  0.44503  0.74415  0.32515  1.0000
  S   S310      1.0  0.46308  0.72773  0.30191  1.0000
  S   S311      1.0  0.42590  0.72782  0.35040  1.0000
  Fe  Fe156     1.0  0.48739  0.74117  0.30277  1.0000
  S   S312      1.0  0.51875  0.72453  0.29803  1.0000
  Fe  Fe157     1.0  0.45405  0.75547  0.28094  1.0000
  H   H1874     1.0  0.49365  0.92298  0.26898  1.0000
  S   S313      1.0  0.47030  0.75500  0.32810  1.0000
  S   S314      1.0  0.43397  0.77100  0.30402  1.0000
  C   C1092     1.0  0.38498  0.72115  0.30983  1.0000
  S   S315      1.0  0.34482  0.72837  0.48230  1.0000
  H   H1875     1.0  0.46574  0.69061  0.28715  1.0000
  H   H1876     1.0  0.39274  0.70049  0.44109  1.0000
  S   S316      1.0  0.34250  0.77266  0.38815  1.0000
  H   H1877     1.0  0.53022  0.92986  0.25318  1.0000
  C   C1093     1.0  0.65477  0.76766  0.42800  1.0000
  H   H1878     1.0  0.39383  0.72661  0.41285  1.0000
  H   H1879     1.0  0.61217  0.82689  0.40073  1.0000
  C   C1094     1.0  0.50839  0.71547  0.24425  1.0000
  H   H1880     1.0  0.47672  0.66569  0.28606  1.0000
  H   H1881     1.0  0.36826  0.75553  0.41804  1.0000
  H   H1882     1.0  0.48401  0.96492  0.23776  1.0000
  H   H1883     1.0  0.48595  0.86821  0.29572  1.0000
  C   C1095     1.0  0.40256  0.74052  0.36012  1.0000
  C   C1096     1.0  0.38976  0.72995  0.37418  1.0000
  C   C1097     1.0  0.37116  0.73964  0.38258  1.0000
  C   C1098     1.0  0.36528  0.75999  0.37705  1.0000
  C   C1099     1.0  0.37792  0.77053  0.36266  1.0000
  C   C1100     1.0  0.39657  0.76083  0.35424  1.0000
  H   H1884     1.0  0.39427  0.71420  0.37863  1.0000
  H   H1885     1.0  0.36137  0.73132  0.39327  1.0000
  H   H1886     1.0  0.37345  0.78630  0.35831  1.0000
  H   H1887     1.0  0.40640  0.76913  0.34350  1.0000
  H   H1888     1.0  0.37856  0.78663  0.43394  1.0000
  H   H1889     1.0  0.54489  0.90961  0.24258  1.0000
  C   C1101     1.0  0.62385  0.80233  0.43499  1.0000
  H   H1890     1.0  0.52384  0.70808  0.24467  1.0000
  H   H1891     1.0  0.41094  0.76743  0.43475  1.0000
  H   H1892     1.0  0.38053  0.73263  0.27012  1.0000
  C   C1102     1.0  0.55584  0.74008  0.33196  1.0000
  C   C1103     1.0  0.53605  0.73984  0.33994  1.0000
  C   C1104     1.0  0.52454  0.73513  0.32960  1.0000
  C   C1105     1.0  0.53280  0.73063  0.31120  1.0000
  C   C1106     1.0  0.55254  0.73103  0.30315  1.0000
  C   C1107     1.0  0.56409  0.73560  0.31355  1.0000
  H   H1893     1.0  0.52959  0.74327  0.35420  1.0000
  H   H1894     1.0  0.50937  0.73471  0.33601  1.0000
  H   H1895     1.0  0.55876  0.72814  0.28871  1.0000
  H   H1896     1.0  0.57932  0.73579  0.30729  1.0000
  H   H1897     1.0  0.37154  0.74009  0.34008  1.0000
  C   C1108     1.0  0.49810  0.95431  0.23943  1.0000
  C   C1109     1.0  0.36351  0.74871  0.29347  1.0000
  C   C1110     1.0  0.48015  0.68015  0.28474  1.0000
  H   H1898     1.0  0.50189  0.66427  0.30292  1.0000
  H   H1899     1.0  0.33974  0.77093  0.32101  1.0000
  H   H1900     1.0  0.50010  0.95374  0.25432  1.0000
  H   H1901     1.0  0.35255  0.73930  0.29700  1.0000
  H   H1902     1.0  0.62977  0.74893  0.26097  1.0000
  H   H1903     1.0  0.39593  0.78077  0.28274  1.0000
  C   C1111     1.0  0.49565  0.85326  0.27171  1.0000
  C   C1112     1.0  0.49461  0.83722  0.26476  1.0000
  C   C1113     1.0  0.42519  0.70594  0.26811  1.0000
  H   H1904     1.0  0.32944  0.84974  0.47566  1.0000
  C   C1114     1.0  0.61100  0.81602  0.26652  1.0000
  H   H1905     1.0  0.59753  0.84638  0.26674  1.0000
  H   H1906     1.0  0.39742  0.75970  0.39388  1.0000
  H   H1907     1.0  0.36745  0.75288  0.44291  1.0000
  H   H1908     1.0  0.62703  0.66663  0.32962  1.0000
  C   C1115     1.0  0.48001  0.68766  0.25008  1.0000
  H   H1909     1.0  0.53070  0.77177  0.30062  1.0000
  H   H1910     1.0  0.43714  0.74836  0.40703  1.0000
  C   C1116     1.0  0.51984  0.78477  0.30471  1.0000
  H   H1911     1.0  0.42124  0.69539  0.28126  1.0000
  C   C1117     1.0  0.48521  0.85587  0.29027  1.0000
  H   H1912     1.0  0.64982  0.76700  0.41497  1.0000
  C   C1118     1.0  0.39063  0.71548  0.44370  1.0000
  N   N80       1.0  0.60445  0.67560  0.28968  1.0000
  C   C1119     1.0  0.60032  0.69771  0.28532  1.0000
  C   C1120     1.0  0.60787  0.66828  0.31023  1.0000
  C   C1121     1.0  0.58743  0.66817  0.28801  1.0000
  C   C1122     1.0  0.62226  0.66831  0.27517  1.0000
  C   C1123     1.0  0.59357  0.70806  0.26598  1.0000
  H   H1913     1.0  0.35941  0.77555  0.32958  1.0000
  C   C1124     1.0  0.56730  0.67606  0.30023  1.0000
  C   C1125     1.0  0.63012  0.64589  0.27863  1.0000
  H   H1914     1.0  0.58920  0.70359  0.29731  1.0000
  H   H1915     1.0  0.46555  0.84493  0.31616  1.0000
  H   H1916     1.0  0.60896  0.65214  0.31484  1.0000
  H   H1917     1.0  0.59516  0.67479  0.32071  1.0000
  H   H1918     1.0  0.58592  0.67128  0.27254  1.0000
  H   H1919     1.0  0.59002  0.65192  0.29268  1.0000
  H   H1920     1.0  0.61932  0.67278  0.26016  1.0000
  Fe  Fe158     1.0  0.64080  0.75030  0.33675  1.0000
  H   H1921     1.0  0.57932  0.70532  0.26554  1.0000
  H   H1922     1.0  0.59165  0.72416  0.26428  1.0000
  H   H1923     1.0  0.61917  0.63788  0.27814  1.0000
  H   H1924     1.0  0.63683  0.79001  0.46159  1.0000
  H   H1925     1.0  0.62476  0.68902  0.31208  1.0000
  C   C1126     1.0  0.48319  0.82374  0.27657  1.0000
  H   H1926     1.0  0.56249  0.69218  0.29612  1.0000
  H   H1927     1.0  0.56705  0.67173  0.31609  1.0000
  H   H1928     1.0  0.55606  0.66967  0.29758  1.0000
  H   H1929     1.0  0.49058  0.79579  0.23828  1.0000
  H   H1930     1.0  0.54110  0.67567  0.25847  1.0000
  H   H1931     1.0  0.40470  0.69588  0.32324  1.0000
  H   H1932     1.0  0.48764  0.69287  0.23506  1.0000
  H   H1933     1.0  0.49925  0.70933  0.27513  1.0000
  C   C1127     1.0  0.40720  0.75266  0.43934  1.0000
  C   C1128     1.0  0.47369  0.84267  0.30186  1.0000
  H   H1934     1.0  0.62378  0.78665  0.26182  1.0000
  H   H1935     1.0  0.63453  0.67510  0.27463  1.0000
  H   H1936     1.0  0.43381  0.72371  0.28284  1.0000
  H   H1937     1.0  0.61763  0.81154  0.46301  1.0000
  H   H1938     1.0  0.52525  0.80702  0.27935  1.0000
  C   C1129     1.0  0.52698  0.80393  0.29461  1.0000
  C   C1130     1.0  0.43238  0.72190  0.26899  1.0000
  H   H1939     1.0  0.61232  0.78796  0.46464  1.0000
  C   C1131     1.0  0.60145  0.83484  0.25856  1.0000
  C   C1132     1.0  0.39571  0.75147  0.46068  1.0000
  H   H1940     1.0  0.38466  0.74228  0.46533  1.0000
  H   H1941     1.0  0.41561  0.72123  0.42212  1.0000
  C   C1133     1.0  0.37023  0.78152  0.42607  1.0000
  H   H1942     1.0  0.50899  0.65715  0.26533  1.0000
  H   H1943     1.0  0.42145  0.74191  0.43951  1.0000
  H   H1944     1.0  0.65022  0.81949  0.44209  1.0000
  C   C1134     1.0  0.35024  0.76499  0.33092  1.0000
  H   H1945     1.0  0.43317  0.76057  0.38308  1.0000
  N   N81       1.0  0.54741  0.80404  0.29608  1.0000
  C   C1135     1.0  0.54769  0.80009  0.31753  1.0000
  H   H1946     1.0  0.39810  0.71383  0.45579  1.0000
  C   C1136     1.0  0.55148  0.82424  0.28711  1.0000
  C   C1137     1.0  0.56309  0.78865  0.28696  1.0000
  C   C1138     1.0  0.56667  0.80161  0.32255  1.0000
  H   H1947     1.0  0.35573  0.69032  0.46242  1.0000
  C   C1139     1.0  0.55145  0.83151  0.26525  1.0000
  H   H1948     1.0  0.63792  0.79635  0.39834  1.0000
  H   H1949     1.0  0.53533  0.81021  0.32510  1.0000
  H   H1950     1.0  0.54555  0.78499  0.32481  1.0000
  H   H1951     1.0  0.52441  0.68505  0.27843  1.0000
  H   H1952     1.0  0.34126  0.76377  0.34597  1.0000
  H   H1953     1.0  0.54065  0.83534  0.29484  1.0000
  H   H1954     1.0  0.56619  0.82503  0.28858  1.0000
  H   H1955     1.0  0.57770  0.79251  0.28380  1.0000
  H   H1956     1.0  0.56431  0.77436  0.29751  1.0000
  H   H1957     1.0  0.56796  0.81709  0.32007  1.0000
  H   H1958     1.0  0.56638  0.79526  0.33829  1.0000
  H   H1959     1.0  0.57995  0.79324  0.31435  1.0000
  H   H1960     1.0  0.41173  0.71836  0.32063  1.0000
  H   H1961     1.0  0.47975  0.71789  0.26289  1.0000
  H   H1962     1.0  0.50609  0.78522  0.30024  1.0000
  H   H1963     1.0  0.56371  0.82268  0.25638  1.0000
  C   C1140     1.0  0.33128  0.56706  0.25030  1.0000
  C   C1141     1.0  0.52965  0.91650  0.24872  1.0000
  H   H1964     1.0  0.51613  0.81600  0.30093  1.0000
  Fe  Fe159     1.0  0.63766  0.73726  0.30113  1.0000
  H   H1965     1.0  0.61361  0.70304  0.28473  1.0000
  C   C1142     1.0  0.52793  0.67337  0.27002  1.0000
  C   C1143     1.0  0.65063  0.70420  0.24955  1.0000
  C   C1144     1.0  0.43760  0.73545  0.25195  1.0000
  N   N82       1.0  0.49702  0.93421  0.23771  1.0000
  H   H1966     1.0  0.57510  0.78152  0.25827  1.0000
  H   H1967     1.0  0.39396  0.71865  0.29548  1.0000
  C   C1145     1.0  0.39978  0.72834  0.42489  1.0000
  C   C1146     1.0  0.49423  0.70747  0.26269  1.0000
  C   C1147     1.0  0.56047  0.78435  0.26804  1.0000
  H   H1968     1.0  0.63559  0.83570  0.42602  1.0000
  S   S317      1.0  0.45777  0.81070  0.31053  1.0000
  C   C1148     1.0  0.64523  0.71916  0.26016  1.0000
  N   N83       1.0  0.39698  0.74982  0.42484  1.0000
  C   C1149     1.0  0.62760  0.82755  0.39368  1.0000
  H   H1969     1.0  0.37268  0.78894  0.41046  1.0000
  H   H1970     1.0  0.55506  0.77057  0.27128  1.0000
  C   C1150     1.0  0.40600  0.75959  0.40462  1.0000
  H   H1971     1.0  0.37352  0.71232  0.31330  1.0000
  H   H1972     1.0  0.50729  0.73126  0.24357  1.0000
  H   H1973     1.0  0.35441  0.78637  0.43212  1.0000
  C   C1151     1.0  0.51121  0.67249  0.26070  1.0000
  N   N84       1.0  0.49195  0.68676  0.26477  1.0000
  H   H1974     1.0  0.46601  0.69861  0.25214  1.0000
  H   H1975     1.0  0.46775  0.67082  0.23718  1.0000
  C   C1152     1.0  0.47266  0.82656  0.29515  1.0000
  H   H1976     1.0  0.35447  0.76372  0.29298  1.0000
  H   H1977     1.0  0.55109  0.79625  0.25945  1.0000
  H   H1978     1.0  0.40428  0.74814  0.29322  1.0000
  H   H1979     1.0  0.47854  0.67435  0.31592  1.0000
  C   C1153     1.0  0.61171  0.80514  0.23728  1.0000
  H   H1980     1.0  0.64288  0.64251  0.26671  1.0000
  H   H1981     1.0  0.51624  0.78303  0.32081  1.0000
  H   H1982     1.0  0.38870  0.76639  0.46361  1.0000
  H   H1983     1.0  0.64637  0.58723  0.24369  1.0000
  H   H1984     1.0  0.60462  0.70391  0.25324  1.0000
  S   S318      1.0  0.44666  0.75556  0.25257  1.0000
  C   C1154     1.0  0.64806  0.82279  0.42680  1.0000
  C   C1155     1.0  0.62272  0.79780  0.45725  1.0000
  H   H1985     1.0  0.42886  0.73646  0.39228  1.0000
  S   S319      1.0  0.65259  0.75947  0.30466  1.0000
  C   C1156     1.0  0.37535  0.75901  0.42831  1.0000
  H   H1986     1.0  0.36355  0.55811  0.24217  1.0000
  H   H1987     1.0  0.39134  0.71154  0.33967  1.0000
  N   N85       1.0  0.37576  0.74268  0.30891  1.0000
  S   S320      1.0  0.41331  0.68390  0.24969  1.0000
  C   C1157     1.0  0.42755  0.75051  0.39660  1.0000
  H   H1988     1.0  0.48229  0.81141  0.27125  1.0000
  H   H1989     1.0  0.39829  0.75124  0.31748  1.0000
  C   C1158     1.0  0.61612  0.80114  0.25588  1.0000
  S   S321      1.0  0.50995  0.87035  0.25803  1.0000
  H   H1990     1.0  0.52447  0.90570  0.26175  1.0000
  H   H1991     1.0  0.35241  0.73435  0.33275  1.0000
  H   H1992     1.0  0.46350  0.66388  0.26285  1.0000
  H   H1993     1.0  0.53738  0.83192  0.26165  1.0000
  H   H1994     1.0  0.33286  0.56580  0.26550  1.0000
  H   H1995     1.0  0.40553  0.77529  0.40391  1.0000
  H   H1996     1.0  0.61872  0.79081  0.43117  1.0000
  H   H1997     1.0  0.35070  0.53893  0.24666  1.0000
  H   H1998     1.0  0.55372  0.84681  0.26082  1.0000
  C   C1159     1.0  0.39183  0.75389  0.30441  1.0000
  H   H1999     1.0  0.37110  0.78262  0.29568  1.0000
  H   H2000     1.0  0.40622  0.74514  0.47064  1.0000
  H   H2001     1.0  0.36495  0.75531  0.26212  1.0000
  C   C1160     1.0  0.42328  0.70342  0.25022  1.0000
  H   H2002     1.0  0.49460  0.69031  0.30300  1.0000
  C   C1161     1.0  0.63356  0.73715  0.25317  1.0000
  C   C1162     1.0  0.38644  0.77642  0.29715  1.0000
  C   C1163     1.0  0.36272  0.74451  0.32857  1.0000
  H   H2003     1.0  0.38939  0.78394  0.30735  1.0000
  H   H2004     1.0  0.50255  0.83520  0.25035  1.0000
  H   H2005     1.0  0.37465  0.72079  0.44807  1.0000
  C   C1164     1.0  0.39885  0.71152  0.32430  1.0000
  S   S322      1.0  0.33760  0.72638  0.43139  1.0000
  C   C1165     1.0  0.47465  0.66836  0.24988  1.0000
  H   H2006     1.0  0.63992  0.66657  0.30513  1.0000
  S   S323      1.0  0.65838  0.74247  0.36059  1.0000
  H   H2007     1.0  0.61222  0.81569  0.43214  1.0000
  C   C1166     1.0  0.37499  0.74792  0.27240  1.0000
  N   N86       1.0  0.64334  0.80546  0.42240  1.0000
  C   C1167     1.0  0.62599  0.67299  0.31415  1.0000
  H   H2008     1.0  0.34269  0.77006  0.46849  1.0000
  C   C1168     1.0  0.46467  0.93444  0.26369  1.0000
  H   H2009     1.0  0.46301  0.95019  0.26350  1.0000
  C   C1169     1.0  0.51692  0.92101  0.23330  1.0000
  H   H2010     1.0  0.53233  0.65914  0.27990  1.0000
  C   C1170     1.0  0.59673  0.83872  0.24018  1.0000
  H   H2011     1.0  0.62579  0.98582  0.25182  1.0000
  H   H2012     1.0  0.63539  0.64007  0.29250  1.0000
  H   H2013     1.0  0.35767  0.66442  0.46897  1.0000
  H   H2014     1.0  0.34442  0.63286  0.47884  1.0000
  C   C1171     1.0  0.34293  0.59753  0.23856  1.0000
  H   H2015     1.0  0.64368  0.76386  0.44130  1.0000
  C   C1172     1.0  0.35020  0.55473  0.24008  1.0000
  H   H2016     1.0  0.51706  0.67443  0.24474  1.0000
  H   H2017     1.0  0.38734  0.75560  0.26806  1.0000
  H   H2018     1.0  0.32859  0.63086  0.46459  1.0000
  H   H2019     1.0  0.48613  0.90897  0.25650  1.0000
  H   H2020     1.0  0.33977  0.65145  0.45707  1.0000
  H   H2021     1.0  0.58921  0.85323  0.23431  1.0000
  C   C1173     1.0  0.62683  0.73995  0.23594  1.0000
  C   C1174     1.0  0.65691  0.59497  0.23332  1.0000
  S   S324      1.0  0.62769  0.62820  0.23505  1.0000
  H   H2022     1.0  0.62885  0.82866  0.37784  1.0000
  H   H2023     1.0  0.45494  0.93263  0.25497  1.0000
  C   C1175     1.0  0.48618  0.92428  0.25692  1.0000
  H   H2024     1.0  0.63099  0.84113  0.39515  1.0000
  H   H2025     1.0  0.34632  0.59569  0.25317  1.0000
  H   H2026     1.0  0.45936  0.92723  0.27898  1.0000
  C   C1176     1.0  0.32835  0.68243  0.47924  1.0000
  C   C1177     1.0  0.33330  0.64149  0.47014  1.0000
  H   H2027     1.0  0.65667  0.80965  0.39160  1.0000
  Fe  Fe160     1.0  0.32770  0.73900  0.45831  1.0000
  C   C1178     1.0  0.35099  0.67822  0.47423  1.0000
  C   C1179     1.0  0.42876  0.71681  0.23316  1.0000
  H   H2028     1.0  0.32760  0.62885  0.23580  1.0000
  C   C1180     1.0  0.65949  0.78772  0.42642  1.0000
  Fe  Fe161     1.0  0.42746  0.81535  0.66922  1.0000
  S   S325      1.0  0.44047  0.78349  0.67893  1.0000
  S   S326      1.0  0.41215  0.82837  0.64369  1.0000
  H   H2029     1.0  0.64058  0.85888  0.65643  1.0000
  C   C1181     1.0  0.37592  0.75450  0.66520  1.0000
  Fe  Fe162     1.0  0.46368  0.79402  0.68652  1.0000
  S   S327      1.0  0.49560  0.77972  0.67903  1.0000
  H   H2030     1.0  0.35908  0.74864  0.64720  1.0000
  S   S328      1.0  0.45246  0.82563  0.67374  1.0000
  Fe  Fe163     1.0  0.42376  0.78784  0.70860  1.0000
  Fe  Fe164     1.0  0.60072  0.80920  0.70036  1.0000
  S   S329      1.0  0.58651  0.79117  0.68963  1.0000
  S   S330      1.0  0.59863  0.84068  0.68515  1.0000
  C   C1182     1.0  0.33053  0.65428  0.50807  1.0000
  S   S331      1.0  0.60712  0.75288  0.71888  1.0000
  C   C1183     1.0  0.37110  0.80417  0.67965  1.0000
  Fe  Fe165     1.0  0.61545  0.76981  0.68851  1.0000
  S   S332      1.0  0.63021  0.75621  0.66238  1.0000
  Fe  Fe166     1.0  0.61975  0.77386  0.72743  1.0000
  H   H2031     1.0  0.64909  0.67748  0.68510  1.0000
  S   S333      1.0  0.63013  0.78902  0.69699  1.0000
  H   H2032     1.0  0.34562  0.64767  0.50127  1.0000
  Fe  Fe167     1.0  0.36280  0.78000  0.59215  1.0000
  S   S334      1.0  0.40907  0.81906  0.69869  1.0000
  S   S335      1.0  0.38970  0.76968  0.60564  1.0000
  Fe  Fe168     1.0  0.34695  0.78806  0.55509  1.0000
  C   C1184     1.0  0.44405  0.74175  0.72704  1.0000
  S   S336      1.0  0.34968  0.79450  0.52244  1.0000
  H   H2033     1.0  0.64714  0.66308  0.72115  1.0000
  H   H2034     1.0  0.36344  0.80163  0.69511  1.0000
  S   S337      1.0  0.35760  0.80693  0.56867  1.0000
  S   S338      1.0  0.35490  0.76035  0.57695  1.0000
  C   C1185     1.0  0.34825  0.77585  0.51175  1.0000
  C   C1186     1.0  0.34945  0.75644  0.52208  1.0000
  H   H2035     1.0  0.35133  0.75264  0.53702  1.0000
  H   H2036     1.0  0.34606  0.85222  0.52929  1.0000
  H   H2037     1.0  0.35916  0.77390  0.64344  1.0000
  H   H2038     1.0  0.37867  0.79206  0.65395  1.0000
  C   C1187     1.0  0.56452  0.89079  0.69990  1.0000
  H   H2039     1.0  0.44816  0.68821  0.71091  1.0000
  H   H2040     1.0  0.50860  0.73166  0.72577  1.0000
  H   H2041     1.0  0.64824  0.71224  0.71762  1.0000
  C   C1188     1.0  0.62653  0.69932  0.71395  1.0000
  H   H2042     1.0  0.48665  0.78371  0.71957  1.0000
  C   C1189     1.0  0.40832  0.74350  0.68677  1.0000
  H   H2043     1.0  0.36407  0.81897  0.67240  1.0000
  H   H2044     1.0  0.32842  0.70783  0.56160  1.0000
  N   N87       1.0  0.37658  0.76762  0.67814  1.0000
  H   H2045     1.0  0.64061  0.72269  0.69558  1.0000
  H   H2046     1.0  0.61326  0.71132  0.71370  1.0000
  C   C1190     1.0  0.39768  0.76476  0.67959  1.0000
  H   H2047     1.0  0.33515  0.68022  0.51601  1.0000
  C   C1191     1.0  0.40731  0.81260  0.63137  1.0000
  C   C1192     1.0  0.39154  0.81907  0.62165  1.0000
  C   C1193     1.0  0.38625  0.80616  0.61328  1.0000
  C   C1194     1.0  0.39693  0.78681  0.61432  1.0000
  C   C1195     1.0  0.41318  0.78062  0.62330  1.0000
  C   C1196     1.0  0.41837  0.79347  0.63179  1.0000
  H   H2048     1.0  0.38304  0.83391  0.62111  1.0000
  H   H2049     1.0  0.37375  0.81110  0.60630  1.0000
  H   H2050     1.0  0.42165  0.76575  0.62392  1.0000
  H   H2051     1.0  0.43084  0.78853  0.63881  1.0000
  C   C1197     1.0  0.51039  0.77712  0.69575  1.0000
  C   C1198     1.0  0.50228  0.77991  0.71481  1.0000
  H   H2052     1.0  0.42344  0.63962  0.72880  1.0000
  S   S339      1.0  0.43293  0.85357  0.71574  1.0000
  C   C1199     1.0  0.54301  0.76981  0.70276  1.0000
  C   C1200     1.0  0.53077  0.77189  0.68984  1.0000
  H   H2053     1.0  0.33208  0.83435  0.54254  1.0000
  H   H2054     1.0  0.52330  0.82084  0.68358  1.0000
  H   H2055     1.0  0.55871  0.76567  0.69807  1.0000
  H   H2056     1.0  0.53712  0.76957  0.67517  1.0000
  C   C1201     1.0  0.34857  0.74185  0.51290  1.0000
  H   H2057     1.0  0.35715  0.67808  0.48679  1.0000
  C   C1202     1.0  0.57740  0.87709  0.68943  1.0000
  C   C1203     1.0  0.58265  0.85751  0.69876  1.0000
  H   H2058     1.0  0.63452  0.71258  0.67046  1.0000
  C   C1204     1.0  0.55689  0.88501  0.71976  1.0000
  H   H2059     1.0  0.46058  0.67445  0.72987  1.0000
  H   H2060     1.0  0.58326  0.88167  0.67407  1.0000
  S   S340      1.0  0.44790  0.79577  0.71718  1.0000
  H   H2061     1.0  0.48715  0.84577  0.72536  1.0000
  C   C1205     1.0  0.36987  0.78885  0.66890  1.0000
  H   H2062     1.0  0.57933  0.83674  0.72604  1.0000
  H   H2063     1.0  0.40887  0.73359  0.67716  1.0000
  H   H2064     1.0  0.34970  0.72681  0.52087  1.0000
  H   H2065     1.0  0.38653  0.80478  0.67851  1.0000
  H   H2066     1.0  0.63319  0.85164  0.61905  1.0000
  H   H2067     1.0  0.34401  0.76225  0.66500  1.0000
  H   H2068     1.0  0.64546  0.69674  0.65362  1.0000
  H   H2069     1.0  0.62464  0.68940  0.70560  1.0000
  C   C1206     1.0  0.65492  0.75795  0.65436  1.0000
  C   C1207     1.0  0.51451  0.77757  0.72784  1.0000
  C   C1208     1.0  0.53488  0.77276  0.72171  1.0000
  C   C1209     1.0  0.64357  0.81280  0.62801  1.0000
  H   H2070     1.0  0.65647  0.75531  0.62504  1.0000
  H   H2071     1.0  0.38911  0.75384  0.65311  1.0000
  H   H2072     1.0  0.33606  0.77928  0.69168  1.0000
  H   H2073     1.0  0.35462  0.79223  0.66673  1.0000
  H   H2074     1.0  0.32998  0.73293  0.57857  1.0000
  H   H2075     1.0  0.61122  0.82110  0.63597  1.0000
  H   H2076     1.0  0.42374  0.74355  0.68657  1.0000
  C   C1210     1.0  0.57508  0.85170  0.71866  1.0000
  H   H2077     1.0  0.56044  0.90592  0.69259  1.0000
  C   C1211     1.0  0.36497  0.76209  0.69846  1.0000
  H   H2078     1.0  0.36827  0.76910  0.70892  1.0000
  H   H2079     1.0  0.33712  0.83588  0.50801  1.0000
  C   C1212     1.0  0.50655  0.88045  0.71104  1.0000
  H   H2080     1.0  0.39898  0.77344  0.68963  1.0000
  H   H2081     1.0  0.62652  0.69150  0.72931  1.0000
  H   H2082     1.0  0.50141  0.85055  0.68134  1.0000
  H   H2083     1.0  0.33040  0.96833  0.56363  1.0000
  H   H2084     1.0  0.50788  0.89427  0.70011  1.0000
  H   H2085     1.0  0.47927  0.86197  0.69626  1.0000
  H   H2086     1.0  0.62256  0.80423  0.65526  1.0000
  H   H2087     1.0  0.40185  0.73750  0.70206  1.0000
  Fe  Fe169     1.0  0.43513  0.82676  0.70406  1.0000
  H   H2088     1.0  0.64263  0.81812  0.61234  1.0000
  H   H2089     1.0  0.53728  0.84024  0.67420  1.0000
  H   H2090     1.0  0.48219  0.83790  0.69304  1.0000
  H   H2091     1.0  0.49112  0.87892  0.71411  1.0000
  N   N88       1.0  0.65117  0.82687  0.63495  1.0000
  C   C1213     1.0  0.33233  0.66535  0.52289  1.0000
  H   H2092     1.0  0.63972  0.82068  0.66597  1.0000
  H   H2093     1.0  0.40656  0.77029  0.66524  1.0000
  H   H2094     1.0  0.37637  0.73913  0.67348  1.0000
  N   N89       1.0  0.51811  0.84294  0.71404  1.0000
  H   H2095     1.0  0.54916  0.81523  0.68030  1.0000
  C   C1214     1.0  0.52115  0.86308  0.70304  1.0000
  C   C1215     1.0  0.53470  0.82770  0.70584  1.0000
  C   C1216     1.0  0.49848  0.83938  0.71384  1.0000
  C   C1217     1.0  0.34600  0.74673  0.49358  1.0000
  C   C1218     1.0  0.64491  0.70819  0.70522  1.0000
  C   C1219     1.0  0.53587  0.82628  0.68474  1.0000
  C   C1220     1.0  0.49036  0.84814  0.69491  1.0000
  H   H2096     1.0  0.33248  0.97300  0.59461  1.0000
  C   C1221     1.0  0.63608  0.84589  0.63409  1.0000
  H   H2097     1.0  0.52074  0.86554  0.68744  1.0000
  H   H2098     1.0  0.53613  0.86464  0.70292  1.0000
  H   H2099     1.0  0.54908  0.83010  0.70666  1.0000
  H   H2100     1.0  0.53376  0.81277  0.71453  1.0000
  C   C1222     1.0  0.44993  0.67395  0.72148  1.0000
  Fe  Fe170     1.0  0.57962  0.77626  0.72107  1.0000
  H   H2101     1.0  0.36969  0.74616  0.70438  1.0000
  H   H2102     1.0  0.34454  0.65691  0.53037  1.0000
  S   S341      1.0  0.33284  0.78677  0.61094  1.0000
  C   C1223     1.0  0.35837  0.76035  0.65489  1.0000
  H   H2103     1.0  0.62882  0.87582  0.63827  1.0000
  C   C1224     1.0  0.65866  0.68825  0.67919  1.0000
  C   C1225     1.0  0.64069  0.86257  0.64057  1.0000
  H   H2104     1.0  0.45595  0.66236  0.71279  1.0000
  C   C1226     1.0  0.34254  0.76569  0.70103  1.0000
  C   C1227     1.0  0.62339  0.80852  0.63931  1.0000
  H   H2105     1.0  0.47304  0.72401  0.72809  1.0000
  H   H2106     1.0  0.33820  0.75298  0.69861  1.0000
  H   H2107     1.0  0.49870  0.82336  0.71756  1.0000
  S   S342      1.0  0.59164  0.79605  0.73200  1.0000
  H   H2108     1.0  0.33562  0.76771  0.71614  1.0000
  C   C1228     1.0  0.64871  0.70405  0.66380  1.0000
  H   H2109     1.0  0.44920  0.75295  0.71516  1.0000
  H   H2110     1.0  0.62086  0.79599  0.63473  1.0000
  C   C1229     1.0  0.56229  0.86548  0.72920  1.0000
  H   H2111     1.0  0.51005  0.88230  0.72441  1.0000
  H   H2112     1.0  0.65851  0.75963  0.68239  1.0000
  H   H2113     1.0  0.62180  0.84362  0.64370  1.0000
  H   H2114     1.0  0.54203  0.71867  0.72820  1.0000
  S   S343      1.0  0.40724  0.76517  0.72781  1.0000
  C   C1230     1.0  0.33124  0.84892  0.53252  1.0000
  H   H2115     1.0  0.65384  0.79825  0.62892  1.0000
  C   C1231     1.0  0.34583  0.78066  0.49239  1.0000
  H   H2116     1.0  0.41918  0.67473  0.72524  1.0000
  H   H2117     1.0  0.44827  0.63460  0.72998  1.0000
  C   C1232     1.0  0.34449  0.76618  0.48340  1.0000
  H   H2118     1.0  0.34497  0.79564  0.48434  1.0000
  C   C1233     1.0  0.65400  0.81806  0.65557  1.0000
  H   H2119     1.0  0.32949  0.86175  0.50261  1.0000
  H   H2120     1.0  0.44336  0.88309  0.72849  1.0000
  H   H2121     1.0  0.65457  0.86678  0.63202  1.0000
  H   H2122     1.0  0.65829  0.71416  0.65473  1.0000
  S   S344      1.0  0.54043  0.90249  0.73220  1.0000
  H   H2123     1.0  0.65907  0.80183  0.65749  1.0000
  H   H2124     1.0  0.32690  0.94388  0.59294  1.0000
  H   H2125     1.0  0.32866  0.48945  0.66743  1.0000
  Fe  Fe171     1.0  0.32698  0.81206  0.58622  1.0000
  Fe  Fe172     1.0  0.49063  0.87180  0.78427  1.0000
  S   S345      1.0  0.52314  0.86061  0.77749  1.0000
  S   S346      1.0  0.47484  0.84860  0.78405  1.0000
  Fe  Fe173     1.0  0.49541  0.90923  0.79446  1.0000
  S   S347      1.0  0.52812  0.90000  0.78857  1.0000
  S   S348      1.0  0.48058  0.93764  0.80517  1.0000
  Fe  Fe174     1.0  0.52431  0.89162  0.76229  1.0000
  C   C1234     1.0  0.63306  0.53231  0.82622  1.0000
  Fe  Fe175     1.0  0.52315  0.87008  0.80460  1.0000
  S   S349      1.0  0.54025  0.84974  0.82683  1.0000
  S   S350      1.0  0.49168  0.90243  0.76713  1.0000
  S   S351      1.0  0.49053  0.87965  0.81233  1.0000
  H   H2126     1.0  0.40806  0.76233  0.76929  1.0000
  H   H2127     1.0  0.36625  0.63571  0.87792  1.0000
  C   C1235     1.0  0.39929  0.75109  0.80998  1.0000
  C   C1236     1.0  0.64829  0.69614  0.75933  1.0000
  Fe  Fe176     1.0  0.45688  0.68139  0.79276  1.0000
  S   S352      1.0  0.42700  0.69452  0.80787  1.0000
  S   S353      1.0  0.46827  0.69181  0.76078  1.0000
  Fe  Fe177     1.0  0.46714  0.65581  0.83054  1.0000
  S   S354      1.0  0.43778  0.66676  0.84853  1.0000
  S   S355      1.0  0.49131  0.63624  0.84501  1.0000
  Fe  Fe178     1.0  0.42601  0.66344  0.82376  1.0000
  S   S356      1.0  0.39832  0.65293  0.82575  1.0000
  Fe  Fe179     1.0  0.44190  0.69645  0.83067  1.0000
  S   S357      1.0  0.43927  0.72531  0.83904  1.0000
  S   S358      1.0  0.45527  0.65021  0.80722  1.0000
  S   S359      1.0  0.47188  0.68553  0.81428  1.0000
  Fe  Fe180     1.0  0.59118  0.64180  0.79628  1.0000
  S   S360      1.0  0.58256  0.64862  0.82610  1.0000
  S   S361      1.0  0.57246  0.62832  0.78547  1.0000
  Fe  Fe181     1.0  0.62533  0.66227  0.78467  1.0000
  S   S362      1.0  0.61934  0.67129  0.81330  1.0000
  H   H2128     1.0  0.38480  0.61478  0.87361  1.0000
  Fe  Fe182     1.0  0.61486  0.64058  0.82560  1.0000
  H   H2129     1.0  0.40178  0.80674  0.76028  1.0000
  Fe  Fe183     1.0  0.58784  0.67847  0.81081  1.0000
  S   S363      1.0  0.56487  0.70538  0.81629  1.0000
  S   S364      1.0  0.62312  0.63093  0.79702  1.0000
  S   S365      1.0  0.59427  0.67225  0.78089  1.0000
  Fe  Fe184     1.0  0.48512  0.73859  0.92012  1.0000
  S   S366      1.0  0.50194  0.75642  0.89462  1.0000
  S   S367      1.0  0.46723  0.71850  0.91712  1.0000
  Fe  Fe185     1.0  0.50317  0.74840  0.94977  1.0000
  S   S368      1.0  0.52157  0.76693  0.92633  1.0000
  Fe  Fe186     1.0  0.49454  0.77849  0.91353  1.0000
  S   S369      1.0  0.48441  0.81036  0.90056  1.0000
  Fe  Fe187     1.0  0.52751  0.74322  0.90944  1.0000
  S   S370      1.0  0.55820  0.72956  0.89581  1.0000
  S   S371      1.0  0.47536  0.76173  0.93831  1.0000
  S   S372      1.0  0.51127  0.72376  0.93366  1.0000
  Fe  Fe188     1.0  0.37182  0.56751  0.79624  1.0000
  H   H2130     1.0  0.44978  0.82052  0.74331  1.0000
  S   S373      1.0  0.39897  0.58013  0.79111  1.0000
  H   H2131     1.0  0.56299  0.77501  0.84490  1.0000
  C   C1237     1.0  0.39635  0.79328  0.76852  1.0000
  S   S374      1.0  0.36752  0.54204  0.82122  1.0000
  H   H2132     1.0  0.52505  0.66779  0.90564  1.0000
  H   H2133     1.0  0.38938  0.75063  0.82454  1.0000
  S   S375      1.0  0.36603  0.55261  0.77501  1.0000
  H   H2134     1.0  0.46703  0.62474  0.76505  1.0000
  H   H2135     1.0  0.52400  0.69278  0.90513  1.0000
  H   H2136     1.0  0.58200  0.79038  0.77864  1.0000
  H   H2137     1.0  0.50245  0.68331  0.91495  1.0000
  C   C1238     1.0  0.56311  0.71113  0.83879  1.0000
  C   C1239     1.0  0.57826  0.70347  0.84914  1.0000
  C   C1240     1.0  0.57674  0.70911  0.86672  1.0000
  C   C1241     1.0  0.55986  0.72197  0.87418  1.0000
  C   C1242     1.0  0.54461  0.72913  0.86398  1.0000
  C   C1243     1.0  0.54630  0.72397  0.84622  1.0000
  H   H2138     1.0  0.59129  0.69349  0.84348  1.0000
  H   H2139     1.0  0.58861  0.70345  0.87456  1.0000
  H   H2140     1.0  0.53172  0.73902  0.86958  1.0000
  H   H2141     1.0  0.53456  0.72988  0.83825  1.0000
  H   H2142     1.0  0.54522  0.72708  0.77151  1.0000
  H   H2143     1.0  0.41850  0.80130  0.80945  1.0000
  C   C1244     1.0  0.39907  0.63318  0.81513  1.0000
  C   C1245     1.0  0.38191  0.63149  0.81053  1.0000
  C   C1246     1.0  0.38178  0.61549  0.80284  1.0000
  C   C1247     1.0  0.39870  0.60082  0.80007  1.0000
  C   C1248     1.0  0.41596  0.60276  0.80424  1.0000
  C   C1249     1.0  0.41616  0.61884  0.81175  1.0000
  H   H2144     1.0  0.36866  0.64261  0.81289  1.0000
  H   H2145     1.0  0.36857  0.61445  0.79910  1.0000
  H   H2146     1.0  0.42917  0.59155  0.80200  1.0000
  H   H2147     1.0  0.42942  0.61986  0.81538  1.0000
  C   C1250     1.0  0.44729  0.72340  0.86060  1.0000
  C   C1251     1.0  0.44693  0.70655  0.87533  1.0000
  C   C1252     1.0  0.45266  0.70551  0.89272  1.0000
  C   C1253     1.0  0.45943  0.72101  0.89529  1.0000
  C   C1254     1.0  0.46021  0.73774  0.88039  1.0000
  C   C1255     1.0  0.45381  0.73906  0.86322  1.0000
  H   H2148     1.0  0.44175  0.69449  0.87355  1.0000
  H   H2149     1.0  0.45187  0.69262  0.90426  1.0000
  H   H2150     1.0  0.46525  0.74980  0.88233  1.0000
  H   H2151     1.0  0.45382  0.75223  0.85200  1.0000
  C   C1256     1.0  0.51369  0.63289  0.82832  1.0000
  C   C1257     1.0  0.53118  0.62580  0.83518  1.0000
  C   C1258     1.0  0.54924  0.62397  0.82202  1.0000
  C   C1259     1.0  0.54986  0.62882  0.80195  1.0000
  C   C1260     1.0  0.53234  0.63505  0.79507  1.0000
  C   C1261     1.0  0.51425  0.63749  0.80823  1.0000
  H   H2152     1.0  0.53082  0.62185  0.85068  1.0000
  H   H2153     1.0  0.56270  0.61848  0.82742  1.0000
  H   H2154     1.0  0.53277  0.63844  0.77958  1.0000
  H   H2155     1.0  0.50077  0.64278  0.80285  1.0000
  H   H2156     1.0  0.63760  0.51724  0.83466  1.0000
  H   H2157     1.0  0.35398  0.50352  0.84697  1.0000
  C   C1262     1.0  0.34797  0.59687  0.84770  1.0000
  C   C1263     1.0  0.45115  0.71116  0.75026  1.0000
  C   C1264     1.0  0.43108  0.71283  0.75798  1.0000
  C   C1265     1.0  0.41753  0.72907  0.75052  1.0000
  H   H2158     1.0  0.55074  0.77201  0.80548  1.0000
  H   H2159     1.0  0.41598  0.61511  0.75800  1.0000
  H   H2160     1.0  0.42592  0.70147  0.76950  1.0000
  H   H2161     1.0  0.40205  0.73046  0.75683  1.0000
  C   C1266     1.0  0.52533  0.83894  0.84799  1.0000
  C   C1267     1.0  0.50665  0.84933  0.85499  1.0000
  C   C1268     1.0  0.49447  0.84054  0.87142  1.0000
  C   C1269     1.0  0.50073  0.82115  0.88082  1.0000
  C   C1270     1.0  0.51953  0.81071  0.87401  1.0000
  C   C1271     1.0  0.53191  0.81970  0.85772  1.0000
  H   H2162     1.0  0.50163  0.86424  0.84787  1.0000
  H   H2163     1.0  0.47999  0.84868  0.87670  1.0000
  H   H2164     1.0  0.52449  0.79575  0.88129  1.0000
  H   H2165     1.0  0.54641  0.81163  0.85245  1.0000
  C   C1272     1.0  0.49448  0.95286  0.80871  1.0000
  C   C1273     1.0  0.51465  0.95065  0.80115  1.0000
  C   C1274     1.0  0.52544  0.96211  0.80542  1.0000
  S   S376      1.0  0.34085  0.58431  0.80352  1.0000
  C   C1275     1.0  0.59031  0.72681  0.95867  1.0000
  C   C1276     1.0  0.48510  0.96726  0.81985  1.0000
  H   H2166     1.0  0.52205  0.93988  0.79230  1.0000
  H   H2167     1.0  0.54118  0.95962  0.80029  1.0000
  H   H2168     1.0  0.38612  0.79090  0.76065  1.0000
  H   H2169     1.0  0.46954  0.96901  0.82587  1.0000
  C   C1277     1.0  0.42986  0.67208  0.73480  1.0000
  C   C1278     1.0  0.46421  0.85018  0.76429  1.0000
  C   C1279     1.0  0.46126  0.83296  0.76096  1.0000
  C   C1280     1.0  0.45202  0.83377  0.74585  1.0000
  H   H2170     1.0  0.43898  0.61276  0.76488  1.0000
  C   C1281     1.0  0.38561  0.56844  0.84823  1.0000
  H   H2171     1.0  0.61295  0.73790  0.75967  1.0000
  H   H2172     1.0  0.46615  0.81896  0.77007  1.0000
  H   H2173     1.0  0.53672  0.67322  0.79184  1.0000
  H   H2174     1.0  0.52623  0.67095  0.75920  1.0000
  H   H2175     1.0  0.56490  0.75659  0.97415  1.0000
  N   N90       1.0  0.52077  0.90113  0.86108  1.0000
  C   C1282     1.0  0.53309  0.88147  0.86853  1.0000
  C   C1283     1.0  0.52608  0.90494  0.83910  1.0000
  C   C1284     1.0  0.49935  0.89998  0.86818  1.0000
  C   C1285     1.0  0.52531  0.91635  0.86913  1.0000
  C   C1286     1.0  0.52839  0.87354  0.89078  1.0000
  C   C1287     1.0  0.54767  0.90585  0.82982  1.0000
  C   C1288     1.0  0.48491  0.91239  0.85496  1.0000
  C   C1289     1.0  0.51648  0.93788  0.86107  1.0000
  H   H2176     1.0  0.53179  0.87009  0.86137  1.0000
  H   H2177     1.0  0.54893  0.88188  0.86478  1.0000
  H   H2178     1.0  0.51720  0.91896  0.83251  1.0000
  H   H2179     1.0  0.52258  0.89339  0.83370  1.0000
  H   H2180     1.0  0.49749  0.88470  0.87028  1.0000
  H   H2181     1.0  0.49355  0.90379  0.88283  1.0000
  H   H2182     1.0  0.52011  0.91402  0.88522  1.0000
  H   H2183     1.0  0.54143  0.91498  0.86668  1.0000
  H   H2184     1.0  0.53790  0.85875  0.89418  1.0000
  H   H2185     1.0  0.53162  0.88289  0.89900  1.0000
  H   H2186     1.0  0.51304  0.87167  0.89624  1.0000
  H   H2187     1.0  0.54918  0.91060  0.81377  1.0000
  H   H2188     1.0  0.55265  0.91676  0.83462  1.0000
  H   H2189     1.0  0.55758  0.89122  0.83247  1.0000
  H   H2190     1.0  0.48579  0.92802  0.85034  1.0000
  H   H2191     1.0  0.46966  0.91180  0.86294  1.0000
  H   H2192     1.0  0.48723  0.90629  0.84177  1.0000
  H   H2193     1.0  0.52172  0.94207  0.84517  1.0000
  H   H2194     1.0  0.52133  0.94755  0.86773  1.0000
  H   H2195     1.0  0.50028  0.94114  0.86477  1.0000
  N   N91       1.0  0.42395  0.77098  0.78633  1.0000
  C   C1290     1.0  0.43922  0.75217  0.78505  1.0000
  C   C1291     1.0  0.41038  0.76774  0.80597  1.0000
  H   H2196     1.0  0.51588  0.82295  0.76398  1.0000
  C   C1292     1.0  0.41343  0.77525  0.76977  1.0000
  C   C1293     1.0  0.45715  0.75335  0.76804  1.0000
  H   H2197     1.0  0.44514  0.74649  0.79868  1.0000
  H   H2198     1.0  0.43269  0.74036  0.78365  1.0000
  C   C1294     1.0  0.35158  0.58275  0.88148  1.0000
  H   H2199     1.0  0.39003  0.75346  0.79919  1.0000
  H   H2200     1.0  0.44075  0.79271  0.76904  1.0000
  H   H2201     1.0  0.42376  0.77770  0.75555  1.0000
  H   H2202     1.0  0.46615  0.73829  0.76790  1.0000
  H   H2203     1.0  0.45300  0.75905  0.75365  1.0000
  H   H2204     1.0  0.46670  0.76228  0.76980  1.0000
  H   H2205     1.0  0.40899  0.81243  0.78741  1.0000
  H   H2206     1.0  0.38726  0.79566  0.78282  1.0000
  N   N92       1.0  0.48668  0.80306  0.82969  1.0000
  C   C1295     1.0  0.46592  0.81447  0.83503  1.0000
  C   C1296     1.0  0.48754  0.79474  0.81234  1.0000
  C   C1297     1.0  0.50012  0.81730  0.82421  1.0000
  C   C1298     1.0  0.49119  0.78744  0.84725  1.0000
  C   C1299     1.0  0.46217  0.82683  0.85062  1.0000
  C   C1300     1.0  0.47539  0.77898  0.81628  1.0000
  C   C1301     1.0  0.52148  0.81040  0.81397  1.0000
  C   C1302     1.0  0.50978  0.77112  0.84403  1.0000
  H   H2207     1.0  0.46112  0.82479  0.82194  1.0000
  H   H2208     1.0  0.45542  0.80451  0.84064  1.0000
  H   H2209     1.0  0.50262  0.78801  0.80584  1.0000
  H   H2210     1.0  0.48269  0.80673  0.80029  1.0000
  H   H2211     1.0  0.49408  0.83105  0.81454  1.0000
  H   H2212     1.0  0.50099  0.82185  0.83737  1.0000
  H   H2213     1.0  0.49269  0.79416  0.85885  1.0000
  H   H2214     1.0  0.47862  0.78009  0.85432  1.0000
  H   H2215     1.0  0.46634  0.81791  0.86443  1.0000
  H   H2216     1.0  0.46969  0.83934  0.84519  1.0000
  H   H2217     1.0  0.44624  0.83330  0.85416  1.0000
  H   H2218     1.0  0.45944  0.78499  0.82025  1.0000
  H   H2219     1.0  0.47797  0.77334  0.80277  1.0000
  H   H2220     1.0  0.47992  0.76621  0.82771  1.0000
  H   H2221     1.0  0.52958  0.79795  0.82329  1.0000
  H   H2222     1.0  0.52922  0.82255  0.81106  1.0000
  H   H2223     1.0  0.52263  0.80733  0.79948  1.0000
  H   H2224     1.0  0.52121  0.77298  0.85074  1.0000
  H   H2225     1.0  0.51641  0.77017  0.82874  1.0000
  H   H2226     1.0  0.50608  0.75662  0.85128  1.0000
  H   H2227     1.0  0.37294  0.55783  0.89385  1.0000
  C   C1303     1.0  0.53841  0.67494  0.74718  1.0000
  C   C1304     1.0  0.63225  0.57180  0.83537  1.0000
  H   H2228     1.0  0.60602  0.58895  0.81062  1.0000
  H   H2229     1.0  0.56209  0.76112  0.93140  1.0000
  H   H2230     1.0  0.50823  0.70735  0.73975  1.0000
  C   C1305     1.0  0.63860  0.56152  0.85494  1.0000
  H   H2231     1.0  0.36277  0.50528  0.76598  1.0000
  H   H2232     1.0  0.58180  0.70550  0.74636  1.0000
  H   H2233     1.0  0.50817  0.77975  0.74254  1.0000
  C   C1306     1.0  0.65039  0.54272  0.82052  1.0000
  H   H2234     1.0  0.62520  0.78446  0.78144  1.0000
  H   H2235     1.0  0.35406  0.60543  0.83338  1.0000
  H   H2236     1.0  0.57741  0.74128  0.81134  1.0000
  Fe  Fe189     1.0  0.35873  0.52870  0.80093  1.0000
  H   H2237     1.0  0.46958  0.64148  0.74163  1.0000
  Fe  Fe190     1.0  0.33620  0.55773  0.82694  1.0000
  S   S377      1.0  0.65084  0.67084  0.76212  1.0000
  C   C1307     1.0  0.44537  0.85187  0.73422  1.0000
  C   C1308     1.0  0.49586  0.97881  0.82400  1.0000
  H   H2238     1.0  0.65632  0.59063  0.86854  1.0000
  H   H2239     1.0  0.59505  0.73431  0.94333  1.0000
  H   H2240     1.0  0.63700  0.54603  0.85924  1.0000
  C   C1309     1.0  0.55315  0.71360  0.76571  1.0000
  S   S378      1.0  0.53044  0.98665  0.82622  1.0000
  H   H2241     1.0  0.61703  0.56997  0.83764  1.0000
  C   C1310     1.0  0.61038  0.79314  0.77968  1.0000
  H   H2242     1.0  0.60819  0.56342  0.81021  1.0000
  H   H2243     1.0  0.54733  0.69884  0.96476  1.0000
  N   N93       1.0  0.51385  0.67525  0.87027  1.0000
  C   C1311     1.0  0.50097  0.68315  0.85529  1.0000
  C   C1312     1.0  0.50922  0.65571  0.88149  1.0000
  C   C1313     1.0  0.53483  0.67187  0.85932  1.0000
  C   C1314     1.0  0.51000  0.69004  0.88292  1.0000
  C   C1315     1.0  0.50218  0.70384  0.84273  1.0000
  C   C1316     1.0  0.48820  0.65635  0.89368  1.0000
  C   C1317     1.0  0.55078  0.66532  0.87164  1.0000
  C   C1318     1.0  0.51578  0.68265  0.90314  1.0000
  H   H2244     1.0  0.50406  0.67288  0.84519  1.0000
  H   H2245     1.0  0.48525  0.68428  0.86236  1.0000
  H   H2246     1.0  0.51936  0.64782  0.89147  1.0000
  H   H2247     1.0  0.51158  0.64569  0.87134  1.0000
  H   H2248     1.0  0.53747  0.66084  0.85012  1.0000
  H   H2249     1.0  0.53811  0.68541  0.84905  1.0000
  H   H2250     1.0  0.51740  0.70238  0.87499  1.0000
  H   H2251     1.0  0.49413  0.69684  0.88579  1.0000
  H   H2252     1.0  0.49124  0.70813  0.83323  1.0000
  H   H2253     1.0  0.49830  0.71514  0.85172  1.0000
  H   H2254     1.0  0.51665  0.70435  0.83292  1.0000
  H   H2255     1.0  0.47744  0.65881  0.88432  1.0000
  H   H2256     1.0  0.48754  0.64186  0.90359  1.0000
  H   H2257     1.0  0.48357  0.66752  0.90285  1.0000
  H   H2258     1.0  0.54987  0.65122  0.88210  1.0000
  H   H2259     1.0  0.55071  0.67691  0.87915  1.0000
  H   H2260     1.0  0.56539  0.66302  0.86182  1.0000
  H   H2261     1.0  0.59596  0.69499  0.97255  1.0000
  H   H2262     1.0  0.39695  0.68628  0.76202  1.0000
  H   H2263     1.0  0.43147  0.81634  0.78965  1.0000
  H   H2264     1.0  0.32762  0.51978  0.74314  1.0000
  N   N94       1.0  0.53925  0.70544  0.75916  1.0000
  H   H2265     1.0  0.43669  0.64066  0.77780  1.0000
  H   H2266     1.0  0.40938  0.73652  0.81064  1.0000
  C   C1319     1.0  0.46403  0.64037  0.75745  1.0000
  S   S379      1.0  0.62791  0.62115  0.85062  1.0000
  H   H2267     1.0  0.60873  0.72251  0.81037  1.0000
  H   H2268     1.0  0.44172  0.66433  0.76735  1.0000
  C   C1320     1.0  0.62742  0.72859  0.75831  1.0000
  C   C1321     1.0  0.44219  0.65012  0.76373  1.0000
  C   C1322     1.0  0.39976  0.67181  0.77202  1.0000
  H   H2269     1.0  0.40930  0.67199  0.78173  1.0000
  C   C1323     1.0  0.61237  0.73264  0.81747  1.0000
  H   H2270     1.0  0.54813  0.66094  0.74390  1.0000
  C   C1324     1.0  0.57986  0.75295  0.79830  1.0000
  C   C1325     1.0  0.42236  0.80518  0.79329  1.0000
  N   N95       1.0  0.42893  0.65319  0.74966  1.0000
  H   H2271     1.0  0.40645  0.64123  0.77223  1.0000
  H   H2272     1.0  0.60948  0.58163  0.78820  1.0000
  H   H2273     1.0  0.38538  0.66985  0.78155  1.0000
  C   C1326     1.0  0.57558  0.76549  0.83698  1.0000
  C   C1327     1.0  0.40802  0.65477  0.76096  1.0000
  H   H2274     1.0  0.51458  0.71635  0.78057  1.0000
  H   H2275     1.0  0.56990  0.75275  0.83703  1.0000
  H   H2276     1.0  0.53232  0.81045  0.74602  1.0000
  C   C1328     1.0  0.35673  0.61653  0.86542  1.0000
  H   H2277     1.0  0.60251  0.73308  0.83184  1.0000
  H   H2278     1.0  0.62745  0.72608  0.82011  1.0000
  C   C1329     1.0  0.61213  0.75315  0.80410  1.0000
  C   C1330     1.0  0.43156  0.61621  0.75244  1.0000
  H   H2279     1.0  0.39786  0.65608  0.75122  1.0000
  H   H2280     1.0  0.57881  0.72669  0.75597  1.0000
  C   C1331     1.0  0.65321  0.61297  0.84265  1.0000
  N   N96       1.0  0.59242  0.76559  0.80058  1.0000
  H   H2281     1.0  0.37655  0.58118  0.89554  1.0000
  H   H2282     1.0  0.60483  0.80330  0.78996  1.0000
  H   H2283     1.0  0.47323  0.64750  0.76241  1.0000
  H   H2284     1.0  0.46028  0.88154  0.75485  1.0000
  C   C1332     1.0  0.63615  0.57384  0.79975  1.0000
  H   H2285     1.0  0.61970  0.76104  0.81022  1.0000
  S   S380      1.0  0.32700  0.54290  0.80832  1.0000
  H   H2286     1.0  0.44692  0.78140  0.79214  1.0000
  C   C1333     1.0  0.51929  0.84134  0.73493  1.0000
  H   H2287     1.0  0.39902  0.78107  0.80840  1.0000
  C   C1334     1.0  0.44848  0.86906  0.73747  1.0000
  H   H2288     1.0  0.55679  0.86105  0.74463  1.0000
  H   H2289     1.0  0.41874  0.76446  0.81781  1.0000
  C   C1335     1.0  0.58260  0.77712  0.81641  1.0000
  H   H2290     1.0  0.40169  0.56252  0.84596  1.0000
  H   H2291     1.0  0.50599  0.81528  0.74776  1.0000
  N   N97       1.0  0.35947  0.59584  0.86278  1.0000
  H   H2292     1.0  0.38636  0.59903  0.84184  1.0000
  C   C1336     1.0  0.55940  0.76364  0.79416  1.0000
  H   H2293     1.0  0.42559  0.68481  0.74200  1.0000
  C   C1337     1.0  0.43434  0.78718  0.78459  1.0000
  H   H2294     1.0  0.39032  0.58653  0.86499  1.0000
  H   H2295     1.0  0.59275  0.78537  0.81831  1.0000
  C   C1338     1.0  0.42405  0.74379  0.73537  1.0000
  H   H2296     1.0  0.58744  0.76055  0.84545  1.0000
  H   H2297     1.0  0.57006  0.78896  0.81222  1.0000
  C   C1339     1.0  0.55043  0.68658  0.75275  1.0000
  H   H2298     1.0  0.61221  0.80240  0.76474  1.0000
  H   H2299     1.0  0.62021  0.53935  0.83599  1.0000
  C   C1340     1.0  0.55939  0.70246  0.95232  1.0000
  H   H2300     1.0  0.63081  0.58790  0.83354  1.0000
  S   S381      1.0  0.64101  0.76238  0.74739  1.0000
  C   C1341     1.0  0.45811  0.86820  0.75232  1.0000
  H   H2301     1.0  0.47223  0.98442  0.76393  1.0000
  N   N98       1.0  0.56829  0.72982  0.96391  1.0000
  C   C1342     1.0  0.64394  0.73687  0.75293  1.0000
  N   N99       1.0  0.64530  0.56477  0.81750  1.0000
  H   H2302     1.0  0.35666  0.57114  0.91100  1.0000
  C   C1343     1.0  0.43339  0.63646  0.73923  1.0000
  H   H2303     1.0  0.34737  0.57039  0.87806  1.0000
  C   C1344     1.0  0.56511  0.76543  0.94374  1.0000
  H   H2304     1.0  0.37827  0.55736  0.85913  1.0000
  H   H2305     1.0  0.62854  0.53129  0.81304  1.0000
  H   H2306     1.0  0.60373  0.70045  0.94628  1.0000
  H   H2307     1.0  0.55125  0.75249  0.79436  1.0000
  C   C1345     1.0  0.59589  0.78007  0.78152  1.0000
  H   H2308     1.0  0.61674  0.70198  0.76588  1.0000
  H   H2309     1.0  0.59592  0.73417  0.96719  1.0000
  C   C1346     1.0  0.35951  0.49091  0.77242  1.0000
  H   H2310     1.0  0.51447  0.68481  0.80534  1.0000
  H   H2311     1.0  0.60146  0.77221  0.76919  1.0000
  H   H2312     1.0  0.33350  0.50055  0.87983  1.0000
  H   H2313     1.0  0.55808  0.67652  0.76423  1.0000
  C   C1347     1.0  0.57108  0.71883  0.75004  1.0000
  H   H2314     1.0  0.65376  0.56196  0.85496  1.0000
  H   H2315     1.0  0.65952  0.53797  0.80699  1.0000
  H   H2316     1.0  0.56226  0.68940  0.73977  1.0000
  C   C1348     1.0  0.38081  0.58822  0.85465  1.0000
  H   H2317     1.0  0.64276  0.56505  0.78821  1.0000
  C   C1349     1.0  0.51613  0.97621  0.81692  1.0000
  H   H2318     1.0  0.62891  0.56918  0.86653  1.0000
  H   H2319     1.0  0.50708  0.85203  0.74189  1.0000
  C   C1350     1.0  0.52804  0.68765  0.79476  1.0000
  H   H2320     1.0  0.57329  0.69207  0.95455  1.0000
  H   H2321     1.0  0.38152  0.57050  0.83400  1.0000
  H   H2322     1.0  0.58065  0.76668  0.94053  1.0000
  H   H2323     1.0  0.36387  0.61292  0.89405  1.0000
  H   H2324     1.0  0.56944  0.72795  0.93412  1.0000
  H   H2325     1.0  0.55600  0.78036  0.94456  1.0000
  H   H2326     1.0  0.62205  0.75034  0.79008  1.0000
  C   C1351     1.0  0.51829  0.82122  0.74871  1.0000
  H   H2327     1.0  0.58757  0.74487  0.78638  1.0000
  C   C1352     1.0  0.62958  0.70823  0.76182  1.0000
  H   H2328     1.0  0.53597  0.69374  0.80217  1.0000
  C   C1353     1.0  0.36553  0.57295  0.89592  1.0000
  H   H2329     1.0  0.33787  0.59091  0.88950  1.0000
  H   H2330     1.0  0.61695  0.70478  0.96221  1.0000
  H   H2331     1.0  0.54538  0.73254  0.94835  1.0000
  H   H2332     1.0  0.55928  0.70307  0.77789  1.0000
  H   H2333     1.0  0.56025  0.77330  0.77945  1.0000
  C   C1354     1.0  0.52251  0.70214  0.77624  1.0000
  H   H2334     1.0  0.63931  0.58870  0.79298  1.0000
  C   C1355     1.0  0.36879  0.61969  0.87858  1.0000
  H   H2335     1.0  0.51134  0.69662  0.77236  1.0000
  H   H2336     1.0  0.36028  0.62647  0.85099  1.0000
  H   H2337     1.0  0.34118  0.62243  0.87174  1.0000
  C   C1356     1.0  0.61369  0.57690  0.80267  1.0000
  Fe  Fe191     1.0  0.33462  0.56781  0.78407  1.0000
  S   S382      1.0  0.50700  0.73790  0.98123  1.0000
  H   H2338     1.0  0.34915  0.58202  0.84517  1.0000
  C   C1357     1.0  0.55991  0.75141  0.96347  1.0000
  C   C1358     1.0  0.56061  0.72412  0.94907  1.0000
  C   C1359     1.0  0.45757  0.72534  0.73437  1.0000
  H   H2339     1.0  0.49981  0.72807  0.75148  1.0000
  C   C1360     1.0  0.60211  0.70550  0.95995  1.0000
  H   H2340     1.0  0.50013  0.78043  0.97751  1.0000
  H   H2341     1.0  0.55577  0.70016  0.93919  1.0000
  H   H2342     1.0  0.33474  0.54374  0.75791  1.0000
  H   H2343     1.0  0.54361  0.75422  0.96781  1.0000
  H   H2344     1.0  0.56700  0.72868  0.73655  1.0000
  H   H2345     1.0  0.43843  0.60458  0.74381  1.0000
  S   S383      1.0  0.36589  0.49545  0.80673  1.0000
  H   H2346     1.0  0.53303  0.84517  0.73556  1.0000
  H   H2347     1.0  0.65502  0.63401  0.81541  1.0000
  S   S384      1.0  0.55009  0.77064  0.73780  1.0000
  C   C1361     1.0  0.53188  0.72055  0.74235  1.0000
  C   C1362     1.0  0.51098  0.72167  0.73986  1.0000
  H   H2348     1.0  0.53159  0.73564  0.74371  1.0000
  H   H2349     1.0  0.53273  0.68300  0.73388  1.0000
  H   H2350     1.0  0.71126  0.43822  0.21710  1.0000
  H   H2351     1.0  0.81969  0.39510  0.02808  1.0000
  C   C1363     1.0  0.83897  0.44817  0.00342  1.0000
  H   H2352     1.0  0.91200  0.36355  0.14617  1.0000
  C   C1364     1.0  0.87272  0.42674  0.22651  1.0000
  H   H2353     1.0  0.79733  0.38639  0.08158  1.0000
  H   H2354     1.0  0.88845  0.41909  0.18409  1.0000
  C   C1365     1.0  0.78853  0.41418  0.20871  1.0000
  C   C1366     1.0  0.68124  0.44574  0.23185  1.0000
  H   H2355     1.0  0.79230  0.43557  0.14884  1.0000
  C   C1367     1.0  0.89365  0.40902  0.17363  1.0000
  C   C1368     1.0  0.89080  0.43137  0.22504  1.0000
  S   S385      1.0  0.75822  0.36436  0.21323  1.0000
  C   C1369     1.0  0.77227  0.42035  0.07069  1.0000
  H   H2356     1.0  0.86748  0.39435  0.20895  1.0000
  Fe  Fe192     1.0  0.69340  0.36759  0.19680  1.0000
  S   S386      1.0  0.72420  0.36605  0.17936  1.0000
  H   H2357     1.0  0.93284  0.39664  0.16236  1.0000
  H   H2358     1.0  0.67371  0.46818  0.19441  1.0000
  S   S387      1.0  0.72207  0.40822  0.19075  1.0000
  H   H2359     1.0  0.83229  0.46366  0.00089  1.0000
  Fe  Fe193     1.0  0.71416  0.39822  0.16765  1.0000
  S   S388      1.0  0.72567  0.41515  0.13805  1.0000
  Fe  Fe194     1.0  0.72966  0.37635  0.20358  1.0000
  S   S389      1.0  0.68260  0.39909  0.18288  1.0000
  H   H2360     1.0  0.77478  0.40829  0.04030  1.0000
  N   N100      1.0  0.90622  0.38999  0.18226  1.0000
  Fe  Fe195     1.0  0.85073  0.44238  0.06726  1.0000
  S   S390      1.0  0.86233  0.41098  0.08072  1.0000
  S   S391      1.0  0.84702  0.45449  0.03589  1.0000
  Fe  Fe196     1.0  0.84155  0.45571  0.10606  1.0000
  S   S392      1.0  0.85208  0.42539  0.12214  1.0000
  H   H2361     1.0  0.78216  0.44177  0.02725  1.0000
  Fe  Fe197     1.0  0.87718  0.42378  0.09686  1.0000
  S   S393      1.0  0.90662  0.41151  0.10553  1.0000
  Fe  Fe198     1.0  0.83605  0.41582  0.10491  1.0000
  S   S394      1.0  0.81845  0.39256  0.11981  1.0000
  S   S395      1.0  0.86775  0.45487  0.08144  1.0000
  S   S396      1.0  0.82341  0.44636  0.09061  1.0000
  H   H2362     1.0  0.67365  0.35702  0.16544  1.0000
  C   C1370     1.0  0.85579  0.40816  0.01003  1.0000
  C   C1371     1.0  0.85655  0.41968  0.02270  1.0000
  C   C1372     1.0  0.84788  0.43969  0.01959  1.0000
  C   C1373     1.0  0.78932  0.44683  0.03629  1.0000
  H   H2363     1.0  0.86232  0.39263  0.01267  1.0000
  H   H2364     1.0  0.86369  0.41306  0.03496  1.0000
  C   C1374     1.0  0.75144  0.40931  0.13347  1.0000
  C   C1375     1.0  0.76136  0.38999  0.13910  1.0000
  C   C1376     1.0  0.78189  0.38510  0.13480  1.0000
  C   C1377     1.0  0.79270  0.39956  0.12528  1.0000
  C   C1378     1.0  0.78280  0.41902  0.12000  1.0000
  C   C1379     1.0  0.76219  0.42385  0.12389  1.0000
  H   H2365     1.0  0.75322  0.37862  0.14620  1.0000
  H   H2366     1.0  0.78942  0.37002  0.13887  1.0000
  H   H2367     1.0  0.79096  0.43032  0.11276  1.0000
  H   H2368     1.0  0.75460  0.43885  0.11954  1.0000
  H   H2369     1.0  0.80549  0.43586  0.05940  1.0000
  C   C1380     1.0  0.91641  0.37409  0.15211  1.0000
  H   H2370     1.0  0.81672  0.41005  0.17809  1.0000
  C   C1381     1.0  0.70923  0.46446  0.17286  1.0000
  H   H2371     1.0  0.78819  0.38626  0.05232  1.0000
  C   C1382     1.0  0.66188  0.33559  0.15849  1.0000
  H   H2372     1.0  0.74442  0.43575  0.19771  1.0000
  C   C1383     1.0  0.66943  0.34297  0.17055  1.0000
  C   C1384     1.0  0.72114  0.31797  0.22541  1.0000
  H   H2373     1.0  0.91411  0.35891  0.18200  1.0000
  H   H2374     1.0  0.87191  0.48143  0.23063  1.0000
  H   H2375     1.0  0.79526  0.38084  0.19172  1.0000
  C   C1385     1.0  0.90663  0.45823  0.12675  1.0000
  C   C1386     1.0  0.90088  0.44539  0.11882  1.0000
  C   C1387     1.0  0.91297  0.42706  0.11701  1.0000
  C   C1388     1.0  0.93037  0.42125  0.12421  1.0000
  C   C1389     1.0  0.70092  0.44738  0.22642  1.0000
  H   H2376     1.0  0.88745  0.45005  0.11337  1.0000
  H   H2377     1.0  0.93994  0.40718  0.12262  1.0000
  H   H2378     1.0  0.67065  0.44706  0.17792  1.0000
  H   H2379     1.0  0.75438  0.44175  0.21544  1.0000
  C   C1390     1.0  0.87550  0.40771  0.16687  1.0000
  H   H2380     1.0  0.66704  0.30563  0.21018  1.0000
  H   H2381     1.0  0.91217  0.38887  0.14326  1.0000
  H   H2382     1.0  0.90983  0.37156  0.21043  1.0000
  H   H2383     1.0  0.66757  0.20091  0.22097  1.0000
  H   H2384     1.0  0.71103  0.33194  0.22802  1.0000
  H   H2385     1.0  0.78813  0.44130  0.21798  1.0000
  H   H2386     1.0  0.76246  0.43036  0.06103  1.0000
  H   H2387     1.0  0.66591  0.02945  0.18998  1.0000
  C   C1391     1.0  0.80453  0.40082  0.02578  1.0000
  C   C1392     1.0  0.79402  0.48008  0.12784  1.0000
  H   H2388     1.0  0.80235  0.39107  0.16599  1.0000
  C   C1393     1.0  0.76054  0.40488  0.08352  1.0000
  H   H2389     1.0  0.92902  0.40416  0.20306  1.0000
  C   C1394     1.0  0.93576  0.43387  0.13289  1.0000
  H   H2390     1.0  0.81569  0.42502  0.03896  1.0000
  H   H2391     1.0  0.81221  0.43514  0.17909  1.0000
  H   H2392     1.0  0.67750  0.00598  0.20320  1.0000
  C   C1395     1.0  0.84627  0.41654  0.99426  1.0000
  Fe  Fe199     1.0  0.69162  0.40680  0.20697  1.0000
  C   C1396     1.0  0.68013  0.44845  0.16315  1.0000
  H   H2393     1.0  0.76713  0.39630  0.09618  1.0000
  H   H2394     1.0  0.75037  0.30182  0.22611  1.0000
  H   H2395     1.0  0.87257  0.45830  0.17888  1.0000
  H   H2396     1.0  0.73662  0.46768  0.15150  1.0000
  H   H2397     1.0  0.76318  0.48270  0.12991  1.0000
  H   H2398     1.0  0.81498  0.41794  0.14600  1.0000
  C   C1397     1.0  0.80610  0.42430  0.17530  1.0000
  Fe  Fe200     1.0  0.96882  0.47053  0.19247  1.0000
  H   H2399     1.0  0.81483  0.44235  0.14670  1.0000
  H   H2400     1.0  0.89981  0.39661  0.21108  1.0000
  C   C1398     1.0  0.92402  0.45257  0.13384  1.0000
  H   H2401     1.0  0.79853  0.39947  0.20980  1.0000
  H   H2402     1.0  0.70537  0.45132  0.18369  1.0000
  H   H2403     1.0  0.76360  0.40656  0.19269  1.0000
  C   C1399     1.0  0.78908  0.40167  0.04493  1.0000
  C   C1400     1.0  0.89954  0.38475  0.20410  1.0000
  C   C1401     1.0  0.67107  0.33230  0.18934  1.0000
  H   H2404     1.0  0.67395  0.02815  0.21154  1.0000
  H   H2405     1.0  0.93695  0.37856  0.18362  1.0000
  S   S397      1.0  0.95897  0.44502  0.18811  1.0000
  H   H2406     1.0  0.74503  0.46056  0.19667  1.0000
  H   H2407     1.0  0.74558  0.41252  0.08971  1.0000
  H   H2408     1.0  0.82574  0.37829  0.05654  1.0000
  H   H2409     1.0  0.80159  0.39086  0.01798  1.0000
  C   C1402     1.0  0.75322  0.44513  0.19993  1.0000
  N   N101      1.0  0.78621  0.42289  0.18793  1.0000
  H   H2410     1.0  0.93262  0.37008  0.15023  1.0000
  S   S398      1.0  0.67843  0.34171  0.20587  1.0000
  C   C1403     1.0  0.68294  0.46960  0.15442  1.0000
  H   H2411     1.0  0.89789  0.47286  0.12666  1.0000
  H   H2412     1.0  0.89143  0.37080  0.17526  1.0000
  H   H2413     1.0  0.77134  0.41717  0.16798  1.0000
  Fe  Fe201     1.0  0.94001  0.46771  0.16922  1.0000
  S   S399      1.0  0.94513  0.47548  0.21885  1.0000
  H   H2414     1.0  0.86572  0.39921  0.17818  1.0000
  H   H2415     1.0  0.89686  0.44081  0.21207  1.0000
  H   H2416     1.0  0.84436  0.46968  0.22585  1.0000
  H   H2417     1.0  0.87634  0.36898  0.20590  1.0000
  H   H2418     1.0  0.94541  0.41096  0.18082  1.0000
  H   H2419     1.0  0.75886  0.39480  0.07514  1.0000
  C   C1404     1.0  0.80415  0.39895  0.07311  1.0000
  S   S400      1.0  0.93236  0.47048  0.14017  1.0000
  C   C1405     1.0  0.79686  0.42616  0.21821  1.0000
  H   H2420     1.0  0.73443  0.44270  0.16208  1.0000
  N   N102      1.0  0.79201  0.41249  0.05890  1.0000
  H   H2421     1.0  0.72151  0.45635  0.14372  1.0000
  C   C1406     1.0  0.78986  0.38971  0.17849  1.0000
  S   S401      1.0  0.69984  0.37551  0.22224  1.0000
  H   H2422     1.0  0.86480  0.43294  0.21478  1.0000
  C   C1407     1.0  0.87703  0.48789  0.16558  1.0000
  C   C1408     1.0  0.82532  0.38955  0.06460  1.0000
  C   C1409     1.0  0.77342  0.44326  0.18612  1.0000
  C   C1410     1.0  0.92706  0.39260  0.17830  1.0000
  C   C1411     1.0  0.90645  0.37290  0.17378  1.0000
  H   H2423     1.0  0.86676  0.42279  0.16285  1.0000
  C   C1412     1.0  0.93025  0.40864  0.18703  1.0000
  S   S402      1.0  0.91460  0.47176  0.19401  1.0000
  H   H2424     1.0  0.79904  0.45647  0.02636  1.0000
  C   C1413     1.0  0.77682  0.40981  0.18164  1.0000
  H   H2425     1.0  0.80375  0.41534  0.01571  1.0000
  H   H2426     1.0  0.81241  0.42653  0.21133  1.0000
  S   S403      1.0  0.67204  0.43043  0.22256  1.0000
  Fe  Fe202     1.0  0.93425  0.45154  0.21319  1.0000
  H   H2427     1.0  0.74813  0.32762  0.21988  1.0000
  H   H2428     1.0  0.77802  0.45604  0.04567  1.0000
  C   C1414     1.0  0.80158  0.42965  0.04868  1.0000
  H   H2429     1.0  0.72316  0.31827  0.20962  1.0000
  H   H2430     1.0  0.85023  0.47522  0.17520  1.0000
  C   C1415     1.0  0.87874  0.38073  0.21169  1.0000
  H   H2431     1.0  0.83392  0.40048  0.05556  1.0000
  H   H2432     1.0  0.90235  0.41719  0.16057  1.0000
  H   H2433     1.0  0.83287  0.38173  0.07688  1.0000
  H   H2434     1.0  0.77386  0.42933  0.08038  1.0000
  H   H2435     1.0  0.77046  0.44902  0.17115  1.0000
  H   H2436     1.0  0.78094  0.45396  0.18820  1.0000
  H   H2437     1.0  0.77436  0.41140  0.21830  1.0000
  C   C1416     1.0  0.80671  0.43036  0.15311  1.0000
  C   C1417     1.0  0.77408  0.48503  0.13637  1.0000
  H   H2438     1.0  0.94955  0.42963  0.13770  1.0000
  C   C1418     1.0  0.83798  0.43662  0.99093  1.0000
  C   C1419     1.0  0.66561  0.31406  0.19575  1.0000
  H   H2439     1.0  0.87972  0.40147  0.15355  1.0000
  H   H2440     1.0  0.86767  0.46650  0.15490  1.0000
  H   H2441     1.0  0.92020  0.42298  0.18333  1.0000
  H   H2442     1.0  0.72214  0.46263  0.22865  1.0000
  H   H2443     1.0  0.69437  0.43797  0.16367  1.0000
  H   H2444     1.0  0.80502  0.40698  0.08393  1.0000
  H   H2445     1.0  0.78094  0.38117  0.17501  1.0000
  H   H2446     1.0  0.79839  0.47398  0.11488  1.0000
  C   C1420     1.0  0.66569  0.21017  0.23168  1.0000
  H   H2447     1.0  0.71566  0.47138  0.18103  1.0000
  C   C1421     1.0  0.66725  0.02021  0.20461  1.0000
  H   H2448     1.0  0.87640  0.37569  0.22780  1.0000
  C   C1422     1.0  0.72629  0.45762  0.15654  1.0000
  H   H2449     1.0  0.69193  0.46992  0.13941  1.0000
  C   C1423     1.0  0.80817  0.48361  0.13576  1.0000
  H   H2450     1.0  0.67297  0.44392  0.15368  1.0000
  H   H2451     1.0  0.66040  0.34401  0.14405  1.0000
  N   N103      1.0  0.69139  0.47831  0.16636  1.0000
  H   H2452     1.0  0.89237  0.48142  0.15915  1.0000
  S   S404      1.0  0.83315  0.47812  0.12505  1.0000
  H   H2453     1.0  0.66826  0.47856  0.15220  1.0000
  C   C1424     1.0  0.86598  0.47129  0.16873  1.0000
  C   C1425     1.0  0.67598  0.48222  0.18424  1.0000
  C   C1426     1.0  0.74133  0.31575  0.23025  1.0000
  H   H2454     1.0  0.78013  0.29654  0.23189  1.0000
  C   C1427     1.0  0.74883  0.44018  0.30480  1.0000
  C   C1428     1.0  0.72045  0.10407  0.46253  1.0000
  C   C1429     1.0  0.70058  0.44558  0.30797  1.0000
  H   H2455     1.0  0.78968  0.47530  0.33526  1.0000
  H   H2456     1.0  0.95428  0.22357  0.43217  1.0000
  H   H2457     1.0  0.81174  0.02927  0.44652  1.0000
  N   N104      1.0  0.73492  0.45420  0.29261  1.0000
  H   H2458     1.0  0.82593  0.99888  0.43370  1.0000
  H   H2459     1.0  0.81566  0.45275  0.27351  1.0000
  C   C1430     1.0  0.67138  0.16932  0.25262  1.0000
  C   C1431     1.0  0.86488  0.41413  0.24317  1.0000
  H   H2460     1.0  0.75485  0.42646  0.29921  1.0000
  Fe  Fe203     1.0  0.82123  0.36799  0.31359  1.0000
  S   S405      1.0  0.79124  0.38462  0.32525  1.0000
  S   S406      1.0  0.83655  0.33781  0.32701  1.0000
  Fe  Fe204     1.0  0.82686  0.39786  0.27559  1.0000
  S   S407      1.0  0.79759  0.41681  0.28419  1.0000
  H   H2461     1.0  0.81110  0.47155  0.29353  1.0000
  Fe  Fe205     1.0  0.80473  0.41109  0.31359  1.0000
  S   S408      1.0  0.79319  0.43794  0.32679  1.0000
  Fe  Fe206     1.0  0.78633  0.38922  0.29500  1.0000
  S   S409      1.0  0.75659  0.39113  0.28946  1.0000
  S   S410      1.0  0.83537  0.39432  0.30423  1.0000
  S   S411      1.0  0.81513  0.37042  0.28407  1.0000
  Fe  Fe207     1.0  0.68933  0.16477  0.39743  1.0000
  S   S412      1.0  0.72099  0.16572  0.38426  1.0000
  H   H2462     1.0  0.85502  0.02618  0.40698  1.0000
  Fe  Fe208     1.0  0.69544  0.15820  0.43930  1.0000
  S   S413      1.0  0.72735  0.15839  0.42947  1.0000
  Fe  Fe209     1.0  0.71819  0.18394  0.40618  1.0000
  S   S414      1.0  0.72900  0.21179  0.40109  1.0000
  Fe  Fe210     1.0  0.72720  0.14013  0.40887  1.0000
  C   C1432     1.0  0.76196  0.31594  0.25189  1.0000
  S   S415      1.0  0.68600  0.18517  0.41752  1.0000
  S   S416      1.0  0.69578  0.13776  0.42050  1.0000
  Fe  Fe211     1.0  0.82149  0.26398  0.42390  1.0000
  S   S417      1.0  0.84009  0.24449  0.40356  1.0000
  S   S418      1.0  0.80585  0.29508  0.41354  1.0000
  Fe  Fe212     1.0  0.82674  0.23199  0.45977  1.0000
  S   S419      1.0  0.84574  0.21005  0.44225  1.0000
  Fe  Fe213     1.0  0.86003  0.23478  0.42489  1.0000
  S   S420      1.0  0.89234  0.23129  0.41307  1.0000
  Fe  Fe214     1.0  0.82402  0.22165  0.42275  1.0000
  S   S421      1.0  0.81604  0.19934  0.41123  1.0000
  S   S422      1.0  0.84282  0.25607  0.44391  1.0000
  S   S423      1.0  0.80363  0.24168  0.44168  1.0000
  C   C1433     1.0  0.90756  0.22423  0.43012  1.0000
  C   C1434     1.0  0.66802  0.45738  0.24430  1.0000
  C   C1435     1.0  0.91421  0.20821  0.46231  1.0000
  C   C1436     1.0  0.90109  0.21526  0.44947  1.0000
  C   C1437     1.0  0.90813  0.46743  0.30949  1.0000
  H   H2463     1.0  0.88607  0.21361  0.45438  1.0000
  H   H2464     1.0  0.76225  0.44908  0.24576  1.0000
  C   C1438     1.0  0.73448  0.11197  0.46989  1.0000
  H   H2465     1.0  0.73806  0.27750  0.29120  1.0000
  H   H2466     1.0  0.87441  0.13129  0.47188  1.0000
  H   H2467     1.0  0.66075  0.16661  0.24538  1.0000
  C   C1439     1.0  0.75288  0.20785  0.40491  1.0000
  C   C1440     1.0  0.75870  0.22268  0.40985  1.0000
  C   C1441     1.0  0.77805  0.22018  0.41196  1.0000
  C   C1442     1.0  0.79164  0.20286  0.40902  1.0000
  C   C1443     1.0  0.78575  0.18795  0.40431  1.0000
  C   C1444     1.0  0.76636  0.19037  0.40241  1.0000
  H   H2468     1.0  0.74816  0.23608  0.41208  1.0000
  H   H2469     1.0  0.78245  0.23166  0.41576  1.0000
  H   H2470     1.0  0.79622  0.17450  0.40205  1.0000
  H   H2471     1.0  0.76196  0.17892  0.39851  1.0000
  C   C1445     1.0  0.82804  0.32661  0.35132  1.0000
  C   C1446     1.0  0.81114  0.33559  0.36295  1.0000
  C   C1447     1.0  0.80467  0.32598  0.38219  1.0000
  C   C1448     1.0  0.81504  0.30736  0.38987  1.0000
  C   C1449     1.0  0.83199  0.29849  0.37825  1.0000
  C   C1450     1.0  0.83840  0.30803  0.35904  1.0000
  H   H2472     1.0  0.80310  0.34993  0.35718  1.0000
  H   H2473     1.0  0.79156  0.33295  0.39112  1.0000
  H   H2474     1.0  0.84029  0.28435  0.38408  1.0000
  H   H2475     1.0  0.85157  0.30108  0.35017  1.0000
  C   C1451     1.0  0.89770  0.17897  0.40873  1.0000
  C   C1452     1.0  0.90936  0.09404  0.47951  1.0000
  H   H2476     1.0  0.79271  0.06145  0.40051  1.0000
  C   C1453     1.0  0.75771  0.38530  0.26720  1.0000
  C   C1454     1.0  0.77471  0.37376  0.25826  1.0000
  C   C1455     1.0  0.67684  0.18914  0.27289  1.0000
  C   C1456     1.0  0.91357  0.14163  0.43607  1.0000
  H   H2477     1.0  0.72802  0.40063  0.26553  1.0000
  H   H2478     1.0  0.78738  0.36866  0.26486  1.0000
  H   H2479     1.0  0.91399  0.12747  0.44679  1.0000
  C   C1457     1.0  0.83805  0.46671  0.33637  1.0000
  C   C1458     1.0  0.84348  0.44705  0.33447  1.0000
  C   C1459     1.0  0.82960  0.43772  0.33230  1.0000
  C   C1460     1.0  0.81027  0.44803  0.33220  1.0000
  C   C1461     1.0  0.80465  0.46732  0.33517  1.0000
  H   H2480     1.0  0.87485  0.18477  0.46733  1.0000
  H   H2481     1.0  0.85849  0.43917  0.33423  1.0000
  H   H2482     1.0  0.83393  0.42271  0.33035  1.0000
  H   H2483     1.0  0.91149  0.13867  0.42251  1.0000
  H   H2484     1.0  0.93845  0.44972  0.28508  1.0000
  H   H2485     1.0  0.81137  0.03085  0.39081  1.0000
  H   H2486     1.0  0.67558  0.22097  0.26303  1.0000
  H   H2487     1.0  0.78773  0.01446  0.44140  1.0000
  H   H2488     1.0  0.72507  0.42888  0.29081  1.0000
  H   H2489     1.0  0.70491  0.18369  0.45776  1.0000
  C   C1462     1.0  0.78164  0.16842  0.46034  1.0000
  H   H2490     1.0  0.86074  0.47011  0.26689  1.0000
  C   C1463     1.0  0.89524  0.48370  0.27921  1.0000
  C   C1464     1.0  0.68362  0.13343  0.34210  1.0000
  C   C1465     1.0  0.68327  0.14332  0.35665  1.0000
  H   H2491     1.0  0.79262  0.48160  0.25765  1.0000
  H   H2492     1.0  0.72961  0.12827  0.46709  1.0000
  H   H2493     1.0  0.73373  0.42070  0.32915  1.0000
  H   H2494     1.0  0.69581  0.12150  0.33881  1.0000
  H   H2495     1.0  0.69510  0.13897  0.36453  1.0000
  C   C1466     1.0  0.73010  0.34195  0.27320  1.0000
  H   H2496     1.0  0.75080  0.47559  0.31122  1.0000
  H   H2497     1.0  0.81455  0.06974  0.39904  1.0000
  H   H2498     1.0  0.77389  0.28389  0.25711  1.0000
  H   H2499     1.0  0.94511  0.13240  0.43424  1.0000
  H   H2500     1.0  0.68987  0.14000  0.25346  1.0000
  H   H2501     1.0  0.87736  0.15103  0.42829  1.0000
  C   C1467     1.0  0.79049  0.12738  0.42637  1.0000
  H   H2502     1.0  0.71610  0.48312  0.29043  1.0000
  C   C1468     1.0  0.84256  0.99594  0.40505  1.0000
  S   S424      1.0  0.66523  0.17033  0.38042  1.0000
  H   H2503     1.0  0.89529  0.46236  0.31995  1.0000
  C   C1469     1.0  0.80407  0.18328  0.46851  1.0000
  H   H2504     1.0  0.85894  0.13109  0.45632  1.0000
  H   H2505     1.0  0.90899  0.48633  0.32813  1.0000
  H   H2506     1.0  0.91653  0.09317  0.46462  1.0000
  N   N105      1.0  0.90836  0.46591  0.28900  1.0000
  C   C1470     1.0  0.93979  0.47953  0.27270  1.0000
  H   H2507     1.0  0.74097  0.43922  0.25690  1.0000
  H   H2508     1.0  0.91117  0.18178  0.43091  1.0000
  C   C1471     1.0  0.84025  0.99198  0.47008  1.0000
  C   C1472     1.0  0.81981  0.03868  0.39598  1.0000
  H   H2509     1.0  0.92122  0.45746  0.31475  1.0000
  H   H2510     1.0  0.83242  0.05854  0.43003  1.0000
  S   S425      1.0  0.85594  0.47888  0.33683  1.0000
  C   C1473     1.0  0.77499  0.12840  0.41752  1.0000
  H   H2511     1.0  0.78333  0.03278  0.41975  1.0000
  C   C1474     1.0  0.89634  0.48514  0.25738  1.0000
  C   C1475     1.0  0.81988  0.99763  0.47542  1.0000
  H   H2512     1.0  0.75298  0.18006  0.45162  1.0000
  C   C1476     1.0  0.70328  0.17939  0.47343  1.0000
  C   C1477     1.0  0.89776  0.15787  0.46366  1.0000
  C   C1478     1.0  0.85042  0.44357  0.28103  1.0000
  H   H2513     1.0  0.72231  0.08793  0.46699  1.0000
  H   H2514     1.0  0.88422  0.45085  0.29819  1.0000
  S   S426      1.0  0.81279  0.05343  0.47624  1.0000
  H   H2515     1.0  0.90072  0.14287  0.47274  1.0000
  C   C1479     1.0  0.80843  0.06028  0.39347  1.0000
  H   H2516     1.0  0.69064  0.15066  0.27287  1.0000
  H   H2517     1.0  0.72865  0.39057  0.23516  1.0000
  H   H2518     1.0  0.74412  0.34684  0.27002  1.0000
  H   H2519     1.0  0.68451  0.21005  0.28496  1.0000
  H   H2520     1.0  0.85647  0.99388  0.40991  1.0000
  C   C1480     1.0  0.78746  0.03006  0.43407  1.0000
  H   H2521     1.0  0.76219  0.44578  0.30337  1.0000
  H   H2522     1.0  0.72919  0.34711  0.24321  1.0000
  H   H2523     1.0  0.66390  0.47941  0.26099  1.0000
  H   H2524     1.0  0.78857  0.17368  0.44489  1.0000
  H   H2525     1.0  0.94716  0.47861  0.28469  1.0000
  H   H2526     1.0  0.90015  0.44601  0.27594  1.0000
  C   C1481     1.0  0.77501  0.36789  0.24124  1.0000
  H   H2527     1.0  0.83390  0.03834  0.38512  1.0000
  H   H2528     1.0  0.86504  0.16407  0.44697  1.0000
  H   H2529     1.0  0.86941  0.39596  0.27095  1.0000
  H   H2530     1.0  0.76034  0.23092  0.47271  1.0000
  H   H2531     1.0  0.84638  0.02134  0.43259  1.0000
  H   H2532     1.0  0.80850  0.18957  0.45273  1.0000
  S   S427      1.0  0.85569  0.00740  0.46991  1.0000
  C   C1482     1.0  0.81857  0.47674  0.33700  1.0000
  C   C1483     1.0  0.80178  0.46974  0.25008  1.0000
  H   H2533     1.0  0.79662  0.41886  0.23376  1.0000
  C   C1484     1.0  0.93954  0.22098  0.43699  1.0000
  H   H2534     1.0  0.73012  0.44525  0.33342  1.0000
  N   N106      1.0  0.83470  0.47261  0.25607  1.0000
  C   C1485     1.0  0.71905  0.44463  0.29156  1.0000
  C   C1486     1.0  0.90706  0.48789  0.31305  1.0000
  H   H2535     1.0  0.70389  0.44000  0.32269  1.0000
  C   C1487     1.0  0.77009  0.20118  0.46781  1.0000
  C   C1488     1.0  0.75833  0.37368  0.23309  1.0000
  C   C1489     1.0  0.91028  0.42848  0.30131  1.0000
  H   H2536     1.0  0.80162  0.07829  0.44327  1.0000
  C   C1490     1.0  0.92682  0.22694  0.42390  1.0000
  H   H2537     1.0  0.81337  0.01118  0.48050  1.0000
  H   H2538     1.0  0.91028  0.16427  0.46337  1.0000
  H   H2539     1.0  0.73798  0.47244  0.26349  1.0000
  C   C1491     1.0  0.67427  0.47059  0.25128  1.0000
  H   H2540     1.0  0.84514  0.43196  0.27769  1.0000
  H   H2541     1.0  0.74778  0.29816  0.28847  1.0000
  H   H2542     1.0  0.90113  0.40444  0.26854  1.0000
  C   C1492     1.0  0.89992  0.44837  0.29054  1.0000
  N   N107      1.0  0.78739  0.27270  0.36432  1.0000
  C   C1493     1.0  0.76966  0.27347  0.38070  1.0000
  C   C1494     1.0  0.78356  0.26422  0.34906  1.0000
  C   C1495     1.0  0.79140  0.29290  0.35507  1.0000
  C   C1496     1.0  0.80500  0.26022  0.37236  1.0000
  C   C1497     1.0  0.77052  0.28256  0.39740  1.0000
  C   C1498     1.0  0.78121  0.24265  0.35542  1.0000
  C   C1499     1.0  0.77383  0.30894  0.34920  1.0000
  C   C1500     1.0  0.82395  0.25562  0.35703  1.0000
  H   H2543     1.0  0.75607  0.28136  0.37516  1.0000
  H   H2544     1.0  0.76725  0.25850  0.38771  1.0000
  H   H2545     1.0  0.79532  0.26536  0.33571  1.0000
  H   H2546     1.0  0.76986  0.27285  0.34414  1.0000
  H   H2547     1.0  0.79737  0.29835  0.36482  1.0000
  H   H2548     1.0  0.80304  0.29254  0.34163  1.0000
  H   H2549     1.0  0.80870  0.26756  0.38227  1.0000
  H   H2550     1.0  0.80184  0.24603  0.38158  1.0000
  H   H2551     1.0  0.75612  0.28378  0.40769  1.0000
  H   H2552     1.0  0.78151  0.27297  0.40590  1.0000
  H   H2553     1.0  0.77359  0.29750  0.39229  1.0000
  H   H2554     1.0  0.76772  0.24095  0.36664  1.0000
  H   H2555     1.0  0.77972  0.23778  0.34265  1.0000
  H   H2556     1.0  0.79403  0.23241  0.36077  1.0000
  H   H2557     1.0  0.76744  0.30518  0.33866  1.0000
  H   H2558     1.0  0.77905  0.32275  0.34195  1.0000
  H   H2559     1.0  0.76232  0.31227  0.36205  1.0000
  H   H2560     1.0  0.82242  0.24675  0.34734  1.0000
  H   H2561     1.0  0.83594  0.24670  0.36457  1.0000
  H   H2562     1.0  0.82886  0.26912  0.34819  1.0000
  N   N108      1.0  0.82352  0.02837  0.41610  1.0000
  S   S428      1.0  0.85665  0.06243  0.47048  1.0000
  C   C1501     1.0  0.79432  0.09217  0.43601  1.0000
  C   C1502     1.0  0.84404  0.05181  0.41898  1.0000
  C   C1503     1.0  0.75340  0.44337  0.26004  1.0000
  C   C1504     1.0  0.80732  0.03531  0.43218  1.0000
  S   S429      1.0  0.74977  0.11212  0.40718  1.0000
  H   H2563     1.0  0.86480  0.43648  0.28513  1.0000
  C   C1505     1.0  0.82504  0.00663  0.41845  1.0000
  H   H2564     1.0  0.91084  0.42875  0.31636  1.0000
  C   C1506     1.0  0.72759  0.33470  0.25593  1.0000
  H   H2565     1.0  0.71654  0.47054  0.31462  1.0000
  H   H2566     1.0  0.84443  0.06146  0.40433  1.0000
  S   S430      1.0  0.81886  0.10809  0.44753  1.0000
  C   C1507     1.0  0.93337  0.21140  0.45612  1.0000
  C   C1508     1.0  0.80008  0.10924  0.43575  1.0000
  C   C1509     1.0  0.92902  0.46257  0.27730  1.0000
  H   H2567     1.0  0.71335  0.45156  0.27794  1.0000
  H   H2568     1.0  0.76774  0.14241  0.41014  1.0000
  H   H2569     1.0  0.71844  0.29957  0.26401  1.0000
  H   H2570     1.0  0.92521  0.42340  0.29304  1.0000
  N   N109      1.0  0.74128  0.31600  0.25106  1.0000
  C   C1510     1.0  0.84270  0.03094  0.41874  1.0000
  H   H2571     1.0  0.79498  0.14066  0.42600  1.0000
  H   H2572     1.0  0.77580  0.03914  0.44333  1.0000
  H   H2573     1.0  0.88426  0.11979  0.45106  1.0000
  C   C1511     1.0  0.68086  0.14931  0.26396  1.0000
  H   H2574     1.0  0.87968  0.48444  0.28702  1.0000
  H   H2575     1.0  0.83362  0.16775  0.47141  1.0000
  H   H2576     1.0  0.76210  0.15453  0.45272  1.0000
  H   H2577     1.0  0.90040  0.19363  0.40056  1.0000
  H   H2578     1.0  0.79000  0.15315  0.46451  1.0000
  H   H2579     1.0  0.86348  0.45345  0.25165  1.0000
  H   H2580     1.0  0.82107  0.15420  0.46323  1.0000
  C   C1512     1.0  0.77903  0.09311  0.42698  1.0000
  H   H2581     1.0  0.74895  0.10922  0.46000  1.0000
  H   H2582     1.0  0.76279  0.43007  0.26704  1.0000
  H   H2583     1.0  0.88546  0.18847  0.43560  1.0000
  H   H2584     1.0  0.80448  0.05139  0.43062  1.0000
  C   C1513     1.0  0.89322  0.41074  0.25680  1.0000
  N   N110      1.0  0.89671  0.15717  0.44333  1.0000
  C   C1514     1.0  0.72605  0.47301  0.29995  1.0000
  H   H2585     1.0  0.77445  0.07988  0.42743  1.0000
  H   H2586     1.0  0.76000  0.46415  0.27246  1.0000
  C   C1515     1.0  0.74055  0.43348  0.32664  1.0000
  H   H2587     1.0  0.79289  0.45858  0.25262  1.0000
  H   H2588     1.0  0.68342  0.17401  0.24068  1.0000
  C   C1516     1.0  0.87385  0.13248  0.45650  1.0000
  C   C1517     1.0  0.85298  0.46054  0.26325  1.0000
  C   C1518     1.0  0.87778  0.15213  0.44319  1.0000
  H   H2589     1.0  0.85813  0.05097  0.42300  1.0000
  H   H2590     1.0  0.80492  0.47538  0.23411  1.0000
  H   H2591     1.0  0.89433  0.47182  0.25401  1.0000
  H   H2592     1.0  0.90935  0.16799  0.40182  1.0000
  H   H2593     1.0  0.84042  0.44855  0.29386  1.0000
  H   H2594     1.0  0.86690  0.16224  0.47955  1.0000
  C   C1519     1.0  0.76928  0.11124  0.41781  1.0000
  H   H2595     1.0  0.75277  0.42896  0.33465  1.0000
  H   H2596     1.0  0.71833  0.35511  0.27555  1.0000
  C   C1520     1.0  0.74077  0.48445  0.30134  1.0000
  H   H2597     1.0  0.69160  0.18666  0.26319  1.0000
  C   C1521     1.0  0.82059  0.45975  0.25811  1.0000
  H   H2598     1.0  0.90938  0.20083  0.47709  1.0000
  H   H2599     1.0  0.69157  0.46076  0.30685  1.0000
  H   H2600     1.0  0.71201  0.33346  0.25890  1.0000
  H   H2601     1.0  0.92979  0.45821  0.26340  1.0000
  H   H2602     1.0  0.82810  0.44739  0.25055  1.0000
  H   H2603     1.0  0.88317  0.17830  0.40677  1.0000
  Fe  Fe215     1.0  0.82609  0.07988  0.46908  1.0000
  C   C1522     1.0  0.93414  0.14637  0.43167  1.0000
  C   C1523     1.0  0.87523  0.40599  0.25822  1.0000
  S   S431      1.0  0.66820  0.12511  0.31492  1.0000
  H   H2604     1.0  0.90185  0.41722  0.30252  1.0000
  S   S432      1.0  0.97010  0.14832  0.47877  1.0000
  C   C1524     1.0  0.66743  0.15858  0.36117  1.0000
  H   H2605     1.0  0.79206  0.99059  0.47773  1.0000
  H   H2606     1.0  0.93184  0.23393  0.40896  1.0000
  H   H2607     1.0  0.67856  0.17855  0.28691  1.0000
  H   H2608     1.0  0.93572  0.15557  0.44101  1.0000
  H   H2609     1.0  0.76944  0.08276  0.47101  1.0000
  C   C1525     1.0  0.74656  0.45956  0.27218  1.0000
  H   H2610     1.0  0.77487  0.20758  0.45211  1.0000
  C   C1526     1.0  0.74119  0.39162  0.25868  1.0000
  H   H2611     1.0  0.83094  0.48119  0.29614  1.0000
  C   C1527     1.0  0.87944  0.16963  0.47528  1.0000
  C   C1528     1.0  0.69369  0.47283  0.24534  1.0000
  H   H2612     1.0  0.93846  0.15308  0.41604  1.0000
  C   C1529     1.0  0.89789  0.17705  0.43038  1.0000
  H   H2613     1.0  0.80891  0.06658  0.37771  1.0000
  H   H2614     1.0  0.77106  0.11783  0.46981  1.0000
  C   C1530     1.0  0.76086  0.16657  0.46019  1.0000
  H   H2615     1.0  0.84390  0.00362  0.38956  1.0000
  H   H2616     1.0  0.72341  0.10786  0.44636  1.0000
  C   C1531     1.0  0.73547  0.29365  0.28568  1.0000
  C   C1532     1.0  0.73415  0.29821  0.26400  1.0000
  S   S433      1.0  0.92340  0.42940  0.23920  1.0000
  H   H2617     1.0  0.80644  0.19399  0.47564  1.0000
  C   C1533     1.0  0.81851  0.48405  0.28872  1.0000
  H   H2618     1.0  0.72883  0.33105  0.28703  1.0000
  H   H2619     1.0  0.72153  0.30042  0.29454  1.0000
  H   H2620     1.0  0.76312  0.31763  0.26626  1.0000
  C   C1534     1.0  0.90101  0.42351  0.24026  1.0000
  S   S434      1.0  0.84211  0.40886  0.24486  1.0000
  H   H2621     1.0  0.81169  0.00373  0.41572  1.0000
  H   H2622     1.0  0.95103  0.47872  0.25905  1.0000
  C   C1535     1.0  0.66803  0.13851  0.33225  1.0000
  S   S435      1.0  0.93630  0.11512  0.47810  1.0000
  H   H2623     1.0  0.66967  0.14122  0.27341  1.0000
  S   S436      1.0  0.68318  0.15263  0.47171  1.0000
  C   C1536     1.0  0.67347  0.20994  0.27680  1.0000
  N   N111      1.0  0.66163  0.18506  0.26438  1.0000
  C   C1537     1.0  0.81917  0.16408  0.47334  1.0000
  S   S437      1.0  0.94948  0.20474  0.47231  1.0000
  H   H2624     1.0  0.74156  0.28473  0.25806  1.0000
  H   H2625     1.0  0.69131  0.43633  0.30620  1.0000
  H   H2626     1.0  0.75323  0.06764  0.47054  1.0000
  H   H2627     1.0  0.71947  0.19986  0.47503  1.0000
  N   N112      1.0  0.78299  0.18129  0.47324  1.0000
  H   H2628     1.0  0.75198  0.16303  0.47504  1.0000
  H   H2629     1.0  0.79177  0.29876  0.24979  1.0000
  H   H2630     1.0  0.70494  0.11113  0.46758  1.0000
  H   H2631     1.0  0.75465  0.20001  0.46974  1.0000
  H   H2632     1.0  0.86297  0.26003  0.47853  1.0000
  C   C1538     1.0  0.74155  0.38593  0.24150  1.0000
  C   C1539     1.0  0.84047  0.48130  0.23461  1.0000
  H   H2633     1.0  0.91049  0.48847  0.24855  1.0000
  H   H2634     1.0  0.78315  0.21922  0.47964  1.0000
  H   H2635     1.0  0.88572  0.26383  0.48021  1.0000
  H   H2636     1.0  0.88798  0.07768  0.48032  1.0000
  C   C1540     1.0  0.77757  0.29759  0.24737  1.0000
  Fe  Fe216     1.0  0.84257  0.03601  0.48049  1.0000
  H   H2637     1.0  0.76683  0.32891  0.24152  1.0000
  H   H2638     1.0  0.81847  0.26194  0.48283  1.0000
  C   C1541     1.0  0.75956  0.07309  0.48001  1.0000
  C   C1542     1.0  0.76875  0.21666  0.47955  1.0000
  H   H2639     1.0  0.78801  0.35844  0.23471  1.0000
  H   H2640     1.0  0.68027  0.21051  0.23374  1.0000
  C   C1543     1.0  0.70707  0.46115  0.23295  1.0000
  H   H2641     1.0  0.71411  0.30548  0.23341  1.0000
  Fe  Fe217     1.0  0.86659  0.37329  0.68918  1.0000
  S   S438      1.0  0.89608  0.35378  0.68160  1.0000
  S   S439      1.0  0.85699  0.40282  0.67066  1.0000
  Fe  Fe218     1.0  0.87910  0.32960  0.69186  1.0000
  S   S440      1.0  0.88442  0.30331  0.67805  1.0000
  C   C1544     1.0  0.93828  0.46704  0.70250  1.0000
  S   S441      1.0  0.84942  0.34953  0.69714  1.0000
  H   H2642     1.0  0.78192  0.10935  0.59825  1.0000
  H   H2643     1.0  0.94008  0.26989  0.60098  1.0000
  C   C1545     1.0  0.69016  0.16004  0.50429  1.0000
  H   H2644     1.0  0.84547  0.12950  0.57035  1.0000
  H   H2645     1.0  0.78484  0.24491  0.59643  1.0000
  H   H2646     1.0  0.78171  0.15567  0.49665  1.0000
  H   H2647     1.0  0.93526  0.13443  0.61572  1.0000
  H   H2648     1.0  0.81607  0.11142  0.59445  1.0000
  H   H2649     1.0  0.84370  0.09527  0.57401  1.0000
  H   H2650     1.0  0.88231  0.22805  0.48909  1.0000
  Fe  Fe219     1.0  0.75681  0.16922  0.56909  1.0000
  S   S442      1.0  0.73912  0.15351  0.59583  1.0000
  S   S443      1.0  0.78780  0.17268  0.56420  1.0000
  Fe  Fe220     1.0  0.72558  0.17798  0.54516  1.0000
  S   S444      1.0  0.70507  0.16296  0.56957  1.0000
  S   S445      1.0  0.72089  0.19417  0.51525  1.0000
  Fe  Fe221     1.0  0.71379  0.17789  0.58861  1.0000
  S   S446      1.0  0.69251  0.19429  0.61077  1.0000
  Fe  Fe222     1.0  0.73193  0.13986  0.57472  1.0000
  S   S447      1.0  0.72963  0.10836  0.58207  1.0000
  S   S448      1.0  0.73220  0.19490  0.56363  1.0000
  S   S449      1.0  0.75167  0.15348  0.54857  1.0000
  Fe  Fe223     1.0  0.83549  0.27394  0.60979  1.0000
  S   S450      1.0  0.84896  0.24248  0.62114  1.0000
  S   S451      1.0  0.82835  0.29939  0.62523  1.0000
  Fe  Fe224     1.0  0.83368  0.26550  0.57090  1.0000
  S   S452      1.0  0.84750  0.23381  0.57897  1.0000
  S   S453      1.0  0.82526  0.27845  0.54165  1.0000
  Fe  Fe225     1.0  0.82732  0.23510  0.60798  1.0000
  S   S454      1.0  0.80808  0.21304  0.62226  1.0000
  Fe  Fe226     1.0  0.86762  0.24414  0.59097  1.0000
  S   S455      1.0  0.90021  0.23362  0.58298  1.0000
  S   S456      1.0  0.81219  0.26653  0.59920  1.0000
  S   S457      1.0  0.85563  0.27598  0.58035  1.0000
  H   H2651     1.0  0.97324  0.16520  0.55716  1.0000
  S   S458      1.0  0.78008  0.05004  0.52726  1.0000
  H   H2652     1.0  0.91512  0.22929  0.49114  1.0000
  H   H2653     1.0  0.96135  0.15036  0.60140  1.0000
  S   S459      1.0  0.92483  0.16023  0.50335  1.0000
  C   C1546     1.0  0.67311  0.16386  0.62292  1.0000
  S   S460      1.0  0.95635  0.12193  0.52198  1.0000
  H   H2654     1.0  0.78472  0.25101  0.53187  1.0000
  H   H2655     1.0  0.81246  0.13468  0.57841  1.0000
  Fe  Fe227     1.0  0.93816  0.15028  0.52994  1.0000
  S   S461      1.0  0.91915  0.15115  0.55970  1.0000
  S   S462      1.0  0.96230  0.16682  0.51761  1.0000
  C   C1547     1.0  0.88428  0.08565  0.50784  1.0000
  C   C1548     1.0  0.89140  0.09523  0.51825  1.0000
  C   C1549     1.0  0.90723  0.10449  0.50924  1.0000
  C   C1550     1.0  0.89320  0.08523  0.48838  1.0000
  H   H2656     1.0  0.74630  0.27548  0.56962  1.0000
  N   N113      1.0  0.67960  0.19635  0.70246  1.0000
  H   H2657     1.0  0.88476  0.09532  0.53339  1.0000
  H   H2658     1.0  0.91260  0.11188  0.51736  1.0000
  S   S463      1.0  0.83700  0.03679  0.51223  1.0000
  C   C1551     1.0  0.90813  0.38825  0.73242  1.0000
  C   C1552     1.0  0.90568  0.21038  0.57726  1.0000
  C   C1553     1.0  0.89216  0.19817  0.58429  1.0000
  C   C1554     1.0  0.89644  0.17990  0.57899  1.0000
  C   C1555     1.0  0.91402  0.17402  0.56629  1.0000
  C   C1556     1.0  0.92753  0.18623  0.55936  1.0000
  C   C1557     1.0  0.92352  0.20423  0.56508  1.0000
  H   H2659     1.0  0.87852  0.20265  0.59407  1.0000
  H   H2660     1.0  0.88598  0.17046  0.58455  1.0000
  H   H2661     1.0  0.94119  0.18175  0.54982  1.0000
  H   H2662     1.0  0.93408  0.21356  0.55976  1.0000
  C   C1558     1.0  0.74419  0.09275  0.56644  1.0000
  C   C1559     1.0  0.74019  0.07421  0.56921  1.0000
  C   C1560     1.0  0.98424  0.10433  0.56022  1.0000
  C   C1561     1.0  0.76688  0.06665  0.54233  1.0000
  C   C1562     1.0  0.77099  0.08522  0.53947  1.0000
  C   C1563     1.0  0.75958  0.09832  0.55150  1.0000
  H   H2663     1.0  0.72833  0.06983  0.58075  1.0000
  H   H2664     1.0  0.78272  0.08959  0.52787  1.0000
  H   H2665     1.0  0.76274  0.11258  0.54928  1.0000
  C   C1564     1.0  0.79337  0.18322  0.58084  1.0000
  C   C1565     1.0  0.78012  0.18629  0.59815  1.0000
  C   C1566     1.0  0.78496  0.19499  0.61105  1.0000
  C   C1567     1.0  0.80279  0.20114  0.60642  1.0000
  C   C1568     1.0  0.81601  0.19792  0.58913  1.0000
  C   C1569     1.0  0.81138  0.18886  0.57646  1.0000
  H   H2666     1.0  0.76622  0.18188  0.60168  1.0000
  H   H2667     1.0  0.77474  0.19730  0.62448  1.0000
  H   H2668     1.0  0.83002  0.20195  0.58572  1.0000
  H   H2669     1.0  0.82175  0.18638  0.56316  1.0000
  S   S464      1.0  0.89356  0.46552  0.68711  1.0000
  H   H2670     1.0  0.87042  0.31671  0.59743  1.0000
  H   H2671     1.0  0.68577  0.20773  0.66040  1.0000
  S   S465      1.0  0.88315  0.32413  0.72272  1.0000
  C   C1570     1.0  0.82208  0.23627  0.50575  1.0000
  C   C1571     1.0  0.82434  0.22915  0.52509  1.0000
  C   C1572     1.0  0.82530  0.24198  0.53624  1.0000
  C   C1573     1.0  0.82394  0.26199  0.52814  1.0000
  C   C1574     1.0  0.82136  0.26912  0.50888  1.0000
  H   H2672     1.0  0.74107  0.13087  0.49465  1.0000
  H   H2673     1.0  0.82542  0.21369  0.53144  1.0000
  H   H2674     1.0  0.82675  0.23634  0.55118  1.0000
  H   H2675     1.0  0.78355  0.22204  0.52126  1.0000
  H   H2676     1.0  0.88667  0.27209  0.51297  1.0000
  H   H2677     1.0  0.84535  0.09804  0.54898  1.0000
  H   H2678     1.0  0.76120  0.25229  0.52779  1.0000
  H   H2679     1.0  0.74809  0.04698  0.55932  1.0000
  C   C1575     1.0  0.96774  0.44881  0.68475  1.0000
  C   C1576     1.0  0.74335  0.08211  0.49570  1.0000
  H   H2680     1.0  0.91156  0.31202  0.63433  1.0000
  H   H2681     1.0  0.66197  0.16124  0.58699  1.0000
  H   H2682     1.0  0.73121  0.07433  0.49830  1.0000
  C   C1577     1.0  0.70975  0.18295  0.50349  1.0000
  C   C1578     1.0  0.69906  0.16866  0.51404  1.0000
  H   H2683     1.0  0.69873  0.23428  0.70796  1.0000
  C   C1579     1.0  0.80761  0.44511  0.71668  1.0000
  H   H2684     1.0  0.76264  0.26060  0.59224  1.0000
  H   H2685     1.0  0.74400  0.27634  0.54580  1.0000
  H   H2686     1.0  0.98678  0.41904  0.71196  1.0000
  H   H2687     1.0  0.76362  0.23452  0.60155  1.0000
  H   H2688     1.0  0.88907  0.26430  0.63139  1.0000
  C   C1580     1.0  0.78652  0.12324  0.59013  1.0000
  C   C1581     1.0  0.84878  0.43260  0.72411  1.0000
  H   H2689     1.0  0.83316  0.07175  0.55392  1.0000
  H   H2690     1.0  0.79041  0.16631  0.51921  1.0000
  H   H2691     1.0  0.97438  0.45373  0.65305  1.0000
  H   H2692     1.0  0.98966  0.16018  0.57383  1.0000
  H   H2693     1.0  0.78251  0.13318  0.60061  1.0000
  C   C1582     1.0  0.80825  0.12347  0.54762  1.0000
  H   H2694     1.0  0.80867  0.12215  0.51781  1.0000
  H   H2695     1.0  0.91136  0.48369  0.71730  1.0000
  C   C1583     1.0  0.86694  0.30219  0.66542  1.0000
  C   C1584     1.0  0.86624  0.28400  0.66230  1.0000
  C   C1585     1.0  0.85412  0.28291  0.65037  1.0000
  C   C1586     1.0  0.84255  0.30001  0.64153  1.0000
  C   C1587     1.0  0.84267  0.31811  0.64527  1.0000
  C   C1588     1.0  0.85485  0.31923  0.65712  1.0000
  H   H2696     1.0  0.87529  0.27072  0.66893  1.0000
  H   H2697     1.0  0.85376  0.26886  0.64794  1.0000
  H   H2698     1.0  0.83365  0.33140  0.63857  1.0000
  H   H2699     1.0  0.85531  0.33334  0.65934  1.0000
  C   C1589     1.0  0.86902  0.42002  0.67293  1.0000
  C   C1590     1.0  0.86205  0.44004  0.66613  1.0000
  C   C1591     1.0  0.86973  0.45406  0.67030  1.0000
  C   C1592     1.0  0.88488  0.44807  0.68066  1.0000
  C   C1593     1.0  0.89262  0.42802  0.68648  1.0000
  C   C1594     1.0  0.88455  0.41401  0.68282  1.0000
  H   H2700     1.0  0.85026  0.44471  0.65820  1.0000
  H   H2701     1.0  0.86395  0.46951  0.66548  1.0000
  H   H2702     1.0  0.90425  0.42323  0.69459  1.0000
  H   H2703     1.0  0.89020  0.39856  0.68783  1.0000
  N   N114      1.0  0.91011  0.28180  0.61442  1.0000
  H   H2704     1.0  0.76042  0.21295  0.49465  1.0000
  H   H2705     1.0  0.72131  0.08941  0.53098  1.0000
  S   S466      1.0  0.81879  0.08389  0.49983  1.0000
  H   H2706     1.0  0.71941  0.26103  0.57561  1.0000
  C   C1595     1.0  0.88355  0.26414  0.52823  1.0000
  C   C1596     1.0  0.88001  0.30178  0.59903  1.0000
  H   H2707     1.0  0.93236  0.10977  0.62102  1.0000
  H   H2708     1.0  0.80607  0.35367  0.73020  1.0000
  H   H2709     1.0  0.97606  0.45959  0.68531  1.0000
  H   H2710     1.0  0.93096  0.21409  0.51874  1.0000
  H   H2711     1.0  0.68416  0.15677  0.61225  1.0000
  H   H2712     1.0  0.86989  0.27306  0.53545  1.0000
  Fe  Fe228     1.0  0.94513  0.13326  0.49418  1.0000
  H   H2713     1.0  0.93004  0.42922  0.71705  1.0000
  H   H2714     1.0  0.98288  0.12129  0.61040  1.0000
  H   H2715     1.0  0.77806  0.13034  0.57849  1.0000
  H   H2716     1.0  0.89507  0.26419  0.53582  1.0000
  C   C1597     1.0  0.92378  0.28028  0.57778  1.0000
  H   H2717     1.0  0.96597  0.40883  0.72722  1.0000
  H   H2718     1.0  0.88693  0.29923  0.58421  1.0000
  N   N115      1.0  0.95148  0.44689  0.70251  1.0000
  H   H2719     1.0  0.74869  0.10980  0.51228  1.0000
  Fe  Fe229     1.0  0.86852  0.48778  0.69939  1.0000
  C   C1598     1.0  0.80923  0.09101  0.57051  1.0000
  H   H2720     1.0  0.79275  0.12277  0.54896  1.0000
  C   C1599     1.0  0.77050  0.28359  0.54782  1.0000
  H   H2721     1.0  0.93749  0.27230  0.56965  1.0000
  H   H2722     1.0  0.95367  0.47097  0.66233  1.0000
  C   C1600     1.0  0.96122  0.45529  0.66496  1.0000
  S   S467      1.0  0.82102  0.21997  0.49204  1.0000
  H   H2723     1.0  0.87011  0.29152  0.60647  1.0000
  C   C1601     1.0  0.78208  0.17891  0.51006  1.0000
  H   H2724     1.0  0.84171  0.41519  0.70841  1.0000
  H   H2725     1.0  0.81532  0.41064  0.69392  1.0000
  H   H2726     1.0  0.91960  0.29511  0.56876  1.0000
  C   C1602     1.0  0.97419  0.16355  0.57253  1.0000
  H   H2727     1.0  0.73347  0.24915  0.59441  1.0000
  C   C1603     1.0  0.75138  0.06128  0.55711  1.0000
  H   H2728     1.0  0.78109  0.28004  0.55756  1.0000
  H   H2729     1.0  0.90096  0.20223  0.51104  1.0000
  C   C1604     1.0  0.83843  0.10571  0.56121  1.0000
  C   C1605     1.0  0.92404  0.29921  0.63337  1.0000
  H   H2730     1.0  0.93598  0.30307  0.62101  1.0000
  C   C1606     1.0  0.71518  0.10865  0.50296  1.0000
  H   H2731     1.0  0.93294  0.29536  0.59438  1.0000
  S   S468      1.0  0.86457  0.07400  0.51977  1.0000
  C   C1607     1.0  0.87641  0.23745  0.50016  1.0000
  H   H2732     1.0  0.98961  0.10161  0.59853  1.0000
  S   S469      1.0  0.86863  0.37151  0.71992  1.0000
  H   H2733     1.0  0.67062  0.19050  0.58344  1.0000
  H   H2734     1.0  0.84179  0.13577  0.54554  1.0000
  C   C1608     1.0  0.91637  0.10375  0.48988  1.0000
  C   C1609     1.0  0.80882  0.11992  0.58207  1.0000
  H   H2735     1.0  0.68172  0.14913  0.51250  1.0000
  N   N116      1.0  0.88973  0.23246  0.51450  1.0000
  C   C1610     1.0  0.89266  0.21061  0.52260  1.0000
  S   S470      1.0  0.92287  0.35079  0.72530  1.0000
  H   H2736     1.0  0.92045  0.23526  0.53004  1.0000
  C   C1611     1.0  0.88060  0.24301  0.53121  1.0000
  C   C1612     1.0  0.87391  0.20254  0.53234  1.0000
  C   C1613     1.0  0.92556  0.23026  0.51603  1.0000
  C   C1614     1.0  0.83661  0.41830  0.72325  1.0000
  C   C1615     1.0  0.69267  0.16503  0.48391  1.0000
  H   H2737     1.0  0.86179  0.23434  0.50758  1.0000
  H   H2738     1.0  0.90170  0.20618  0.53393  1.0000
  Fe  Fe230     1.0  0.85465  0.34570  0.72714  1.0000
  H   H2739     1.0  0.86369  0.26890  0.49891  1.0000
  H   H2740     1.0  0.78221  0.22552  0.57240  1.0000
  H   H2741     1.0  0.94694  0.47820  0.70107  1.0000
  H   H2742     1.0  0.86456  0.24362  0.53537  1.0000
  H   H2743     1.0  0.88653  0.23460  0.54442  1.0000
  H   H2744     1.0  0.86420  0.21073  0.54346  1.0000
  H   H2745     1.0  0.86569  0.20239  0.52141  1.0000
  H   H2746     1.0  0.87817  0.18705  0.53997  1.0000
  H   H2747     1.0  0.80032  0.44432  0.68933  1.0000
  H   H2748     1.0  0.67326  0.17810  0.68617  1.0000
  H   H2749     1.0  0.93837  0.23672  0.50769  1.0000
  H   H2750     1.0  0.66057  0.23357  0.68171  1.0000
  H   H2751     1.0  0.76001  0.17390  0.49781  1.0000
  H   H2752     1.0  0.95900  0.10045  0.59528  1.0000
  C   C1616     1.0  0.76948  0.11294  0.48580  1.0000
  H   H2753     1.0  0.77635  0.12245  0.49059  1.0000
  H   H2754     1.0  0.95163  0.44619  0.66361  1.0000
  H   H2755     1.0  0.97294  0.09529  0.56523  1.0000
  H   H2756     1.0  0.92970  0.29620  0.64696  1.0000
  H   H2757     1.0  0.82798  0.13196  0.51973  1.0000
  H   H2758     1.0  0.74886  0.07774  0.50950  1.0000
  H   H2759     1.0  0.79297  0.09392  0.57258  1.0000
  H   H2760     1.0  0.75081  0.22299  0.57299  1.0000
  H   H2761     1.0  0.93032  0.26836  0.63422  1.0000
  H   H2762     1.0  0.86370  0.11949  0.55174  1.0000
  H   H2763     1.0  0.96637  0.40962  0.69471  1.0000
  H   H2764     1.0  0.76868  0.18512  0.51998  1.0000
  H   H2765     1.0  0.81322  0.45643  0.72013  1.0000
  H   H2766     1.0  0.82628  0.43841  0.68882  1.0000
  H   H2767     1.0  0.77797  0.09777  0.48965  1.0000
  C   C1617     1.0  0.67143  0.21902  0.56470  1.0000
  N   N117      1.0  0.76201  0.24923  0.55818  1.0000
  H   H2768     1.0  0.69192  0.21519  0.72758  1.0000
  H   H2769     1.0  0.92140  0.24110  0.63453  1.0000
  H   H2770     1.0  0.94701  0.41284  0.68206  1.0000
  C   C1618     1.0  0.66429  0.19947  0.57068  1.0000
  C   C1619     1.0  0.69264  0.21085  0.69817  1.0000
  C   C1620     1.0  0.90108  0.26420  0.61828  1.0000
  Fe  Fe231     1.0  0.80812  0.05605  0.50725  1.0000
  C   C1621     1.0  0.81944  0.12038  0.52699  1.0000
  C   C1622     1.0  0.84762  0.12380  0.55696  1.0000
  C   C1623     1.0  0.71326  0.10433  0.52531  1.0000
  H   H2771     1.0  0.79110  0.24693  0.56323  1.0000
  C   C1624     1.0  0.91754  0.28077  0.63244  1.0000
  Fe  Fe232     1.0  0.89699  0.35041  0.71315  1.0000
  Fe  Fe233     1.0  0.84840  0.06468  0.50200  1.0000
  H   H2772     1.0  0.98930  0.10500  0.54429  1.0000
  C   C1625     1.0  0.68210  0.18295  0.72187  1.0000
  H   H2773     1.0  0.70555  0.10031  0.50023  1.0000
  H   H2774     1.0  0.89384  0.26444  0.60646  1.0000
  H   H2775     1.0  0.81072  0.06365  0.56252  1.0000
  H   H2776     1.0  0.69747  0.16439  0.52969  1.0000
  H   H2777     1.0  0.69727  0.17069  0.69105  1.0000
  H   H2778     1.0  0.90188  0.31343  0.60483  1.0000
  H   H2779     1.0  0.93107  0.47191  0.68971  1.0000
  C   C1626     1.0  0.72839  0.24701  0.58214  1.0000
  H   H2780     1.0  0.82929  0.10593  0.52626  1.0000
  H   H2781     1.0  0.94744  0.15356  0.58347  1.0000
  H   H2782     1.0  0.69756  0.10532  0.53245  1.0000
  C   C1627     1.0  0.94342  0.11911  0.61539  1.0000
  H   H2783     1.0  0.67360  0.23282  0.71532  1.0000
  C   C1628     1.0  0.93937  0.43281  0.70244  1.0000
  H   H2784     1.0  0.80782  0.13899  0.54765  1.0000
  H   H2785     1.0  0.90683  0.23242  0.62359  1.0000
  H   H2786     1.0  0.80352  0.39122  0.70729  1.0000
  C   C1629     1.0  0.77129  0.24496  0.53810  1.0000
  C   C1630     1.0  0.75464  0.27115  0.55573  1.0000
  N   N118      1.0  0.81633  0.10999  0.56479  1.0000
  H   H2787     1.0  0.98683  0.13405  0.55511  1.0000
  C   C1631     1.0  0.91519  0.24400  0.62135  1.0000
  C   C1632     1.0  0.81705  0.07694  0.55624  1.0000
  C   C1633     1.0  0.92730  0.28173  0.59743  1.0000
  H   H2788     1.0  0.92705  0.24224  0.60834  1.0000
  H   H2789     1.0  0.81222  0.08341  0.54226  1.0000
  H   H2790     1.0  0.69639  0.18351  0.65619  1.0000
  H   H2791     1.0  0.88286  0.17068  0.48901  1.0000
  H   H2792     1.0  0.91271  0.27174  0.57912  1.0000
  C   C1634     1.0  0.87228  0.25887  0.48900  1.0000
  H   H2793     1.0  0.71822  0.11542  0.52993  1.0000
  C   C1635     1.0  0.96000  0.44110  0.72061  1.0000
  H   H2794     1.0  0.82768  0.38998  0.70971  1.0000
  H   H2795     1.0  0.67676  0.22271  0.54867  1.0000
  H   H2796     1.0  0.92893  0.44003  0.69256  1.0000
  H   H2797     1.0  0.97889  0.43503  0.68417  1.0000
  H   H2798     1.0  0.88571  0.30352  0.62570  1.0000
  H   H2799     1.0  0.90884  0.25238  0.49720  1.0000
  H   H2800     1.0  0.70828  0.20294  0.69677  1.0000
  H   H2801     1.0  0.81285  0.08252  0.58479  1.0000
  H   H2802     1.0  0.90613  0.27787  0.64583  1.0000
  C   C1636     1.0  0.81348  0.40025  0.70805  1.0000
  C   C1637     1.0  0.89484  0.30061  0.61143  1.0000
  H   H2803     1.0  0.76502  0.21553  0.54161  1.0000
  C   C1638     1.0  0.96259  0.14849  0.58634  1.0000
  Fe  Fe234     1.0  0.97970  0.13944  0.50746  1.0000
  C   C1639     1.0  0.67419  0.18200  0.62562  1.0000
  H   H2804     1.0  0.76335  0.29933  0.54711  1.0000
  H   H2805     1.0  0.78893  0.41685  0.72512  1.0000
  H   H2806     1.0  0.67149  0.19172  0.55840  1.0000
  H   H2807     1.0  0.73796  0.23843  0.55479  1.0000
  H   H2808     1.0  0.94215  0.12122  0.58564  1.0000
  H   H2809     1.0  0.70831  0.12432  0.49843  1.0000
  H   H2810     1.0  0.77849  0.28223  0.53282  1.0000
  H   H2811     1.0  0.79143  0.44982  0.72084  1.0000
  C   C1640     1.0  0.74523  0.23867  0.56654  1.0000
  C   C1641     1.0  0.77140  0.24569  0.59132  1.0000
  H   H2812     1.0  0.95369  0.11442  0.62554  1.0000
  H   H2813     1.0  0.76885  0.05985  0.48742  1.0000
  C   C1642     1.0  0.77745  0.22308  0.53674  1.0000
  C   C1643     1.0  0.77736  0.24168  0.57054  1.0000
  Fe  Fe235     1.0  0.95065  0.17432  0.49026  1.0000
  H   H2814     1.0  0.81539  0.15622  0.48861  1.0000
  H   H2815     1.0  0.69168  0.22114  0.68397  1.0000
  C   C1644     1.0  0.97587  0.12538  0.56381  1.0000
  C   C1645     1.0  0.95034  0.41319  0.69608  1.0000
  C   C1646     1.0  0.98695  0.11793  0.59557  1.0000
  H   H2816     1.0  0.71850  0.23647  0.58838  1.0000
  C   C1647     1.0  0.68579  0.18391  0.68709  1.0000
  H   H2817     1.0  0.67674  0.15557  0.71733  1.0000
  C   C1648     1.0  0.95379  0.11653  0.59447  1.0000
  C   C1649     1.0  0.69479  0.19348  0.66616  1.0000
  C   C1650     1.0  0.74796  0.11489  0.49662  1.0000
  H   H2818     1.0  0.68449  0.21697  0.57103  1.0000
  C   C1651     1.0  0.90952  0.23666  0.50380  1.0000
  H   H2819     1.0  0.84685  0.44611  0.71264  1.0000
  H   H2820     1.0  0.70974  0.19545  0.66532  1.0000
  H   H2821     1.0  0.78916  0.21496  0.54490  1.0000
  N   N119      1.0  0.97032  0.12722  0.58487  1.0000
  H   H2822     1.0  0.82017  0.28461  0.50255  1.0000
  C   C1652     1.0  0.81217  0.44758  0.69437  1.0000
  C   C1653     1.0  0.82052  0.25629  0.49767  1.0000
  C   C1654     1.0  0.77626  0.17188  0.49425  1.0000
  H   H2823     1.0  0.81367  0.46291  0.68748  1.0000
  H   H2824     1.0  0.96294  0.13176  0.55677  1.0000
  H   H2825     1.0  0.79090  0.19028  0.50473  1.0000
  H   H2826     1.0  0.94473  0.40088  0.70690  1.0000
  H   H2827     1.0  0.96747  0.17818  0.57629  1.0000
  H   H2828     1.0  0.69796  0.17690  0.72205  1.0000
  C   C1655     1.0  0.67196  0.16529  0.72802  1.0000
  C   C1656     1.0  0.92139  0.46916  0.72043  1.0000
  N   N120      1.0  0.73569  0.10404  0.49105  1.0000
  H   H2829     1.0  0.86454  0.42539  0.72123  1.0000
  H   H2830     1.0  0.66066  0.20501  0.64171  1.0000
  C   C1657     1.0  0.68873  0.22383  0.71328  1.0000
  H   H2831     1.0  0.74050  0.44557  0.72478  1.0000
  C   C1658     1.0  0.80460  0.41023  0.72571  1.0000
  N   N121      1.0  0.81464  0.42503  0.72828  1.0000
  C   C1659     1.0  0.97392  0.42087  0.72403  1.0000
  H   H2832     1.0  0.89766  0.38972  0.72360  1.0000
  H   H2833     1.0  0.96793  0.45229  0.72093  1.0000
  H   H2834     1.0  0.91240  0.45797  0.72378  1.0000
  S   S471      1.0  0.86021  0.48477  0.73186  1.0000
  H   H2835     1.0  0.66082  0.23173  0.56967  1.0000
  C   C1660     1.0  0.71155  0.18854  0.48323  1.0000
  C   C1661     1.0  0.70263  0.44764  0.88595  1.0000
  H   H2836     1.0  0.70490  0.28788  0.84839  1.0000
  S   S472      1.0  0.83399  0.34038  0.75593  1.0000
  N   N122      1.0  0.89943  0.41615  0.94092  1.0000
  H   H2837     1.0  0.74049  0.34356  0.78847  1.0000
  Fe  Fe236     1.0  0.72882  0.35162  0.83535  1.0000
  S   S473      1.0  0.71134  0.37763  0.81819  1.0000
  H   H2838     1.0  0.75406  0.40908  0.87867  1.0000
  Fe  Fe237     1.0  0.75899  0.37471  0.83564  1.0000
  S   S474      1.0  0.74340  0.40236  0.81869  1.0000
  S   S475      1.0  0.78783  0.37825  0.83958  1.0000
  Fe  Fe238     1.0  0.71608  0.39421  0.83823  1.0000
  S   S476      1.0  0.69086  0.41601  0.85100  1.0000
  Fe  Fe239     1.0  0.74046  0.38305  0.80054  1.0000
  S   S477      1.0  0.74826  0.39088  0.76786  1.0000
  S   S478      1.0  0.73166  0.36792  0.85690  1.0000
  S   S479      1.0  0.75781  0.35564  0.81613  1.0000
  H   H2839     1.0  0.76596  0.43939  0.86807  1.0000
  H   H2840     1.0  0.83660  0.46029  0.83322  1.0000
  C   C1662     1.0  0.71676  0.44339  0.90008  1.0000
  H   H2841     1.0  0.74211  0.48180  0.89181  1.0000
  Fe  Fe240     1.0  0.94180  0.42553  0.77831  1.0000
  S   S480      1.0  0.92443  0.43795  0.80428  1.0000
  H   H2842     1.0  0.85306  0.48352  0.81928  1.0000
  S   S481      1.0  0.96548  0.44231  0.81255  1.0000
  Fe  Fe241     1.0  0.94792  0.41906  0.81979  1.0000
  S   S482      1.0  0.93811  0.40279  0.85030  1.0000
  Fe  Fe242     1.0  0.94325  0.45992  0.79460  1.0000
  H   H2843     1.0  0.94754  0.35631  0.74801  1.0000
  Fe  Fe243     1.0  0.83483  0.43406  0.91084  1.0000
  S   S483      1.0  0.82784  0.44596  0.93801  1.0000
  S   S484      1.0  0.85445  0.44894  0.88505  1.0000
  Fe  Fe244     1.0  0.80639  0.40691  0.92758  1.0000
  S   S485      1.0  0.79724  0.41636  0.95638  1.0000
  S   S486      1.0  0.79075  0.38528  0.92396  1.0000
  Fe  Fe245     1.0  0.79666  0.44662  0.93818  1.0000
  H   H2844     1.0  0.86229  0.41243  0.81512  1.0000
  Fe  Fe246     1.0  0.82917  0.41481  0.95390  1.0000
  S   S487      1.0  0.80338  0.43747  0.90954  1.0000
  S   S488      1.0  0.83865  0.40252  0.92650  1.0000
  C   C1663     1.0  0.70124  0.43367  0.77434  1.0000
  H   H2845     1.0  0.71702  0.39742  0.88948  1.0000
  H   H2846     1.0  0.97277  0.48589  0.78679  1.0000
  C   C1664     1.0  0.91551  0.41569  0.86133  1.0000
  C   C1665     1.0  0.90270  0.40564  0.87601  1.0000
  C   C1666     1.0  0.88396  0.41573  0.88374  1.0000
  C   C1667     1.0  0.87809  0.43590  0.87679  1.0000
  C   C1668     1.0  0.89110  0.44600  0.86251  1.0000
  C   C1669     1.0  0.90981  0.43596  0.85489  1.0000
  H   H2847     1.0  0.90707  0.38994  0.88099  1.0000
  H   H2848     1.0  0.87395  0.40782  0.89467  1.0000
  H   H2849     1.0  0.88667  0.46163  0.85719  1.0000
  H   H2850     1.0  0.91976  0.44390  0.84389  1.0000
  H   H2851     1.0  0.67738  0.43962  0.79985  1.0000
  C   C1670     1.0  0.70728  0.31600  0.82954  1.0000
  C   C1671     1.0  0.68868  0.30467  0.80567  1.0000
  H   H2852     1.0  0.83647  0.46229  0.80018  1.0000
  H   H2853     1.0  0.91456  0.47662  0.76939  1.0000
  H   H2854     1.0  0.86938  0.45527  0.91720  1.0000
  H   H2855     1.0  0.92249  0.41735  0.95435  1.0000
  C   C1672     1.0  0.91390  0.41151  0.92275  1.0000
  H   H2856     1.0  0.68083  0.46788  0.77377  1.0000
  C   C1673     1.0  0.79175  0.30052  0.78178  1.0000
  H   H2857     1.0  0.75657  0.43338  0.93285  1.0000
  C   C1674     1.0  0.78846  0.38031  0.86303  1.0000
  C   C1675     1.0  0.80094  0.39122  0.86519  1.0000
  C   C1676     1.0  0.80174  0.39295  0.88382  1.0000
  C   C1677     1.0  0.79042  0.38332  0.90037  1.0000
  C   C1678     1.0  0.77807  0.37231  0.89818  1.0000
  C   C1679     1.0  0.77690  0.37099  0.87956  1.0000
  H   H2858     1.0  0.80991  0.39839  0.85241  1.0000
  H   H2859     1.0  0.81129  0.40147  0.88543  1.0000
  H   H2860     1.0  0.76937  0.36476  0.91096  1.0000
  H   H2861     1.0  0.76739  0.36239  0.87802  1.0000
  C   C1680     1.0  0.69283  0.44041  0.84124  1.0000
  C   C1681     1.0  0.80501  0.30191  0.76123  1.0000
  C   C1682     1.0  0.67733  0.47414  0.82956  1.0000
  C   C1683     1.0  0.69545  0.47953  0.82498  1.0000
  C   C1684     1.0  0.71223  0.46543  0.82883  1.0000
  C   C1685     1.0  0.71097  0.44578  0.83663  1.0000
  H   H2862     1.0  0.67574  0.15620  0.74198  1.0000
  H   H2863     1.0  0.87611  0.39031  0.94012  1.0000
  H   H2864     1.0  0.72627  0.46957  0.82527  1.0000
  H   H2865     1.0  0.72398  0.43484  0.83925  1.0000
  C   C1686     1.0  0.69231  0.29218  0.82322  1.0000
  C   C1687     1.0  0.86374  0.47927  0.80631  1.0000
  H   H2866     1.0  0.87200  0.41168  0.84649  1.0000
  H   H2867     1.0  0.89124  0.45566  0.92366  1.0000
  H   H2868     1.0  0.86803  0.42543  0.94931  1.0000
  H   H2869     1.0  0.69931  0.42262  0.80610  1.0000
  H   H2870     1.0  0.70729  0.34270  0.80784  1.0000
  C   C1688     1.0  0.80933  0.42591  0.74966  1.0000
  H   H2871     1.0  0.71232  0.42026  0.77130  1.0000
  H   H2872     1.0  0.69246  0.46642  0.79298  1.0000
  C   C1689     1.0  0.81104  0.35631  0.75739  1.0000
  C   C1690     1.0  0.80322  0.36449  0.77392  1.0000
  C   C1691     1.0  0.78446  0.37638  0.77618  1.0000
  C   C1692     1.0  0.77295  0.37929  0.76248  1.0000
  H   H2873     1.0  0.77044  0.29424  0.75796  1.0000
  S   S489      1.0  0.77377  0.47233  0.94687  1.0000
  H   H2874     1.0  0.81151  0.36140  0.78522  1.0000
  H   H2875     1.0  0.77868  0.38283  0.78894  1.0000
  H   H2876     1.0  0.90812  0.40329  0.91527  1.0000
  C   C1693     1.0  0.84612  0.44534  0.83403  1.0000
  H   H2877     1.0  0.74286  0.35232  0.76289  1.0000
  C   C1694     1.0  0.78726  0.43059  0.75875  1.0000
  N   N123      1.0  0.71078  0.45094  0.77059  1.0000
  C   C1695     1.0  0.74948  0.42857  0.90729  1.0000
  H   H2878     1.0  0.89654  0.41720  0.73864  1.0000
  H   H2879     1.0  0.88511  0.37079  0.95842  1.0000
  C   C1696     1.0  0.72656  0.44500  0.78241  1.0000
  C   C1697     1.0  0.80005  0.36012  0.74297  1.0000
  H   H2880     1.0  0.75337  0.45165  0.78457  1.0000
  C   C1698     1.0  0.73949  0.45974  0.77978  1.0000
  H   H2881     1.0  0.91156  0.44037  0.94221  1.0000
  C   C1699     1.0  0.76443  0.29205  0.77393  1.0000
  C   C1700     1.0  0.83199  0.43108  0.84218  1.0000
  H   H2882     1.0  0.70604  0.45971  0.87342  1.0000
  H   H2883     1.0  0.77158  0.27663  0.77955  1.0000
  H   H2884     1.0  0.71994  0.44225  0.79820  1.0000
  H   H2885     1.0  0.87621  0.42211  0.92495  1.0000
  C   C1701     1.0  0.74444  0.42916  0.92917  1.0000
  C   C1702     1.0  0.91952  0.42903  0.90686  1.0000
  H   H2886     1.0  0.79604  0.28511  0.78960  1.0000
  C   C1703     1.0  0.71888  0.45592  0.74898  1.0000
  S   S490      1.0  0.92027  0.42276  0.76172  1.0000
  H   H2887     1.0  0.73222  0.47092  0.78883  1.0000
  H   H2888     1.0  0.91060  0.35464  0.79205  1.0000
  H   H2889     1.0  0.84781  0.45216  0.76849  1.0000
  C   C1704     1.0  0.74245  0.42275  0.87851  1.0000
  C   C1705     1.0  0.76001  0.30583  0.80362  1.0000
  C   C1706     1.0  0.68969  0.42772  0.79531  1.0000
  S   S491      1.0  0.95929  0.44921  0.76745  1.0000
  H   H2890     1.0  0.78524  0.48552  0.88844  1.0000
  H   H2891     1.0  0.92608  0.43844  0.91208  1.0000
  N   N124      1.0  0.86659  0.35526  0.78884  1.0000
  C   C1707     1.0  0.85465  0.34015  0.80040  1.0000
  C   C1708     1.0  0.87902  0.34772  0.77102  1.0000
  C   C1709     1.0  0.85238  0.37398  0.78253  1.0000
  C   C1710     1.0  0.87857  0.35818  0.80175  1.0000
  C   C1711     1.0  0.83922  0.34566  0.81840  1.0000
  C   C1712     1.0  0.89329  0.32775  0.77502  1.0000
  C   C1713     1.0  0.86122  0.39155  0.77014  1.0000
  C   C1714     1.0  0.89719  0.36648  0.79151  1.0000
  H   H2892     1.0  0.84677  0.33645  0.79096  1.0000
  H   H2893     1.0  0.86432  0.32610  0.80597  1.0000
  H   H2894     1.0  0.88783  0.35814  0.76121  1.0000
  H   H2895     1.0  0.86955  0.34618  0.76183  1.0000
  H   H2896     1.0  0.84289  0.37118  0.77404  1.0000
  H   H2897     1.0  0.84237  0.37944  0.79534  1.0000
  H   H2898     1.0  0.86929  0.36791  0.81181  1.0000
  H   H2899     1.0  0.88373  0.34390  0.81133  1.0000
  H   H2900     1.0  0.90096  0.37595  0.93531  1.0000
  H   H2901     1.0  0.73311  0.29715  0.78984  1.0000
  H   H2902     1.0  0.82634  0.35684  0.81420  1.0000
  H   H2903     1.0  0.72537  0.46907  0.74490  1.0000
  C   C1715     1.0  0.92154  0.40249  0.75181  1.0000
  H   H2904     1.0  0.90211  0.32707  0.78570  1.0000
  H   H2905     1.0  0.84913  0.40402  0.76631  1.0000
  H   H2906     1.0  0.87069  0.38840  0.75620  1.0000
  H   H2907     1.0  0.86912  0.39677  0.77836  1.0000
  H   H2908     1.0  0.88129  0.45439  0.82172  1.0000
  H   H2909     1.0  0.89751  0.37443  0.77631  1.0000
  H   H2910     1.0  0.97976  0.41925  0.73726  1.0000
  H   H2911     1.0  0.97047  0.47926  0.84026  1.0000
  C   C1716     1.0  0.70315  0.32866  0.81222  1.0000
  H   H2912     1.0  0.83798  0.43706  0.80230  1.0000
  H   H2913     1.0  0.79622  0.30978  0.78934  1.0000
  C   C1717     1.0  0.84712  0.44812  0.79941  1.0000
  H   H2914     1.0  0.75414  0.44255  0.89953  1.0000
  H   H2915     1.0  0.77943  0.41981  0.75752  1.0000
  S   S492      1.0  0.67776  0.29802  0.78987  1.0000
  H   H2916     1.0  0.87991  0.43818  0.96986  1.0000
  H   H2917     1.0  0.68821  0.27806  0.82752  1.0000
  N   N125      1.0  0.76990  0.30631  0.78253  1.0000
  H   H2918     1.0  0.81556  0.43713  0.75250  1.0000
  H   H2919     1.0  0.90136  0.44133  0.97559  1.0000
  H   H2920     1.0  0.75504  0.43730  0.84950  1.0000
  C   C1718     1.0  0.69409  0.32293  0.80025  1.0000
  C   C1719     1.0  0.88933  0.38289  0.94628  1.0000
  H   H2921     1.0  0.88541  0.31550  0.77997  1.0000
  N   N126      1.0  0.73347  0.42569  0.89904  1.0000
  H   H2922     1.0  0.83347  0.33248  0.82699  1.0000
  H   H2923     1.0  0.75340  0.28700  0.83203  1.0000
  H   H2924     1.0  0.70777  0.44243  0.91515  1.0000
  S   S493      1.0  0.96445  0.40468  0.79447  1.0000
  C   C1720     1.0  0.87146  0.42266  0.81501  1.0000
  H   H2925     1.0  0.80308  0.31710  0.75249  1.0000
  C   C1721     1.0  0.98893  0.48304  0.78261  1.0000
  S   S494      1.0  0.67245  0.24093  0.80562  1.0000
  H   H2926     1.0  0.74411  0.31198  0.80536  1.0000
  C   C1722     1.0  0.87325  0.45714  0.80977  1.0000
  H   H2927     1.0  0.74338  0.41447  0.93847  1.0000
  C   C1723     1.0  0.69513  0.46793  0.77693  1.0000
  H   H2928     1.0  0.74000  0.39482  0.91229  1.0000
  H   H2929     1.0  0.69092  0.43652  0.76435  1.0000
  H   H2930     1.0  0.75647  0.27503  0.81251  1.0000
  C   C1724     1.0  0.78083  0.37153  0.74561  1.0000
  H   H2931     1.0  0.82071  0.43420  0.83326  1.0000
  S   S495      1.0  0.80559  0.47804  0.74787  1.0000
  H   H2932     1.0  0.74405  0.46702  0.76446  1.0000
  Fe  Fe247     1.0  0.98054  0.42967  0.78601  1.0000
  H   H2933     1.0  0.74184  0.45398  0.86523  1.0000
  H   H2934     1.0  0.89236  0.42260  0.83243  1.0000
  H   H2935     1.0  0.69136  0.33264  0.78667  1.0000
  C   C1725     1.0  0.87990  0.42770  0.93621  1.0000
  C   C1726     1.0  0.87753  0.45025  0.92928  1.0000
  H   H2936     1.0  0.80577  0.48057  0.90999  1.0000
  H   H2937     1.0  0.73088  0.44015  0.93302  1.0000
  H   H2938     1.0  0.68748  0.45325  0.89353  1.0000
  H   H2939     1.0  0.82059  0.29750  0.76273  1.0000
  H   H2940     1.0  0.77218  0.47832  0.77933  1.0000
  H   H2941     1.0  0.76284  0.41684  0.90499  1.0000
  H   H2942     1.0  0.72881  0.42689  0.74076  1.0000
  H   H2943     1.0  0.85678  0.48414  0.79342  1.0000
  H   H2944     1.0  0.87540  0.48770  0.80330  1.0000
  C   C1727     1.0  0.76558  0.32695  0.77071  1.0000
  H   H2945     1.0  0.72258  0.45696  0.89697  1.0000
  H   H2946     1.0  0.70198  0.43495  0.88051  1.0000
  C   C1728     1.0  0.72704  0.40724  0.91123  1.0000
  H   H2947     1.0  0.73180  0.42039  0.87125  1.0000
  C   C1729     1.0  0.80971  0.48346  0.86443  1.0000
  H   H2948     1.0  0.69749  0.41043  0.90607  1.0000
  H   H2949     1.0  0.78009  0.44570  0.75253  1.0000
  C   C1730     1.0  0.75179  0.43948  0.86471  1.0000
  C   C1731     1.0  0.71199  0.40021  0.90448  1.0000
  C   C1732     1.0  0.90807  0.42640  0.95131  1.0000
  H   H2950     1.0  0.76739  0.46490  0.91174  1.0000
  H   H2951     1.0  0.90689  0.43779  0.90020  1.0000
  S   S496      1.0  0.72039  0.32201  0.84391  1.0000
  H   H2952     1.0  0.73628  0.43056  0.78042  1.0000
  H   H2953     1.0  0.89860  0.37700  0.79962  1.0000
  H   H2954     1.0  0.90368  0.32525  0.76120  1.0000
  H   H2955     1.0  0.81569  0.41166  0.75855  1.0000
  H   H2956     1.0  0.72019  0.40901  0.92644  1.0000
  H   H2957     1.0  0.88580  0.39925  0.96801  1.0000
  H   H2958     1.0  0.84540  0.35071  0.82826  1.0000
  C   C1733     1.0  0.89531  0.43107  0.97088  1.0000
  H   H2959     1.0  0.70968  0.38595  0.91412  1.0000
  H   H2960     1.0  0.94688  0.38419  0.76263  1.0000
  C   C1734     1.0  0.70174  0.29778  0.83503  1.0000
  H   H2961     1.0  0.93079  0.42328  0.89485  1.0000
  C   C1735     1.0  0.89663  0.39682  0.95441  1.0000
  H   H2962     1.0  0.80456  0.39789  0.73856  1.0000
  H   H2963     1.0  0.88306  0.42198  0.80153  1.0000
  H   H2964     1.0  0.77757  0.27909  0.81902  1.0000
  C   C1736     1.0  0.88219  0.41370  0.83216  1.0000
  H   H2965     1.0  0.89121  0.39897  0.83037  1.0000
  C   C1737     1.0  0.76223  0.28542  0.81728  1.0000
  C   C1738     1.0  0.80094  0.48487  0.77029  1.0000
  H   H2966     1.0  0.86827  0.45783  0.94108  1.0000
  H   H2967     1.0  0.86881  0.43510  0.77590  1.0000
  C   C1739     1.0  0.92237  0.37096  0.73511  1.0000
  C   C1740     1.0  0.85847  0.44910  0.77812  1.0000
  H   H2968     1.0  0.86659  0.46114  0.77304  1.0000
  H   H2969     1.0  0.78559  0.42980  0.77458  1.0000
  H   H2970     1.0  0.76551  0.31547  0.80978  1.0000
  H   H2971     1.0  0.83965  0.41548  0.84361  1.0000
  H   H2972     1.0  0.74028  0.27775  0.77746  1.0000
  H   H2973     1.0  0.88479  0.45460  0.79661  1.0000
  H   H2974     1.0  0.81923  0.47146  0.87283  1.0000
  N   N127      1.0  0.85947  0.44330  0.81458  1.0000
  H   H2975     1.0  0.82404  0.43317  0.85706  1.0000
  C   C1741     1.0  0.75542  0.47612  0.91675  1.0000
  H   H2976     1.0  0.77452  0.33605  0.77342  1.0000
  H   H2977     1.0  0.92775  0.40175  0.92658  1.0000
  C   C1742     1.0  0.74429  0.33874  0.77438  1.0000
  H   H2978     1.0  0.85473  0.44383  0.84525  1.0000
  C   C1743     1.0  0.67598  0.45465  0.83799  1.0000
  H   H2979     1.0  0.73658  0.30249  0.76361  1.0000
  C   C1744     1.0  0.93640  0.36962  0.74597  1.0000
  H   H2980     1.0  0.80286  0.29186  0.75309  1.0000
  H   H2981     1.0  0.66192  0.45052  0.84167  1.0000
  C   C1745     1.0  0.97161  0.48774  0.82501  1.0000
  C   C1746     1.0  0.74238  0.29274  0.77636  1.0000
  C   C1747     1.0  0.78301  0.48367  0.78317  1.0000
  H   H2982     1.0  0.91052  0.38844  0.95921  1.0000
  H   H2983     1.0  0.73342  0.33076  0.77386  1.0000
  C   C1748     1.0  0.93604  0.38536  0.75427  1.0000
  H   H2984     1.0  0.98419  0.48314  0.75417  1.0000
  H   H2985     1.0  0.76988  0.32699  0.75481  1.0000
  H   H2986     1.0  0.68319  0.41516  0.79603  1.0000
  H   H2987     1.0  0.80253  0.47627  0.85721  1.0000
  C   C1749     1.0  0.73477  0.43969  0.74037  1.0000
  H   H2988     1.0  0.74739  0.43480  0.74775  1.0000
  H   H2989     1.0  0.83052  0.44325  0.97892  1.0000
  S   S497      1.0  0.84476  0.40146  0.97922  1.0000
  H   H2990     1.0  0.70678  0.45992  0.74081  1.0000
  H   H2991     1.0  0.82731  0.48534  0.89279  1.0000
  H   H2992     1.0  0.96237  0.48247  0.81830  1.0000
  H   H2993     1.0  0.77194  0.37374  0.73497  1.0000
  Fe  Fe248     1.0  0.66070  0.27358  0.79998  1.0000
  H   H2994     1.0  0.89551  0.41771  0.98265  1.0000
  C   C1750     1.0  0.90759  0.40385  0.74089  1.0000
  H   H2995     1.0  0.84571  0.43655  0.73851  1.0000
  C   C1751     1.0  0.75457  0.48169  0.93409  1.0000
  H   H2996     1.0  0.66434  0.48504  0.82663  1.0000
  C   C1752     1.0  0.74106  0.48559  0.90557  1.0000
  S   S498      1.0  0.66010  0.21836  0.76793  1.0000
  H   H2997     1.0  0.94820  0.44068  0.73383  1.0000
  H   H2998     1.0  0.92678  0.46888  0.73353  1.0000
  H   H2999     1.0  0.67630  0.19113  0.73394  1.0000
  C   C1753     1.0  0.69858  0.48885  0.76762  1.0000
  H   H3000     1.0  0.82980  0.48887  0.92382  1.0000
  H   H3001     1.0  0.84128  0.40409  0.73307  1.0000
  C   C1754     1.0  0.68393  0.61481  0.20615  1.0000
  N   N128      1.0  0.86966  0.50774  0.15325  1.0000
  C   C1755     1.0  0.85786  0.49179  0.22859  1.0000
  H   H3002     1.0  0.84151  0.53661  0.13336  1.0000
  Fe  Fe249     1.0  0.72239  0.54904  0.20785  1.0000
  H   H3003     1.0  0.67922  0.56859  0.23009  1.0000
  S   S499      1.0  0.71164  0.58193  0.20032  1.0000
  Fe  Fe250     1.0  0.75946  0.52030  0.21786  1.0000
  C   C1756     1.0  0.80236  0.49166  0.15251  1.0000
  C   C1757     1.0  0.68016  0.49486  0.19629  1.0000
  S   S500      1.0  0.75166  0.53827  0.18969  1.0000
  S   S501      1.0  0.70921  0.52553  0.20445  1.0000
  H   H3004     1.0  0.71964  0.62155  0.21490  1.0000
  H   H3005     1.0  0.74423  0.57492  0.21845  1.0000
  C   C1758     1.0  0.76830  0.49338  0.15292  1.0000
  H   H3006     1.0  0.78573  0.60551  0.23200  1.0000
  C   C1759     1.0  0.85812  0.52206  0.16612  1.0000
  H   H3007     1.0  0.82654  0.52493  0.16840  1.0000
  H   H3008     1.0  0.85577  0.53722  0.15716  1.0000
  C   C1760     1.0  0.67529  0.61131  0.15842  1.0000
  H   H3009     1.0  0.88276  0.53012  0.13131  1.0000
  H   H3010     1.0  0.68795  0.63724  0.14568  1.0000
  H   H3011     1.0  0.86193  0.52955  0.11401  1.0000
  H   H3012     1.0  0.68306  0.60451  0.17070  1.0000
  H   H3013     1.0  0.87780  0.48940  0.18023  1.0000
  S   S502      1.0  0.74961  0.49399  0.21584  1.0000
  H   H3014     1.0  0.76783  0.58273  0.19237  1.0000
  C   C1761     1.0  0.69733  0.49691  0.15413  1.0000
  H   H3015     1.0  0.67108  0.55477  0.18185  1.0000
  H   H3016     1.0  0.83985  0.52123  0.11846  1.0000
  C   C1762     1.0  0.67548  0.58440  0.22561  1.0000
  H   H3017     1.0  0.83303  0.52625  0.18981  1.0000
  Fe  Fe251     1.0  0.73937  0.51311  0.18920  1.0000
  C   C1763     1.0  0.68889  0.59434  0.21178  1.0000
  C   C1764     1.0  0.91759  0.52681  0.22995  1.0000
  H   H3018     1.0  0.66180  0.64105  0.20919  1.0000
  H   H3019     1.0  0.82054  0.53419  0.22728  1.0000
  H   H3020     1.0  0.86957  0.53968  0.22649  1.0000
  C   C1765     1.0  0.88724  0.51557  0.14067  1.0000
  H   H3021     1.0  0.66246  0.98168  0.20347  1.0000
  S   S503      1.0  0.74338  0.49997  0.16329  1.0000
  S   S504      1.0  0.90277  0.52164  0.20095  1.0000
  H   H3022     1.0  0.69428  0.62259  0.19551  1.0000
  H   H3023     1.0  0.83774  0.50283  0.18410  1.0000
  C   C1766     1.0  0.90091  0.52937  0.22240  1.0000
  H   H3024     1.0  0.67185  0.63813  0.16926  1.0000
  H   H3025     1.0  0.67021  0.57883  0.15134  1.0000
  C   C1767     1.0  0.84999  0.52457  0.12579  1.0000
  C   C1768     1.0  0.67414  0.63357  0.15520  1.0000
  S   S505      1.0  0.95178  0.49277  0.17137  1.0000
  H   H3026     1.0  0.66237  0.64269  0.14757  1.0000
  C   C1769     1.0  0.68073  0.51299  0.14634  1.0000
  H   H3027     1.0  0.74397  0.62465  0.23142  1.0000
  H   H3028     1.0  0.93186  0.52052  0.22221  1.0000
  H   H3029     1.0  0.70415  0.50342  0.16231  1.0000
  H   H3030     1.0  0.68659  0.52635  0.13874  1.0000
  C   C1770     1.0  0.90149  0.51858  0.15174  1.0000
  H   H3031     1.0  0.86648  0.52223  0.17701  1.0000
  H   H3032     1.0  0.91492  0.52194  0.14115  1.0000
  H   H3033     1.0  0.89589  0.50565  0.13053  1.0000
  H   H3034     1.0  0.78366  0.56434  0.20582  1.0000
  H   H3035     1.0  0.68572  0.60562  0.14589  1.0000
  H   H3036     1.0  0.77813  0.50275  0.17397  1.0000
  Fe  Fe252     1.0  0.92724  0.49537  0.19738  1.0000
  H   H3037     1.0  0.86642  0.49490  0.13068  1.0000
  C   C1771     1.0  0.83780  0.51839  0.17751  1.0000
  H   H3038     1.0  0.89502  0.53119  0.15911  1.0000
  C   C1772     1.0  0.78247  0.49645  0.16112  1.0000
  Fe  Fe253     1.0  0.72025  0.50800  0.23132  1.0000
  C   C1773     1.0  0.73532  0.61879  0.20758  1.0000
  H   H3039     1.0  0.81317  0.49421  0.15888  1.0000
  H   H3040     1.0  0.66757  0.62406  0.12165  1.0000
  H   H3041     1.0  0.73787  0.63266  0.19728  1.0000
  C   C1774     1.0  0.66544  0.62531  0.21375  1.0000
  H   H3042     1.0  0.82796  0.49235  0.22930  1.0000
  C   C1775     1.0  0.85773  0.50571  0.13987  1.0000
  H   H3043     1.0  0.67923  0.51035  0.18849  1.0000
  C   C1776     1.0  0.66906  0.57051  0.18209  1.0000
  H   H3044     1.0  0.66890  0.49487  0.21000  1.0000
  H   H3045     1.0  0.90631  0.50537  0.16253  1.0000
  H   H3046     1.0  0.70896  0.49377  0.14119  1.0000
  H   H3047     1.0  0.66829  0.51715  0.15816  1.0000
  H   H3048     1.0  0.99073  0.50251  0.20396  1.0000
  H   H3049     1.0  0.68379  0.57293  0.18130  1.0000
  C   C1777     1.0  0.75649  0.57676  0.22400  1.0000
  H   H3050     1.0  0.66412  0.59959  0.12351  1.0000
  H   H3051     1.0  0.73818  0.60746  0.19882  1.0000
  S   S506      1.0  0.79008  0.51921  0.22091  1.0000
  H   H3052     1.0  0.66141  0.48940  0.18046  1.0000
  C   C1778     1.0  0.77348  0.57886  0.20606  1.0000
  H   H3053     1.0  0.78246  0.58926  0.20552  1.0000
  H   H3054     1.0  0.76351  0.61531  0.21393  1.0000
  H   H3055     1.0  0.84466  0.49983  0.14833  1.0000
  H   H3056     1.0  0.67538  0.50847  0.13548  1.0000
  C   C1779     1.0  0.74885  0.61321  0.22238  1.0000
  H   H3057     1.0  0.85972  0.49848  0.21280  1.0000
  H   H3058     1.0  0.69456  0.48904  0.20059  1.0000
  C   C1780     1.0  0.88247  0.53766  0.23234  1.0000
  C   C1781     1.0  0.65999  0.58319  0.16460  1.0000
  H   H3059     1.0  0.71059  0.57357  0.26756  1.0000
  Fe  Fe254     1.0  0.86581  0.54323  0.29899  1.0000
  S   S507      1.0  0.86567  0.53084  0.33065  1.0000
  S   S508      1.0  0.89515  0.54630  0.28014  1.0000
  Fe  Fe255     1.0  0.82248  0.54524  0.30339  1.0000
  S   S509      1.0  0.81889  0.53266  0.33554  1.0000
  S   S510      1.0  0.79528  0.55380  0.29054  1.0000
  Fe  Fe256     1.0  0.83762  0.55310  0.33566  1.0000
  S   S511      1.0  0.82813  0.57270  0.35778  1.0000
  S   S512      1.0  0.83919  0.56724  0.30397  1.0000
  C   C1782     1.0  0.84710  0.79546  0.40241  1.0000
  C   C1783     1.0  0.84847  0.97404  0.46401  1.0000
  H   H3060     1.0  0.66071  0.78300  0.34178  1.0000
  Fe  Fe257     1.0  0.83579  0.88611  0.44904  1.0000
  S   S513      1.0  0.81329  0.91030  0.43565  1.0000
  S   S514      1.0  0.86405  0.87178  0.43168  1.0000
  Fe  Fe258     1.0  0.80863  0.92226  0.46270  1.0000
  H   H3061     1.0  0.84688  0.54262  0.47992  1.0000
  Fe  Fe259     1.0  0.79227  0.89120  0.45338  1.0000
  S   S515      1.0  0.76739  0.88690  0.44248  1.0000
  H   H3062     1.0  0.83251  0.78844  0.46487  1.0000
  H   H3063     1.0  0.74639  0.70592  0.47496  1.0000
  Fe  Fe260     1.0  0.88913  0.65619  0.42236  1.0000
  S   S516      1.0  0.85841  0.67222  0.43203  1.0000
  S   S517      1.0  0.91429  0.66061  0.43280  1.0000
  Fe  Fe261     1.0  0.87639  0.63234  0.40019  1.0000
  S   S518      1.0  0.84475  0.64680  0.40786  1.0000
  S   S519      1.0  0.88736  0.60836  0.38247  1.0000
  Fe  Fe262     1.0  0.85562  0.67456  0.40143  1.0000
  S   S520      1.0  0.84046  0.70347  0.38607  1.0000
  Fe  Fe263     1.0  0.85029  0.64313  0.43775  1.0000
  S   S521      1.0  0.82666  0.63390  0.46291  1.0000
  S   S522      1.0  0.88708  0.66066  0.39108  1.0000
  S   S523      1.0  0.88126  0.62648  0.43080  1.0000
  Fe  Fe264     1.0  0.71748  0.79250  0.40096  1.0000
  S   S524      1.0  0.70945  0.77095  0.42851  1.0000
  S   S525      1.0  0.70017  0.80197  0.37688  1.0000
  Fe  Fe265     1.0  0.75218  0.79880  0.41388  1.0000
  S   S526      1.0  0.74682  0.77757  0.44234  1.0000
  S   S527      1.0  0.77908  0.81154  0.40800  1.0000
  Fe  Fe266     1.0  0.74179  0.75872  0.42489  1.0000
  S   S528      1.0  0.75323  0.72614  0.43128  1.0000
  Fe  Fe267     1.0  0.71506  0.79188  0.44340  1.0000
  N   N129      1.0  0.74948  0.59307  0.23529  1.0000
  S   S529      1.0  0.74959  0.77865  0.39602  1.0000
  S   S530      1.0  0.72070  0.81470  0.41617  1.0000
  H   H3064     1.0  0.66829  0.75607  0.42913  1.0000
  H   H3065     1.0  0.82288  0.57317  0.46477  1.0000
  C   C1784     1.0  0.78369  0.59132  0.24180  1.0000
  H   H3066     1.0  0.75598  0.70495  0.34466  1.0000
  H   H3067     1.0  0.66449  0.78707  0.43992  1.0000
  C   C1785     1.0  0.91657  0.68459  0.43197  1.0000
  H   H3068     1.0  0.75563  0.60148  0.25932  1.0000
  H   H3069     1.0  0.76125  0.74669  0.32429  1.0000
  C   C1786     1.0  0.92923  0.70615  0.44436  1.0000
  C   C1787     1.0  0.92820  0.68720  0.44352  1.0000
  H   H3070     1.0  0.93801  0.70793  0.45352  1.0000
  H   H3071     1.0  0.93613  0.67451  0.45217  1.0000
  C   C1788     1.0  0.81624  0.70970  0.39866  1.0000
  C   C1789     1.0  0.80719  0.72944  0.39833  1.0000
  C   C1790     1.0  0.78796  0.73454  0.40871  1.0000
  C   C1791     1.0  0.77754  0.71994  0.41891  1.0000
  C   C1792     1.0  0.78649  0.70021  0.41906  1.0000
  C   C1793     1.0  0.80591  0.69508  0.40916  1.0000
  H   H3072     1.0  0.81518  0.74078  0.39037  1.0000
  H   H3073     1.0  0.78134  0.74977  0.40890  1.0000
  H   H3074     1.0  0.77842  0.68888  0.42678  1.0000
  H   H3075     1.0  0.81273  0.67984  0.40937  1.0000
  C   C1794     1.0  0.90774  0.72005  0.42133  1.0000
  S   S531      1.0  0.91929  0.74668  0.43468  1.0000
  H   H3076     1.0  0.71917  0.76184  0.47582  1.0000
  C   C1795     1.0  0.66664  0.82940  0.41376  1.0000
  H   H3077     1.0  0.84596  0.78135  0.39974  1.0000
  C   C1796     1.0  0.66910  0.75960  0.36530  1.0000
  H   H3078     1.0  0.99229  0.78000  0.48086  1.0000
  H   H3079     1.0  0.81424  0.49183  0.33866  1.0000
  H   H3080     1.0  0.87273  0.83431  0.41818  1.0000
  S   S532      1.0  0.84935  0.52259  0.29525  1.0000
  H   H3081     1.0  0.75624  0.71785  0.31964  1.0000
  H   H3082     1.0  0.71913  0.59281  0.23655  1.0000
  C   C1797     1.0  0.84632  0.84013  0.40816  1.0000
  C   C1798     1.0  0.74732  0.83078  0.46826  1.0000
  C   C1799     1.0  0.76201  0.59038  0.24993  1.0000
  H   H3083     1.0  0.86925  0.77644  0.41807  1.0000
  S   S533      1.0  0.80006  0.95418  0.46573  1.0000
  H   H3084     1.0  0.77570  0.84786  0.47226  1.0000
  H   H3085     1.0  0.85544  0.50395  0.23621  1.0000
  H   H3086     1.0  0.66529  0.83500  0.39831  1.0000
  H   H3087     1.0  0.93016  0.49419  0.26979  1.0000
  C   C1800     1.0  0.87855  0.85491  0.44724  1.0000
  C   C1801     1.0  0.87289  0.85360  0.46738  1.0000
  H   H3088     1.0  0.77244  0.79683  0.47988  1.0000
  H   H3089     1.0  0.83557  0.49918  0.26418  1.0000
  C   C1802     1.0  0.90697  0.82854  0.45212  1.0000
  C   C1803     1.0  0.89575  0.84252  0.43959  1.0000
  S   S534      1.0  0.69458  0.80039  0.47048  1.0000
  S   S535      1.0  0.83304  0.89969  0.47452  1.0000
  H   H3090     1.0  0.92020  0.81892  0.44623  1.0000
  H   H3091     1.0  0.90042  0.84379  0.42399  1.0000
  C   C1804     1.0  0.78687  0.69153  0.46882  1.0000
  H   H3092     1.0  0.81261  0.70175  0.47030  1.0000
  H   H3093     1.0  0.88531  0.78269  0.43927  1.0000
  S   S536      1.0  0.70086  0.48996  0.25407  1.0000
  H   H3094     1.0  0.84349  0.77636  0.44490  1.0000
  H   H3095     1.0  0.92874  0.53078  0.25321  1.0000
  H   H3096     1.0  0.76315  0.82518  0.46303  1.0000
  C   C1805     1.0  0.77161  0.86698  0.43106  1.0000
  C   C1806     1.0  0.75654  0.86443  0.42363  1.0000
  C   C1807     1.0  0.75881  0.84767  0.41615  1.0000
  C   C1808     1.0  0.77620  0.83338  0.41602  1.0000
  C   C1809     1.0  0.79153  0.83630  0.42275  1.0000
  C   C1810     1.0  0.78925  0.85302  0.43030  1.0000
  H   H3097     1.0  0.74291  0.87524  0.42407  1.0000
  H   H3098     1.0  0.74702  0.84569  0.41068  1.0000
  H   H3099     1.0  0.80499  0.82537  0.42251  1.0000
  H   H3100     1.0  0.80100  0.85498  0.43578  1.0000
  C   C1811     1.0  0.81041  0.54151  0.25575  1.0000
  H   H3101     1.0  0.77229  0.73561  0.34429  1.0000
  H   H3102     1.0  0.81840  0.67975  0.46049  1.0000
  C   C1812     1.0  0.84484  0.58137  0.36558  1.0000
  C   C1813     1.0  0.86507  0.57391  0.36127  1.0000
  C   C1814     1.0  0.87795  0.58204  0.36689  1.0000
  C   C1815     1.0  0.87075  0.59792  0.37643  1.0000
  C   C1816     1.0  0.85055  0.60529  0.38074  1.0000
  C   C1817     1.0  0.83763  0.59683  0.37565  1.0000
  H   H3103     1.0  0.87075  0.56192  0.35360  1.0000
  H   H3104     1.0  0.89357  0.57618  0.36359  1.0000
  H   H3105     1.0  0.84487  0.61772  0.38768  1.0000
  H   H3106     1.0  0.82202  0.60275  0.37891  1.0000
  H   H3107     1.0  0.88466  0.49752  0.25245  1.0000
  C   C1818     1.0  0.79491  0.54259  0.27190  1.0000
  C   C1819     1.0  0.77792  0.53645  0.27232  1.0000
  H   H3108     1.0  0.81272  0.49883  0.26060  1.0000
  H   H3109     1.0  0.87560  0.82583  0.39655  1.0000
  H   H3110     1.0  0.76591  0.53732  0.28480  1.0000
  C   C1820     1.0  0.76228  0.71600  0.33279  1.0000
  C   C1821     1.0  0.81601  0.96804  0.46773  1.0000
  H   H3111     1.0  0.84310  0.71044  0.46717  1.0000
  H   H3112     1.0  0.67278  0.78874  0.41471  1.0000
  H   H3113     1.0  0.78487  0.68090  0.46111  1.0000
  C   C1822     1.0  0.67794  0.79136  0.35745  1.0000
  C   C1823     1.0  0.68823  0.78549  0.37272  1.0000
  C   C1824     1.0  0.68874  0.76670  0.38440  1.0000
  C   C1825     1.0  0.67918  0.75384  0.38072  1.0000
  C   C1826     1.0  0.91583  0.53261  0.24744  1.0000
  H   H3114     1.0  0.67746  0.80590  0.34836  1.0000
  H   H3115     1.0  0.69663  0.76199  0.39617  1.0000
  H   H3116     1.0  0.76234  0.57585  0.26000  1.0000
  C   C1827     1.0  0.72878  0.59239  0.24648  1.0000
  H   H3117     1.0  0.89238  0.49747  0.31214  1.0000
  C   C1828     1.0  0.87488  0.69854  0.46574  1.0000
  H   H3118     1.0  0.80978  0.70308  0.44616  1.0000
  S   S537      1.0  0.78549  0.90514  0.47930  1.0000
  C   C1829     1.0  0.79160  0.52865  0.24035  1.0000
  C   C1830     1.0  0.85733  0.71295  0.45787  1.0000
  H   H3119     1.0  0.85827  0.77873  0.46062  1.0000
  H   H3120     1.0  0.83512  0.58797  0.47136  1.0000
  H   H3121     1.0  0.88696  0.60671  0.27514  1.0000
  H   H3122     1.0  0.87655  0.55965  0.46227  1.0000
  H   H3123     1.0  0.87713  0.68468  0.46074  1.0000
  H   H3124     1.0  0.88798  0.70465  0.45796  1.0000
  C   C1831     1.0  0.89814  0.62367  0.32646  1.0000
  C   C1832     1.0  0.83640  0.96200  0.46300  1.0000
  H   H3125     1.0  0.88734  0.62893  0.33891  1.0000
  H   H3126     1.0  0.72215  0.60556  0.25315  1.0000
  C   C1833     1.0  0.82536  0.48929  0.26656  1.0000
  H   H3127     1.0  0.84735  0.56184  0.41015  1.0000
  H   H3128     1.0  0.85329  0.66303  0.30431  1.0000
  H   H3129     1.0  0.73546  0.80599  0.46692  1.0000
  H   H3130     1.0  0.85780  0.71116  0.44298  1.0000
  C   C1834     1.0  0.72635  0.57424  0.26301  1.0000
  H   H3131     1.0  0.87787  0.79309  0.39759  1.0000
  S   S538      1.0  0.73095  0.53265  0.23627  1.0000
  C   C1835     1.0  0.84851  0.80627  0.44023  1.0000
  H   H3132     1.0  0.84286  0.94830  0.45815  1.0000
  H   H3133     1.0  0.67975  0.73925  0.38972  1.0000
  C   C1836     1.0  0.77637  0.52924  0.25673  1.0000
  C   C1837     1.0  0.88407  0.79829  0.43151  1.0000
  H   H3134     1.0  0.90475  0.81409  0.40861  1.0000
  H   H3135     1.0  0.85823  0.72838  0.45653  1.0000
  H   H3136     1.0  0.87757  0.65836  0.30903  1.0000
  H   H3137     1.0  0.88372  0.80662  0.44261  1.0000
  H   H3138     1.0  0.66012  0.69047  0.25462  1.0000
  H   H3139     1.0  0.86725  0.54233  0.41509  1.0000
  C   C1838     1.0  0.89733  0.54036  0.25768  1.0000
  H   H3140     1.0  0.83330  0.79994  0.41258  1.0000
  S   S539      1.0  0.95105  0.77375  0.45258  1.0000
  H   H3141     1.0  0.79077  0.58970  0.25423  1.0000
  C   C1839     1.0  0.84583  0.78616  0.45324  1.0000
  H   H3142     1.0  0.74480  0.84671  0.46148  1.0000
  H   H3143     1.0  0.84594  0.67658  0.47739  1.0000
  H   H3144     1.0  0.90632  0.78917  0.40637  1.0000
  H   H3145     1.0  0.84772  0.80635  0.38840  1.0000
  H   H3146     1.0  0.86636  0.54905  0.25793  1.0000
  C   C1840     1.0  0.86609  0.82631  0.41126  1.0000
  H   H3147     1.0  0.86387  0.62471  0.47532  1.0000
  H   H3148     1.0  0.83439  0.81319  0.43556  1.0000
  C   C1841     1.0  0.90365  0.79899  0.41670  1.0000
  H   H3149     1.0  0.89981  0.73272  0.41267  1.0000
  H   H3150     1.0  0.82346  0.54645  0.25526  1.0000
  H   H3151     1.0  0.76339  0.52413  0.25741  1.0000
  Fe  Fe268     1.0  0.93066  0.78232  0.47967  1.0000
  H   H3152     1.0  0.84964  0.81579  0.44964  1.0000
  H   H3153     1.0  0.73445  0.56033  0.25841  1.0000
  H   H3154     1.0  0.83778  0.84489  0.42186  1.0000
  H   H3155     1.0  0.91583  0.79354  0.42478  1.0000
  N   N130      1.0  0.87137  0.62014  0.31029  1.0000
  C   C1842     1.0  0.86598  0.60445  0.30360  1.0000
  C   C1843     1.0  0.87331  0.63744  0.29345  1.0000
  C   C1844     1.0  0.88134  0.59546  0.28736  1.0000
  C   C1845     1.0  0.83441  0.63072  0.32436  1.0000
  C   C1846     1.0  0.86911  0.65787  0.29853  1.0000
  H   H3156     1.0  0.85224  0.61025  0.29783  1.0000
  H   H3157     1.0  0.90260  0.60739  0.30450  1.0000
  H   H3158     1.0  0.88829  0.63515  0.28415  1.0000
  H   H3159     1.0  0.86325  0.63887  0.28357  1.0000
  Fe  Fe269     1.0  0.96828  0.75144  0.47357  1.0000
  H   H3160     1.0  0.89373  0.58486  0.29324  1.0000
  H   H3161     1.0  0.87444  0.58704  0.28120  1.0000
  H   H3162     1.0  0.83283  0.64066  0.31012  1.0000
  H   H3163     1.0  0.82912  0.61723  0.32553  1.0000
  S   S540      1.0  0.95191  0.72787  0.47647  1.0000
  H   H3164     1.0  0.87320  0.66869  0.28502  1.0000
  H   H3165     1.0  0.74376  0.82039  0.44401  1.0000
  N   N131      1.0  0.74034  0.74291  0.35156  1.0000
  C   C1847     1.0  0.74168  0.76155  0.35653  1.0000
  C   C1848     1.0  0.73670  0.72836  0.37054  1.0000
  C   C1849     1.0  0.72333  0.74762  0.34136  1.0000
  C   C1850     1.0  0.75940  0.73593  0.33835  1.0000
  C   C1851     1.0  0.74129  0.77992  0.33987  1.0000
  C   C1852     1.0  0.75299  0.72234  0.38246  1.0000
  C   C1853     1.0  0.71379  0.73060  0.34208  1.0000
  H   H3166     1.0  0.72951  0.76557  0.36874  1.0000
  H   H3167     1.0  0.75541  0.75950  0.36179  1.0000
  H   H3168     1.0  0.73435  0.71455  0.36848  1.0000
  H   H3169     1.0  0.72281  0.73434  0.38011  1.0000
  H   H3170     1.0  0.71112  0.75867  0.34769  1.0000
  H   H3171     1.0  0.72761  0.75458  0.32572  1.0000
  H   H3172     1.0  0.72703  0.78484  0.33510  1.0000
  H   H3173     1.0  0.74301  0.79224  0.34541  1.0000
  H   H3174     1.0  0.75345  0.77777  0.32721  1.0000
  H   H3175     1.0  0.76726  0.71540  0.37432  1.0000
  H   H3176     1.0  0.75471  0.73488  0.38756  1.0000
  H   H3177     1.0  0.74887  0.71131  0.39578  1.0000
  H   H3178     1.0  0.70264  0.73608  0.33274  1.0000
  H   H3179     1.0  0.70570  0.72544  0.35700  1.0000
  H   H3180     1.0  0.72431  0.71808  0.33663  1.0000
  H   H3181     1.0  0.77822  0.70942  0.32956  1.0000
  N   N132      1.0  0.85226  0.57392  0.44754  1.0000
  C   C1854     1.0  0.83748  0.57396  0.46656  1.0000
  C   C1855     1.0  0.84611  0.59305  0.43391  1.0000
  C   C1856     1.0  0.87191  0.57322  0.45164  1.0000
  C   C1857     1.0  0.85264  0.55619  0.43992  1.0000
  N   N133      1.0  0.86567  0.80579  0.42319  1.0000
  C   C1858     1.0  0.82506  0.59728  0.43041  1.0000
  C   C1859     1.0  0.88933  0.57342  0.43419  1.0000
  C   C1860     1.0  0.85990  0.55729  0.41770  1.0000
  H   H3182     1.0  0.89847  0.49766  0.27989  1.0000
  H   H3183     1.0  0.77739  0.70558  0.46322  1.0000
  H   H3184     1.0  0.85605  0.59432  0.41947  1.0000
  H   H3185     1.0  0.84723  0.60556  0.43956  1.0000
  H   H3186     1.0  0.87092  0.58574  0.45849  1.0000
  S   S541      1.0  0.81506  0.86628  0.46491  1.0000
  H   H3187     1.0  0.86170  0.54281  0.44752  1.0000
  H   H3188     1.0  0.83757  0.55335  0.44323  1.0000
  C   C1861     1.0  0.86570  0.79213  0.41058  1.0000
  H   H3189     1.0  0.72109  0.83001  0.45858  1.0000
  C   C1862     1.0  0.66841  0.77845  0.35372  1.0000
  H   H3190     1.0  0.82200  0.58483  0.42626  1.0000
  H   H3191     1.0  0.81403  0.60124  0.44336  1.0000
  H   H3192     1.0  0.82301  0.61025  0.41836  1.0000
  H   H3193     1.0  0.88676  0.58616  0.42214  1.0000
  H   H3194     1.0  0.89344  0.55952  0.42884  1.0000
  H   H3195     1.0  0.90230  0.57458  0.43903  1.0000
  H   H3196     1.0  0.84919  0.85373  0.39753  1.0000
  H   H3197     1.0  0.87058  0.56669  0.41043  1.0000
  H   H3198     1.0  0.83732  0.83374  0.40229  1.0000
  C   C1863     1.0  0.89058  0.61118  0.31690  1.0000
  C   C1864     1.0  0.85568  0.62542  0.32745  1.0000
  H   H3199     1.0  0.86290  0.59211  0.31612  1.0000
  C   C1865     1.0  0.91896  0.72266  0.43331  1.0000
  Fe  Fe270     1.0  0.84726  0.51168  0.32740  1.0000
  H   H3200     1.0  0.85793  0.63770  0.33259  1.0000
  H   H3201     1.0  0.82465  0.63811  0.33610  1.0000
  C   C1866     1.0  0.90640  0.70108  0.42077  1.0000
  C   C1867     1.0  0.73613  0.82120  0.45918  1.0000
  H   H3202     1.0  0.86423  0.96954  0.45990  1.0000
  C   C1868     1.0  0.88065  0.54286  0.25015  1.0000
  H   H3203     1.0  0.88960  0.59703  0.32748  1.0000
  H   H3204     1.0  0.90352  0.63599  0.31559  1.0000
  H   H3205     1.0  0.89744  0.69921  0.41178  1.0000
  H   H3206     1.0  0.91097  0.61435  0.33260  1.0000
  Fe  Fe271     1.0  0.93312  0.75086  0.45767  1.0000
  H   H3207     1.0  0.67981  0.81742  0.41464  1.0000
  C   C1869     1.0  0.90145  0.82765  0.47223  1.0000
  H   H3208     1.0  0.85648  0.61299  0.34006  1.0000
  H   H3209     1.0  0.73106  0.57525  0.27607  1.0000
  C   C1870     1.0  0.88460  0.84039  0.47978  1.0000
  H   H3210     1.0  0.85967  0.86303  0.47342  1.0000
  C   C1871     1.0  0.80819  0.69416  0.46125  1.0000
  H   H3211     1.0  0.73251  0.49752  0.30756  1.0000
  C   C1872     1.0  0.80864  0.53478  0.23986  1.0000
  C   C1873     1.0  0.80783  0.98588  0.47393  1.0000
  H   H3212     1.0  0.80717  0.49652  0.29368  1.0000
  H   H3213     1.0  0.91849  0.49530  0.30302  1.0000
  H   H3214     1.0  0.89955  0.66207  0.47320  1.0000
  H   H3215     1.0  0.66918  0.84157  0.41891  1.0000
  H   H3216     1.0  0.84040  0.98099  0.40604  1.0000
  H   H3217     1.0  0.88024  0.72386  0.48235  1.0000
  H   H3218     1.0  0.74933  0.49003  0.28683  1.0000
  H   H3219     1.0  0.79171  0.57886  0.23462  1.0000
  H   H3220     1.0  0.76093  0.56252  0.23378  1.0000
  H   H3221     1.0  0.79789  0.64006  0.62784  1.0000
  N   N134      1.0  0.87347  0.69514  0.48737  1.0000
  S   S542      1.0  0.82073  0.54379  0.66855  1.0000
  C   C1874     1.0  0.85470  0.50931  0.63646  1.0000
  C   C1875     1.0  0.67791  0.70804  0.68552  1.0000
  H   H3222     1.0  0.71799  0.84893  0.52091  1.0000
  H   H3223     1.0  0.88759  0.56351  0.59615  1.0000
  H   H3224     1.0  0.77639  0.71100  0.63493  1.0000
  H   H3225     1.0  0.96123  0.68186  0.55967  1.0000
  H   H3226     1.0  0.86554  0.57725  0.60908  1.0000
  H   H3227     1.0  0.80087  0.70836  0.59350  1.0000
  H   H3228     1.0  0.77794  0.70206  0.60397  1.0000
  H   H3229     1.0  0.69323  0.76201  0.67118  1.0000
  Fe  Fe272     1.0  0.88390  0.63401  0.55295  1.0000
  S   S543      1.0  0.86424  0.63536  0.53316  1.0000
  S   S544      1.0  0.91449  0.63783  0.53875  1.0000
  Fe  Fe273     1.0  0.85311  0.62568  0.58927  1.0000
  S   S545      1.0  0.83073  0.62609  0.57265  1.0000
  S   S546      1.0  0.84781  0.62227  0.62184  1.0000
  Fe  Fe274     1.0  0.85590  0.60898  0.55430  1.0000
  S   S547      1.0  0.85181  0.58547  0.54174  1.0000
  Fe  Fe275     1.0  0.84090  0.65253  0.55276  1.0000
  S   S548      1.0  0.81919  0.67766  0.53932  1.0000
  S   S549      1.0  0.87756  0.60596  0.57269  1.0000
  S   S550      1.0  0.86122  0.65371  0.57090  1.0000
  Fe  Fe276     1.0  0.73865  0.80184  0.56870  1.0000
  S   S551      1.0  0.75844  0.78239  0.54891  1.0000
  S   S552      1.0  0.73129  0.83435  0.55743  1.0000
  Fe  Fe277     1.0  0.73228  0.76826  0.60261  1.0000
  S   S553      1.0  0.75157  0.74556  0.58605  1.0000
  S   S554      1.0  0.71960  0.76088  0.63469  1.0000
  Fe  Fe278     1.0  0.77186  0.76650  0.57466  1.0000
  S   S555      1.0  0.80454  0.75528  0.57002  1.0000
  Fe  Fe279     1.0  0.73668  0.76309  0.56147  1.0000
  S   S556      1.0  0.73095  0.74678  0.54176  1.0000
  S   S557      1.0  0.75407  0.78774  0.59356  1.0000
  S   S558      1.0  0.71534  0.78404  0.57904  1.0000
  C   C1876     1.0  0.91665  0.66173  0.53727  1.0000
  C   C1877     1.0  0.90642  0.67171  0.55222  1.0000
  C   C1878     1.0  0.90722  0.69129  0.55037  1.0000
  C   C1879     1.0  0.91785  0.70101  0.53336  1.0000
  C   C1880     1.0  0.67179  0.67860  0.70952  1.0000
  H   H3230     1.0  0.74138  0.70906  0.50006  1.0000
  H   H3231     1.0  0.89818  0.66424  0.56536  1.0000
  H   H3232     1.0  0.77403  0.67334  0.62793  1.0000
  N   N135      1.0  0.74175  0.82818  0.49011  1.0000
  C   C1881     1.0  0.81643  0.70010  0.54589  1.0000
  C   C1882     1.0  0.83094  0.70391  0.55310  1.0000
  C   C1883     1.0  0.82783  0.72151  0.55941  1.0000
  C   C1884     1.0  0.80997  0.73504  0.55899  1.0000
  C   C1885     1.0  0.79578  0.73150  0.55112  1.0000
  C   C1886     1.0  0.79907  0.71414  0.54446  1.0000
  H   H3233     1.0  0.84442  0.69317  0.55416  1.0000
  H   H3234     1.0  0.83889  0.72422  0.56541  1.0000
  H   H3235     1.0  0.78204  0.74194  0.55049  1.0000
  H   H3236     1.0  0.78776  0.71132  0.53890  1.0000
  C   C1887     1.0  0.78725  0.84071  0.54661  1.0000
  C   C1888     1.0  0.79224  0.70151  0.60741  1.0000
  C   C1889     1.0  0.70672  0.77960  0.52459  1.0000
  Fe  Fe280     1.0  0.83692  0.52403  0.69154  1.0000
  H   H3237     1.0  0.81141  0.94226  0.56475  1.0000
  C   C1890     1.0  0.75266  0.84374  0.54832  1.0000
  H   H3238     1.0  0.84300  0.69567  0.50188  1.0000
  H   H3239     1.0  0.67215  0.72089  0.67484  1.0000
  H   H3240     1.0  0.78121  0.68186  0.58482  1.0000
  H   H3241     1.0  0.77009  0.82048  0.56591  1.0000
  N   N136      1.0  0.78098  0.68478  0.49060  1.0000
  C   C1891     1.0  0.82738  0.56630  0.65680  1.0000
  C   C1892     1.0  0.84113  0.57287  0.66260  1.0000
  C   C1893     1.0  0.84704  0.59034  0.65204  1.0000
  C   C1894     1.0  0.83966  0.60093  0.63538  1.0000
  C   C1895     1.0  0.82583  0.59441  0.62968  1.0000
  C   C1896     1.0  0.81946  0.57731  0.64059  1.0000
  H   H3242     1.0  0.84728  0.56445  0.67512  1.0000
  H   H3243     1.0  0.85771  0.59540  0.65651  1.0000
  H   H3244     1.0  0.81994  0.60262  0.61696  1.0000
  H   H3245     1.0  0.80870  0.57234  0.63618  1.0000
  H   H3246     1.0  0.82427  0.54260  0.59219  1.0000
  H   H3247     1.0  0.98310  0.66508  0.51109  1.0000
  C   C1897     1.0  0.97053  0.67472  0.54758  1.0000
  C   C1898     1.0  0.77497  0.92575  0.52580  1.0000
  H   H3248     1.0  0.85592  0.90382  0.51042  1.0000
  H   H3249     1.0  0.86005  0.67741  0.51384  1.0000
  C   C1899     1.0  0.69467  0.76000  0.64173  1.0000
  H   H3250     1.0  0.88641  0.71309  0.51438  1.0000
  C   C1900     1.0  0.71571  0.76692  0.48932  1.0000
  H   H3251     1.0  0.69158  0.75739  0.61380  1.0000
  S   S559      1.0  0.94931  0.76207  0.50001  1.0000
  H   H3252     1.0  0.66694  0.83719  0.60591  1.0000
  H   H3253     1.0  0.84268  0.90021  0.53507  1.0000
  C   C1901     1.0  0.92789  0.67124  0.52057  1.0000
  H   H3254     1.0  0.71120  0.82867  0.49144  1.0000
  C   C1902     1.0  0.66889  0.82508  0.66275  1.0000
  C   C1903     1.0  0.90011  0.66285  0.48803  1.0000
  H   H3255     1.0  0.80074  0.71624  0.62640  1.0000
  H   H3256     1.0  0.68771  0.67345  0.70373  1.0000
  H   H3257     1.0  0.82499  0.81927  0.52381  1.0000
  C   C1904     1.0  0.82089  0.61111  0.49932  1.0000
  H   H3258     1.0  0.82908  0.70763  0.60307  1.0000
  N   N137      1.0  0.80240  0.68061  0.61429  1.0000
  H   H3259     1.0  0.97623  0.72415  0.50814  1.0000
  H   H3260     1.0  0.93570  0.69865  0.50504  1.0000
  C   C1905     1.0  0.68635  0.81180  0.61884  1.0000
  H   H3261     1.0  0.87694  0.79950  0.51310  1.0000
  H   H3262     1.0  0.80344  0.64303  0.52083  1.0000
  H   H3263     1.0  0.77053  0.92131  0.54183  1.0000
  H   H3264     1.0  0.83390  0.89506  0.51612  1.0000
  C   C1906     1.0  0.82093  0.67978  0.62070  1.0000
  C   C1907     1.0  0.85905  0.60664  0.50422  1.0000
  H   H3265     1.0  0.79476  0.65489  0.48736  1.0000
  H   H3266     1.0  0.83460  0.83006  0.54616  1.0000
  H   H3267     1.0  0.84517  0.54421  0.57191  1.0000
  H   H3268     1.0  0.80039  0.83321  0.55206  1.0000
  H   H3269     1.0  0.70328  0.78452  0.53819  1.0000
  C   C1908     1.0  0.79585  0.64887  0.63894  1.0000
  H   H3270     1.0  0.82679  0.56546  0.57629  1.0000
  N   N138      1.0  0.84859  0.79447  0.53069  1.0000
  C   C1909     1.0  0.85383  0.80033  0.54695  1.0000
  C   C1910     1.0  0.99055  0.68102  0.54064  1.0000
  H   H3271     1.0  0.85379  0.82489  0.55914  1.0000
  H   H3272     1.0  0.69691  0.72427  0.69061  1.0000
  C   C1911     1.0  0.69812  0.79114  0.50884  1.0000
  H   H3273     1.0  0.79771  0.69646  0.50399  1.0000
  C   C1912     1.0  0.85192  0.77237  0.53526  1.0000
  H   H3274     1.0  0.76969  0.72920  0.50524  1.0000
  H   H3275     1.0  0.88599  0.56611  0.62033  1.0000
  H   H3276     1.0  0.71681  0.85229  0.48610  1.0000
  C   C1913     1.0  0.88766  0.53683  0.57703  1.0000
  H   H3277     1.0  0.84844  0.68961  0.61242  1.0000
  C   C1914     1.0  0.76537  0.79384  0.49545  1.0000
  C   C1915     1.0  0.82714  0.80337  0.53074  1.0000
  C   C1916     1.0  0.78236  0.69901  0.50200  1.0000
  C   C1917     1.0  0.85267  0.66960  0.49027  1.0000
  H   H3278     1.0  0.89189  0.52895  0.56479  1.0000
  H   H3279     1.0  0.73016  0.69324  0.49359  1.0000
  S   S560      1.0  0.80992  0.86430  0.51996  1.0000
  C   C1918     1.0  0.87096  0.71492  0.51334  1.0000
  H   H3280     1.0  0.87826  0.76285  0.54840  1.0000
  C   C1919     1.0  0.86132  0.80243  0.51182  1.0000
  C   C1920     1.0  0.82658  0.59975  0.51657  1.0000
  H   H3281     1.0  0.81007  0.66726  0.49311  1.0000
  N   N139      1.0  0.66282  0.69560  0.69508  1.0000
  Fe  Fe281     1.0  0.93158  0.74052  0.50135  1.0000
  H   H3282     1.0  0.83909  0.93537  0.51840  1.0000
  H   H3283     1.0  0.75237  0.83372  0.51307  1.0000
  C   C1921     1.0  0.83540  0.69165  0.60610  1.0000
  C   C1922     1.0  0.78757  0.71527  0.62189  1.0000
  H   H3284     1.0  0.70026  0.81627  0.61055  1.0000
  H   H3285     1.0  0.68905  0.80277  0.63314  1.0000
  C   C1923     1.0  0.86083  0.79599  0.49334  1.0000
  H   H3286     1.0  0.78603  0.67812  0.64402  1.0000
  H   H3287     1.0  0.83915  0.51909  0.61311  1.0000
  H   H3288     1.0  0.78106  0.65848  0.60179  1.0000
  S   S561      1.0  0.83778  0.49192  0.69564  1.0000
  H   H3289     1.0  0.89935  0.69897  0.56200  1.0000
  N   N140      1.0  0.80895  0.93111  0.52641  1.0000
  C   C1924     1.0  0.79745  0.92115  0.51868  1.0000
  C   C1925     1.0  0.82991  0.92680  0.51546  1.0000
  C   C1926     1.0  0.68521  0.71635  0.69932  1.0000
  C   C1927     1.0  0.80691  0.92300  0.54802  1.0000
  C   C1928     1.0  0.97422  0.71304  0.52197  1.0000
  H   H3290     1.0  0.66323  0.82574  0.67840  1.0000
  H   H3291     1.0  0.93581  0.66352  0.50898  1.0000
  C   C1929     1.0  0.81957  0.92906  0.55869  1.0000
  H   H3292     1.0  0.80608  0.61289  0.49750  1.0000
  H   H3293     1.0  0.80212  0.90494  0.52251  1.0000
  C   C1930     1.0  0.84555  0.52614  0.62120  1.0000
  C   C1931     1.0  0.77452  0.83851  0.48711  1.0000
  C   C1932     1.0  0.79471  0.66541  0.49624  1.0000
  H   H3294     1.0  0.76600  0.72517  0.48345  1.0000
  H   H3295     1.0  0.79151  0.92747  0.55570  1.0000
  H   H3296     1.0  0.80954  0.90665  0.55135  1.0000
  H   H3297     1.0  0.96206  0.67719  0.53618  1.0000
  H   H3298     1.0  0.81135  0.57226  0.72640  1.0000
  H   H3299     1.0  0.81685  0.67770  0.58480  1.0000
  H   H3300     1.0  0.84264  0.76726  0.54964  1.0000
  H   H3301     1.0  0.69107  0.69967  0.67693  1.0000
  H   H3302     1.0  0.85711  0.81872  0.50833  1.0000
  C   C1933     1.0  0.66992  0.83029  0.62079  1.0000
  H   H3303     1.0  0.81414  0.77944  0.52947  1.0000
  Fe  Fe282     1.0  0.81021  0.88179  0.48929  1.0000
  H   H3304     1.0  0.76849  0.91715  0.51940  1.0000
  H   H3305     1.0  0.83379  0.93178  0.54962  1.0000
  H   H3306     1.0  0.82337  0.91687  0.57097  1.0000
  H   H3307     1.0  0.67166  0.83975  0.65519  1.0000
  C   C1934     1.0  0.85012  0.82262  0.54604  1.0000
  N   N141      1.0  0.85914  0.53874  0.60739  1.0000
  H   H3308     1.0  0.78647  0.95656  0.53296  1.0000
  C   C1935     1.0  0.84659  0.55618  0.59650  1.0000
  C   C1936     1.0  0.86943  0.54532  0.61950  1.0000
  C   C1937     1.0  0.87365  0.52640  0.59395  1.0000
  C   C1938     1.0  0.81329  0.96693  0.52204  1.0000
  C   C1939     1.0  0.83519  0.55146  0.58361  1.0000
  C   C1940     1.0  0.87758  0.56407  0.61042  1.0000
  H   H3309     1.0  0.86464  0.70318  0.52418  1.0000
  H   H3310     1.0  0.82919  0.55710  0.49579  1.0000
  H   H3311     1.0  0.95235  0.73286  0.53886  1.0000
  H   H3312     1.0  0.85514  0.56698  0.58687  1.0000
  H   H3313     1.0  0.83571  0.56454  0.60690  1.0000
  H   H3314     1.0  0.85930  0.54832  0.63331  1.0000
  H   H3315     1.0  0.88179  0.53344  0.62402  1.0000
  H   H3316     1.0  0.88329  0.51429  0.60228  1.0000
  H   H3317     1.0  0.86621  0.51853  0.58766  1.0000
  C   C1941     1.0  0.74485  0.80689  0.50032  1.0000
  H   H3318     1.0  0.78126  0.73036  0.61462  1.0000
  C   C1942     1.0  0.92798  0.69106  0.51837  1.0000
  C   C1943     1.0  0.71161  0.83877  0.51651  1.0000
  H   H3319     1.0  0.81705  0.65513  0.60151  1.0000
  S   S562      1.0  0.91793  0.72567  0.53100  1.0000
  H   H3320     1.0  0.81756  0.68467  0.63478  1.0000
  C   C1944     1.0  0.71967  0.76163  0.52267  1.0000
  H   H3321     1.0  0.73918  0.86898  0.52918  1.0000
  H   H3322     1.0  0.81608  0.59306  0.52816  1.0000
  C   C1945     1.0  0.77000  0.83363  0.55465  1.0000
  S   S563      1.0  0.86855  0.51993  0.69277  1.0000
  H   H3323     1.0  0.78462  0.64360  0.65145  1.0000
  H   H3324     1.0  0.78817  0.66480  0.52802  1.0000
  C   C1946     1.0  0.70304  0.78500  0.49103  1.0000
  H   H3325     1.0  0.84081  0.68643  0.59223  1.0000
  H   H3326     1.0  0.80962  0.64565  0.64437  1.0000
  C   C1947     1.0  0.68518  0.76078  0.66101  1.0000
  C   C1948     1.0  0.77659  0.72118  0.49315  1.0000
  H   H3327     1.0  0.85951  0.51485  0.64699  1.0000
  H   H3328     1.0  0.83285  0.53532  0.62950  1.0000
  C   C1949     1.0  0.75261  0.86100  0.53400  1.0000
  C   C1950     1.0  0.77014  0.86748  0.52524  1.0000
  H   H3329     1.0  0.84714  0.76677  0.52479  1.0000
  H   H3330     1.0  0.77787  0.64778  0.52118  1.0000
  H   H3331     1.0  0.74161  0.80565  0.51634  1.0000
  C   C1951     1.0  0.78755  0.85720  0.53139  1.0000
  H   H3332     1.0  0.82940  0.66438  0.62366  1.0000
  H   H3333     1.0  0.82375  0.79301  0.50571  1.0000
  C   C1952     1.0  0.79035  0.66755  0.59043  1.0000
  C   C1953     1.0  0.68427  0.75817  0.62869  1.0000
  H   H3334     1.0  0.80149  0.80347  0.52036  1.0000
  H   H3335     1.0  0.69561  0.84497  0.51827  1.0000
  C   C1954     1.0  0.84560  0.59767  0.51916  1.0000
  C   C1955     1.0  0.80772  0.66997  0.59768  1.0000
  H   H3336     1.0  0.67632  0.84092  0.62437  1.0000
  C   C1956     1.0  0.78873  0.67107  0.63136  1.0000
  H   H3337     1.0  0.86283  0.72919  0.51727  1.0000
  H   H3338     1.0  0.87376  0.60515  0.50621  1.0000
  H   H3339     1.0  0.79616  0.65986  0.57805  1.0000
  H   H3340     1.0  0.83055  0.93148  0.49944  1.0000
  H   H3341     1.0  0.86967  0.79469  0.54728  1.0000
  H   H3342     1.0  0.73363  0.74132  0.50371  1.0000
  H   H3343     1.0  0.79617  0.95752  0.50774  1.0000
  C   C1957     1.0  0.84095  0.90519  0.51970  1.0000
  H   H3344     1.0  0.68818  0.80506  0.51027  1.0000
  H   H3345     1.0  0.81860  0.80245  0.54602  1.0000
  H   H3346     1.0  0.71340  0.82431  0.52667  1.0000
  H   H3347     1.0  0.96752  0.71428  0.55330  1.0000
  H   H3348     1.0  0.88102  0.55200  0.57056  1.0000
  H   H3349     1.0  0.67250  0.68007  0.67133  1.0000
  H   H3350     1.0  0.97675  0.73499  0.53689  1.0000
  H   H3351     1.0  0.91569  0.65745  0.48935  1.0000
  C   C1958     1.0  0.80034  0.95291  0.52228  1.0000
  H   H3352     1.0  0.87407  0.74527  0.53770  1.0000
  H   H3353     1.0  0.69171  0.70473  0.71061  1.0000
  H   H3354     1.0  0.75614  0.67502  0.51130  1.0000
  H   H3355     1.0  0.77510  0.79490  0.50457  1.0000
  H   H3356     1.0  0.85965  0.82999  0.53320  1.0000
  H   H3357     1.0  0.82577  0.96687  0.50937  1.0000
  H   H3358     1.0  0.81875  0.96393  0.53561  1.0000
  H   H3359     1.0  0.90117  0.53679  0.58166  1.0000
  C   C1959     1.0  0.72383  0.75522  0.50515  1.0000
  H   H3360     1.0  0.73411  0.79951  0.49831  1.0000
  C   C1960     1.0  0.81637  0.79410  0.52084  1.0000
  H   H3361     1.0  0.77327  0.69635  0.51700  1.0000
  H   H3362     1.0  0.77009  0.88041  0.51378  1.0000
  H   H3363     1.0  0.68299  0.81411  0.66232  1.0000
  H   H3364     1.0  0.88056  0.84001  0.49528  1.0000
  C   C1961     1.0  0.76060  0.68086  0.49543  1.0000
  H   H3365     1.0  0.84568  0.79373  0.56141  1.0000
  H   H3366     1.0  0.85911  0.78074  0.49591  1.0000
  C   C1962     1.0  0.85712  0.68491  0.49909  1.0000
  C   C1963     1.0  0.79053  0.65490  0.51785  1.0000
  C   C1964     1.0  0.87323  0.76122  0.53581  1.0000
  H   H3367     1.0  0.89266  0.68167  0.50798  1.0000
  H   H3368     1.0  0.80025  0.92505  0.50246  1.0000
  H   H3369     1.0  0.96159  0.70737  0.52149  1.0000
  H   H3370     1.0  0.68310  0.80259  0.61048  1.0000
  H   H3371     1.0  0.88357  0.76565  0.52211  1.0000
  S   S564      1.0  0.82584  0.52452  0.72322  1.0000
  Fe  Fe283     1.0  0.85754  0.51728  0.72515  1.0000
  C   C1965     1.0  0.96755  0.72423  0.53885  1.0000
  H   H3372     1.0  0.74575  0.85505  0.49528  1.0000
  N   N142      1.0  0.99263  0.69726  0.52277  1.0000
  H   H3373     1.0  0.76387  0.77833  0.49855  1.0000
  H   H3374     1.0  0.89197  0.65249  0.49907  1.0000
  C   C1966     1.0  0.75283  0.83913  0.49717  1.0000
  H   H3375     1.0  0.67343  0.72724  0.70633  1.0000
  C   C1967     1.0  0.74398  0.69850  0.49053  1.0000
  H   H3376     1.0  0.90470  0.69201  0.48436  1.0000
  C   C1968     1.0  0.66445  0.75693  0.63508  1.0000
  C   C1969     1.0  0.72013  0.83717  0.49505  1.0000
  H   H3377     1.0  0.84192  0.66186  0.50129  1.0000
  H   H3378     1.0  0.67109  0.68331  0.72314  1.0000
  H   H3379     1.0  0.84332  0.50099  0.64520  1.0000
  H   H3380     1.0  0.85391  0.55973  0.49005  1.0000
  H   H3381     1.0  0.66978  0.64983  0.72768  1.0000
  H   H3382     1.0  0.78144  0.84475  0.49544  1.0000
  H   H3383     1.0  0.85483  0.72364  0.49051  1.0000
  Fe  Fe284     1.0  0.82937  0.49214  0.72748  1.0000
  H   H3384     1.0  0.99291  0.68549  0.55331  1.0000
  H   H3385     1.0  0.86702  0.49873  0.62967  1.0000
  H   H3386     1.0  0.76835  0.94142  0.52081  1.0000
  H   H3387     1.0  0.96966  0.68869  0.49990  1.0000
  C   C1970     1.0  0.83429  0.62015  0.48442  1.0000
  H   H3388     1.0  0.97305  0.65872  0.55387  1.0000
  H   H3389     1.0  0.98998  0.67516  0.48585  1.0000
  C   C1971     1.0  0.66537  0.75982  0.66729  1.0000
  H   H3390     1.0  0.76020  0.66935  0.48790  1.0000
  C   C1972     1.0  0.98426  0.67905  0.50042  1.0000
  H   H3391     1.0  0.78316  0.82357  0.48629  1.0000
  H   H3392     1.0  0.66687  0.65203  0.70350  1.0000
  C   C1973     1.0  0.86971  0.71503  0.49243  1.0000
  C   C1974     1.0  0.89298  0.68370  0.49220  1.0000
  H   H3393     1.0  0.78983  0.72717  0.48547  1.0000
  H   H3394     1.0  0.86564  0.65821  0.48616  1.0000
  H   H3395     1.0  0.80443  0.98219  0.52026  1.0000
  C   C1975     1.0  0.85346  0.61775  0.48677  1.0000
  C   C1976     1.0  0.66313  0.66002  0.71559  1.0000
  C   C1977     1.0  0.84242  0.55723  0.48388  1.0000
  S   S565      1.0  0.91542  0.81103  0.48829  1.0000
  H   H3396     1.0  0.84920  0.80622  0.48600  1.0000
  S   S566      1.0  0.91150  0.76149  0.48296  1.0000
  H   H3397     1.0  0.87516  0.79643  0.48306  1.0000
  C   C1978     1.0  0.67969  0.56672  0.79577  1.0000
  Fe  Fe285     1.0  0.72175  0.55269  0.83135  1.0000
  H   H3398     1.0  0.82158  0.50366  0.79659  1.0000
  S   S567      1.0  0.71599  0.58476  0.81779  1.0000
  Fe  Fe286     1.0  0.75410  0.51641  0.83403  1.0000
  H   H3399     1.0  0.81453  0.53952  0.80122  1.0000
  S   S568      1.0  0.70720  0.51210  0.89867  1.0000
  S   S569      1.0  0.74086  0.53832  0.85317  1.0000
  C   C1979     1.0  0.66269  0.72478  0.75101  1.0000
  H   H3400     1.0  0.80361  0.58580  0.76485  1.0000
  H   H3401     1.0  0.82921  0.54635  0.77805  1.0000
  C   C1980     1.0  0.81423  0.54997  0.78698  1.0000
  C   C1981     1.0  0.77923  0.55781  0.75212  1.0000
  H   H3402     1.0  0.67936  0.69504  0.75216  1.0000
  H   H3403     1.0  0.69091  0.57595  0.85561  1.0000
  C   C1982     1.0  0.68314  0.58863  0.84683  1.0000
  H   H3404     1.0  0.76877  0.54017  0.87853  1.0000
  C   C1983     1.0  0.81341  0.49259  0.90133  1.0000
  C   C1984     1.0  0.88843  0.53104  0.76906  1.0000
  S   S570      1.0  0.73689  0.53237  0.81087  1.0000
  C   C1985     1.0  0.90285  0.52198  0.78016  1.0000
  H   H3405     1.0  0.68969  0.61962  0.80264  1.0000
  C   C1986     1.0  0.79812  0.57970  0.75529  1.0000
  H   H3406     1.0  0.75108  0.54956  0.76766  1.0000
  H   H3407     1.0  0.88124  0.54624  0.76901  1.0000
  H   H3408     1.0  0.81646  0.53750  0.84419  1.0000
  H   H3409     1.0  0.79380  0.53044  0.85233  1.0000
  H   H3410     1.0  0.77960  0.56839  0.80739  1.0000
  C   C1987     1.0  0.69248  0.59658  0.82812  1.0000
  H   H3411     1.0  0.69180  0.57435  0.79374  1.0000
  H   H3412     1.0  0.77829  0.50823  0.91427  1.0000
  C   C1988     1.0  0.77302  0.58069  0.79665  1.0000
  H   H3413     1.0  0.78849  0.52948  0.90568  1.0000
  C   C1989     1.0  0.76555  0.52920  0.89201  1.0000
  H   H3414     1.0  0.67395  0.57165  0.78214  1.0000
  H   H3415     1.0  0.81728  0.52999  0.88210  1.0000
  H   H3416     1.0  0.96553  0.50336  0.82590  1.0000
  H   H3417     1.0  0.78912  0.53801  0.78925  1.0000
  S   S571      1.0  0.69832  0.53580  0.84660  1.0000
  H   H3418     1.0  0.75878  0.58777  0.80484  1.0000
  H   H3419     1.0  0.81156  0.56475  0.79002  1.0000
  H   H3420     1.0  0.73806  0.50037  0.95417  1.0000
  S   S572      1.0  0.69715  0.50362  0.81329  1.0000
  H   H3421     1.0  0.75805  0.51881  0.88949  1.0000
  H   H3422     1.0  0.75474  0.53725  0.90275  1.0000
  N   N143      1.0  0.78667  0.56420  0.76666  1.0000
  C   C1990     1.0  0.81333  0.52083  0.87413  1.0000
  C   C1991     1.0  0.72531  0.49996  0.91228  1.0000
  H   H3423     1.0  0.95896  0.51390  0.79539  1.0000
  Fe  Fe287     1.0  0.71890  0.51919  0.86656  1.0000
  H   H3424     1.0  0.78200  0.59199  0.79106  1.0000
  H   H3425     1.0  0.90666  0.53021  0.78865  1.0000
  H   H3426     1.0  0.71183  0.51595  0.93529  1.0000
  H   H3427     1.0  0.75953  0.58562  0.77204  1.0000
  C   C1992     1.0  0.88342  0.52067  0.75790  1.0000
  H   H3428     1.0  0.80664  0.50530  0.92756  1.0000
  C   C1993     1.0  0.81088  0.49791  0.79295  1.0000
  H   H3429     1.0  0.82782  0.51243  0.86767  1.0000
  C   C1994     1.0  0.96928  0.52338  0.78700  1.0000
  H   H3430     1.0  0.78320  0.50516  0.86859  1.0000
  C   C1995     1.0  0.79267  0.49740  0.80549  1.0000
  H   H3431     1.0  0.79766  0.54991  0.86123  1.0000
  H   H3432     1.0  0.80723  0.53628  0.76753  1.0000
  C   C1996     1.0  0.81941  0.50073  0.91615  1.0000
  H   H3433     1.0  0.96803  0.52732  0.77145  1.0000
  S   S573      1.0  0.73373  0.49595  0.84914  1.0000
  Fe  Fe288     1.0  0.71500  0.51425  0.82783  1.0000
  C   C1997     1.0  0.79885  0.54643  0.77753  1.0000
  C   C1998     1.0  0.76900  0.57319  0.78034  1.0000
  C   C1999     1.0  0.68248  0.61332  0.81706  1.0000
  H   H3434     1.0  0.81863  0.49265  0.85273  1.0000
  C   C2000     1.0  0.80456  0.53541  0.85725  1.0000
  H   H3435     1.0  0.96393  0.53738  0.79228  1.0000
  C   C2001     1.0  0.78378  0.51839  0.90072  1.0000
  C   C2002     1.0  0.91238  0.50240  0.78029  1.0000
  C   C2003     1.0  0.73881  0.49602  0.94075  1.0000
  N   N144      1.0  0.80086  0.50728  0.88805  1.0000
  C   C2004     1.0  0.76598  0.54271  0.76062  1.0000
  H   H3436     1.0  0.75965  0.56242  0.78812  1.0000
  S   S574      1.0  0.78677  0.50742  0.82624  1.0000
  H   H3437     1.0  0.67548  0.73121  0.74678  1.0000
  H   H3438     1.0  0.82704  0.51297  0.90911  1.0000
  C   C2005     1.0  0.77875  0.49021  0.80067  1.0000
  C   C2006     1.0  0.89282  0.50096  0.75806  1.0000
  C   C2007     1.0  0.72402  0.50487  0.93005  1.0000
  C   C2008     1.0  0.79371  0.49577  0.87767  1.0000
  H   H3439     1.0  0.68633  0.55078  0.79801  1.0000
  H   H3440     1.0  0.77240  0.52985  0.77094  1.0000
  C   C2009     1.0  0.90731  0.49180  0.76929  1.0000
  C   C2010     1.0  0.81488  0.49200  0.77516  1.0000
  H   H3441     1.0  0.82518  0.55879  0.74501  1.0000
  H   H3442     1.0  0.82871  0.49309  0.76521  1.0000
  C   C2011     1.0  0.66487  0.70439  0.75394  1.0000
  C   C2012     1.0  0.66281  0.62141  0.82425  1.0000
  H   H3443     1.0  0.88900  0.49284  0.74953  1.0000
  S   S575      1.0  0.86535  0.53307  0.74406  1.0000
  H   H3444     1.0  0.66007  0.53602  0.83132  1.0000
  H   H3445     1.0  0.79164  0.55091  0.74168  1.0000
  H   H3446     1.0  0.67148  0.56613  0.82623  1.0000
  H   H3447     1.0  0.76412  0.53700  0.74852  1.0000
  C   C2013     1.0  0.66359  0.59698  0.85417  1.0000
  S   S576      1.0  0.93049  0.49177  0.79438  1.0000
  C   C2014     1.0  0.66404  0.57193  0.81371  1.0000
  H   H3448     1.0  0.68704  0.49943  0.77534  1.0000
  H   H3449     1.0  0.69722  0.49301  0.75211  1.0000
  H   H3450     1.0  0.71279  0.49091  0.76882  1.0000
  H   H3451     1.0  0.76463  0.48983  0.81034  1.0000
  H   H3452     1.0  0.78840  0.59261  0.74782  1.0000
  H   H3453     1.0  0.77098  0.57072  0.74309  1.0000
  C   C2015     1.0  0.81595  0.57310  0.73958  1.0000
  C   C2016     1.0  0.99092  0.51510  0.78898  1.0000
  H   H3454     1.0  0.99252  0.50432  0.75447  1.0000
  H   H3455     1.0  0.82538  0.58408  0.73483  1.0000
  H   H3456     1.0  0.66078  0.58819  0.81190  1.0000
