data_image0
_chemical_formula_structural       H3CH3CHCH4C3HNH2CH6C3H3CHFeS2Fe2S2FeSCFeS2FeSFeS2FeSHFeSFeSFeS3FeS2FeSCFeSCHSNCSC2FeS2FeSHFeSFeHS2NHC4H3SH3C2H3C7H5C4H5C6H4CH2C6H4C6H5C3H2FeH7CH2C2H4CHCH4C2H3C2H3CSHCH4SCH4CHC3H12CHFeH4CH2C2SH4CHCHC3HNC4H4CH3CH4CHCNC7H8NHCH6S2CH2SHFeC2HC2H7SH4CH3CH2C2H4CH5CHCSC3H4CHCH4CH5SCH2CSCHC3HNCH3CH2C2HFeS2HSH2SHFeS2FeS2FeSFeS3H4CH3SFeHCH4C6SCH3CH2CH2C7H4C6H4C6H7CH5C2HC3NC8H20CH3SC2H3NHNCH3NH3CH4CH3C2H2C2HCH4CH2CH5SCH3C3H2C2H2CH10CH3C2H2CH7CH2SHCHCHC2H3CH4NHNC3HFeHCH2C2SHFeSHCHFeS2FeS2FeSFeS3HCFeSC3NCHC2H5CH3SC7H6C4H2CH2C2H3NC5H8CH7CHC3H3CH6FeNH2CH3CH3CH9SH2CH3SHC2H2C2H2FeCSH4CFeS2FeS2FeSFeHS2C2HC3HSH2CHC7H4C2H2SC2H4C2H3CNH6CH2C4H4C5HCHNH4NH2C2SCHC3H9CHC3SH3C2H4C2H3CSH8CHCH2CHCH3CH5FeS2FeS2FeSFeS3HC3SHCSHSFeSFeHSH2FeS2FeS2FeS2FeSFeS3C6H5C2HCHC3FeHC2NH5C6H4C6H4C6H5FeSH2CHN2C4HCH10C2H5SH2CH4SH2C2FeH2CNCH2CHFeCHC2SH6C2H5C2HCHCHCH13CHCHC2FeCH2CH4FeHCHSC2H2CHCHCHNH5C3H3SFeSC3H4CH2SHCH3C4H5FeCHCHCH5CH4NHCH2SH2CFeHCNH2SHCSC2HSCH2CH2CNCHSC2H2CHCSH4C3H4CH4C2H2C3H3SHC2H4FeH3CH2FeH6SH2SCH7C2H4C2HCHSFeS2FeS2FeSFeS3HCHCHSFeS2FeSHFeSFeS3H5SH3CHCH2NHCHNFeSCFeHC6H3CH2C2H2CNC6HCHC6H4C6H4C3H2CSCH3C3H3SC2S2HCHCHFeH4CH2C2FeCNC8H20CH2NH3CH4CH2SH7CSHC2H2SHCH3NH2CH4NC10H11CH4SHSHFeHCHSC5H2CHCHCHSH5NFeCH2CNHCH2FeC3H2SH4C3SFeH2CHCH6CHSCHC2SH3CH2CHCH5CSHC2SHCHCH5CHCH6CH2CH5FeHC5H3C2H2CNH2CH4CHCHCH3CHC2H3C2HCH5SCNH3CH4CFeC4HCH2CH2FeS2H2FeHS2FeSHFeS2FeSFeS3H2FeS2FeSHSCH2FeS2H2FeSHSFeS2FeSHFe2S3C6H4C6H4C6H4C6H2CHC2HC6H5CH5CH4CH3CSH2NC8H23NHCH4CH4C5HNCHCNH2CS2HCH2CH2CHCHC3H11C2NHCHCHCHCHC2H3C2H3CH3SH4CFeC2HC4H2FeCH3SCH3CH2C2HFeH4C2HCNC2HCH2SH3NHCH4CSHCH5C2H11C2H2C3HCH5CH2CH4C2HCH3SH2CH2CH2C2FeH2C2H2CHCH9CH3CHCH2NCH3CHC2H2CSCFeC2H3CH2CFeS2FeS2FeHFeS3FeS2FeS2FeSFeHS2FeS2FeS2FeSFeS3CFeHCH3C2H2C2H2CHC3H3C6H4C6H4C4HCH2CHC2H2CH6SHC2H2CH3C3HSHNCHCH3C2H2C2HCHC2SHC2H2CH2NCHC3HCH3C2H7CH8C2HCH3CH2CH2CFeH3CH4CH2CH2NC5H2CH12C2HNHCHC2H2CH5CHC2HSH6C2H2C2H5C2NHCSC2H4SNCH2C3HCHCH5C3H10C2HCHCHCH10SHCHCH2CH2C2HNC2H2NCH2CHC2H6CH4CH2CHCHSH4CH2CH2CNCH3CNH2CH4C2H2FeHFeS2FeSHSCH4SHNHFeS2FeS2FeSFeS3HC2FeHSCSCHSCFeS2FeS2FeSFeS3C6H4C6H4C5H5C2H5C6H4C6H4CH2FeHC2H2CH2CHCHCHCHCH2CH2NSH2CHCNH2CH5C2HCHCHCSCH3NC8H21C2H4CHCH4CH6CH6NC5HC2H11CH9C2H2CH2CHNH2C2HCH7NC8H4CH3CH2CH2S2HCH4CNHCH3CH2FeSHSFeHFeS3FeSFeS2FeSFeS3H4CH3SHFeS2FeS2FeSFeCS2NHC6H6CH2C3H7C6H4CHC7H4C6H12S2CH6C3H7CH2CH5CHCSHCHNC2HCHCH2CH3FeHCH6C4NCH3C2H2CH7FeHSH2CH2C2NHCNCSCNCHC2HNC8H23CHC2H3CH2CH2CHCHC2H4SCNCHC2FeC2H3C2H2CHC5H3CSH8CH3CHCHCHCSHC3H5CHSH2NHC2H7C2H2CSCH2C2H4CH2CH7CHC4H3CH4CNH2SFeSNFeS2FeSFeS3FeS2H3C2HC2FeS2H4FeS2HFeS2FeS2FeSFeS3H2SHSH3CHFeCHSHC8H4C6H6CHCH3C5HNCH3C6H4C6H6CHCHNC8H10CH3C3H5C2H4CH2CH6CHCSH10N2H2CHCH2CHCH5CH4CH2FeCHSCHNC8H17SH2SHC2HSCHC2H4CHC2HFeH6NHFeC3H3CH2CH2C2H3FeSCFeS2FeHFeS3FeS2FeSHFeCFeS2FeS2FeS2FeSFeS3HCHC2H2CH3C2S2CH2CHC7H4SH4SC2HC5H2C6H4C6H4CSC4H4CH6CHCH6CH3CH2CHCHCH3C2SH3FeC2HC2HCH4C2H3CHCNSH8NHFeH6SH2CH4CH2SCH9CH2C3H6C2HC2HC2HSH2SNHC3HCH4NH3C2NCHCHCH5CH3CH11CHNC8HSH2C2H4CHC2HC2HCH2C2HCHFeSFeS2FeSFeHS2H3FeS2H2FeS3FeH2FeS2CFeSHSFeS2FeS2FeSFeS3FeS2CHCH4C6H4C4HCHC6H4C6H8C6H4C6H4CHC2H3FeHSC2H2SH3CHCHC2H5C2HCH2NHC2HCH3CH7CHC2H2C4HCH2NCH4NC2HCH4NC3HCH4CH4CHCH4CHC2H9CHSNCHC2H2CH3CHCNC7H19CHCSHCHSHCH2CH9CH2CH6C2NHC2HC2H3CH2NH2SH4C2HC2H2CHSCH2CHNH7CH2CH7CH3CHSH2CH4SH3CH3NHCHFeSFe2S2FeSFeS3FeS2FeS2FeSFeS3FeSCFeSHFeSH2S2HS2H6C2HCHFeHC2HC2H2C6H4C6H4C6H4C6H6CH4SH3SC3H3C2SH2CH3C3HCH4CH6SH3CHCH6CH5CSH2CH4FeH3C2H2CNC8H19C2H6CNC6H17C3H3FeCNSC3NH5SCHC2H3C2HC2HNCH4C3H4CHCHCH3CHFeH2SHC2H2C3HSHNHFeHC3H2CHSC3HCH2FeHC2HSHCSHCHSNCHCH3CH2CH5NFeCH2CHC2H4CH3SCH5CHCHCH2CH5CH5CHCH4CHSH2CH7CSFeS2FeS2FeSFeS3HSHSFeSFeHC2FeS2FeS2FeSFeCS2FeSFeS2FeCFeCS3C6H4C5H5CHSCFeH2CHCH2C6H4C6H6C7H3CH2NC8H21CH3CHCH5C2H2FeHCHNHSCSH3CHNHCHS2CH2FeH2SHCH4NH10SHCH2CH4CHFeCHSC2HNH6CHC3H5SC2H4SC4SCH2SNC8H18CNHSHSHFeHCH2NCH6CH2C3HCHC2SHFeHFeHC2H5CH2CH2C3SHC2H3CH2CHNCHC2HCH2CHCH2CHCHCH3FeH6SHC2H2CH5CH2C2H9CHCH2SH2CH2CSFeS2FeS2FeSFeS3HSFe2S2FeHSH3S2FeSFeS3H3CH2C2HC2H3SH3CHC2H8FeC6H4C4H4SHC6H4C6H4C4H5C6H3CH2NHCH4NHCHCH2SHCH3FeH2CH4C2HCH3CH2NHCH5CH2CHCSHC3H2C2H2CHSFeC2H5CHCHC2H4CH2SHCH6CH2CHCHCH6SH2NC8H16SH4FeC4H4C2H2C2FeCSFeNC6H5SH7NC4H9CHC3H2C2NC2H4FeH3FeCHCH3CH2CH2FeS2HCHFeCFeCSHFeSCFeS2HNHCHSHCH5C2HSCH2CH3C6H4S2H2CH2CH2CH4C2HCH3C2FeHNCHFeHCSHSH3CH4FeSHCH4CH2NC2FeS2FeSHFeSFeSHFeSHFeSHFeHFeS3CHFeHCHC2SH5CH2SCHC6H4CHCHC2H4CH2CHCH4CH2C2H3NCSCH2SH3NHC3H2CHCHNC5FeH2CH3C2H2CH2CHCSHCH3CH4CH3CH2S2H2C2HCH3C2H5CH3CFeS2FeS2FeSFeHS2H2Fe2S2H2FeSCSHSCSFeSFeHSHNFeHSHFeSHSFeHFeS2H4NSHCH3C3HSHSH2C6HC2H3CHCH9C2H2C6H9C6H4C6H5CHSH3CHCH4C2HSH2CHC4HCHCNCHNC5H2CH4CH2CHCNHSHCHS2CFeH3CH3CH2CNC8H10S2CH2FeSH2C4HC3NH5CHC4HC5HCHCH4NCH2FeCH2SCHCH2C2FeH5CH2CH2CHCHSH5SHCH4C2H3C2HCH3CH2CHCH4CH3NC2H4CHC3H10CH4CHCH11CH5CHFeS2FeSHFeSFeCS2FeSHFeS2FeSFeS3H3NCH3SH5SH7CH4C3H2NH2C6H2CHCH4NH4CHSHCH2NHC6H10C7H4C6H4C2H2CH7CH5NHC4HSC2H3CHCH2CSH6C7H3CH3CH3CHC2H2CHSCH4C2H4CHCHC2HSH4CH3NCH3CH3NC3H2CH4SH4SH2CHCSH4C4H2S2FeH3Fe2H4CH4CH2CHCNH8CH5C2H2C3H3CHCH2CHCHC2H3SH2
_chemical_formula_sum              "H3456 C2016 N144 Fe288 S576"
_cell_length_a       68.5992
_cell_length_b       68.9977
_cell_length_c       68.7393
_cell_angle_alpha    83.0924
_cell_angle_beta     83.1304
_cell_angle_gamma    83.1801

_space_group_name_H-M_alt    "P 1"
_space_group_IT_number       1

loop_
  _space_group_symop_operation_xyz
  'x, y, z'

loop_
  _atom_site_type_symbol
  _atom_site_label
  _atom_site_symmetry_multiplicity
  _atom_site_fract_x
  _atom_site_fract_y
  _atom_site_fract_z
  _atom_site_occupancy
  H   H1        1.0  0.01411  0.28570  0.00662  1.0000
  H   H2        1.0  0.00208  0.25399  0.01201  1.0000
  H   H3        1.0  0.99871  0.22450  0.00069  1.0000
  C   C1        1.0  0.00017  0.14005  0.43168  1.0000
  H   H4        1.0  0.03108  0.99788  0.31003  1.0000
  H   H5        1.0  0.00956  0.13263  0.40080  1.0000
  H   H6        1.0  0.03745  0.14883  0.41749  1.0000
  C   C2        1.0  0.01527  0.17873  0.48726  1.0000
  H   H7        1.0  0.02148  0.14172  0.46050  1.0000
  C   C3        1.0  0.99965  0.99583  0.31345  1.0000
  H   H8        1.0  0.04922  0.14019  0.43968  1.0000
  H   H9        1.0  0.48064  0.30528  0.46846  1.0000
  H   H10       1.0  0.04109  0.10595  0.43757  1.0000
  H   H11       1.0  0.44587  0.31710  0.46809  1.0000
  C   C4        1.0  0.01586  0.12710  0.46132  1.0000
  C   C5        1.0  0.04498  0.13590  0.42585  1.0000
  C   C6        1.0  0.03233  0.11850  0.42972  1.0000
  H   H12       1.0  0.03130  0.11362  0.41514  1.0000
  N   N1        1.0  0.01233  0.12254  0.44109  1.0000
  H   H13       1.0  0.02544  0.17688  0.47416  1.0000
  H   H14       1.0  0.01670  0.08543  0.42174  1.0000
  C   C7        1.0  0.47207  0.31014  0.48206  1.0000
  H   H15       1.0  0.02747  0.11625  0.46759  1.0000
  H   H16       1.0  0.18798  0.00274  0.48784  1.0000
  H   H17       1.0  0.46671  0.29675  0.49066  1.0000
  H   H18       1.0  0.00599  0.15407  0.43344  1.0000
  H   H19       1.0  0.05892  0.13146  0.41673  1.0000
  H   H20       1.0  0.00737  0.09353  0.45537  1.0000
  C   C8        1.0  0.45407  0.32479  0.47730  1.0000
  C   C9        1.0  0.00184  0.09309  0.42563  1.0000
  C   C10       1.0  0.00137  0.10449  0.44371  1.0000
  H   H21       1.0  0.00196  0.13268  0.49055  1.0000
  H   H22       1.0  0.48180  0.31575  0.49134  1.0000
  H   H23       1.0  0.44434  0.32631  0.49138  1.0000
  C   C11       1.0  0.34452  0.31068  0.72883  1.0000
  H   H24       1.0  0.19879  0.12760  0.57705  1.0000
  Fe  Fe1       1.0  0.07175  0.18849  0.59159  1.0000
  S   S1        1.0  0.09242  0.16078  0.59010  1.0000
  S   S2        1.0  0.06977  0.20741  0.61711  1.0000
  Fe  Fe2       1.0  0.09313  0.16802  0.55735  1.0000
  Fe  Fe3       1.0  0.06559  0.14634  0.58673  1.0000
  S   S3        1.0  0.05804  0.11802  0.60395  1.0000
  S   S4        1.0  0.04468  0.17317  0.59064  1.0000
  Fe  Fe4       1.0  0.19441  0.07195  0.55906  1.0000
  S   S5        1.0  0.22359  0.05381  0.56268  1.0000
  C   C12       1.0  0.04216  0.27867  0.74385  1.0000
  Fe  Fe5       1.0  0.17233  0.04486  0.58833  1.0000
  S   S6        1.0  0.19962  0.02543  0.59524  1.0000
  S   S7        1.0  0.14285  0.03602  0.60158  1.0000
  Fe  Fe6       1.0  0.21353  0.05340  0.59519  1.0000
  S   S8        1.0  0.23625  0.05624  0.61630  1.0000
  Fe  Fe7       1.0  0.20705  0.02743  0.56229  1.0000
  S   S9        1.0  0.18514  0.07273  0.59138  1.0000
  S   S10       1.0  0.17898  0.04586  0.55555  1.0000
  Fe  Fe8       1.0  0.26351  0.15609  0.72446  1.0000
  S   S11       1.0  0.27174  0.15918  0.69187  1.0000
  H   H25       1.0  0.47698  0.29103  0.70071  1.0000
  Fe  Fe9       1.0  0.28743  0.11623  0.73068  1.0000
  S   S12       1.0  0.29701  0.11599  0.69809  1.0000
  Fe  Fe10      1.0  0.30218  0.14748  0.69937  1.0000
  S   S13       1.0  0.33064  0.15999  0.68651  1.0000
  Fe  Fe11      1.0  0.26541  0.12755  0.69346  1.0000
  S   S14       1.0  0.24306  0.12231  0.67263  1.0000
  S   S15       1.0  0.29428  0.14683  0.73189  1.0000
  S   S16       1.0  0.25542  0.12533  0.72619  1.0000
  Fe  Fe12      1.0  0.38339  0.24653  0.72273  1.0000
  S   S17       1.0  0.41584  0.23707  0.71510  1.0000
  S   S18       1.0  0.35546  0.23099  0.72591  1.0000
  Fe  Fe13      1.0  0.39138  0.28551  0.73497  1.0000
  S   S19       1.0  0.42418  0.27843  0.72950  1.0000
  C   C13       1.0  0.01219  0.01091  0.62956  1.0000
  Fe  Fe14      1.0  0.41796  0.26832  0.70113  1.0000
  S   S20       1.0  0.43892  0.28305  0.67696  1.0000
  C   C14       1.0  0.00991  0.18324  0.52229  1.0000
  H   H26       1.0  0.17337  0.31839  0.68854  1.0000
  S   S21       1.0  0.38525  0.27669  0.70623  1.0000
  N   N2        1.0  0.10624  0.08329  0.57301  1.0000
  C   C15       1.0  0.21293  0.20500  0.74071  1.0000
  S   S22       1.0  0.44439  0.29959  0.58348  1.0000
  C   C16       1.0  0.05040  0.24859  0.57894  1.0000
  C   C17       1.0  0.19320  0.21016  0.73712  1.0000
  Fe  Fe15      1.0  0.13847  0.25952  0.67902  1.0000
  S   S23       1.0  0.12162  0.24803  0.70730  1.0000
  S   S24       1.0  0.13304  0.25464  0.64772  1.0000
  Fe  Fe16      1.0  0.17077  0.27279  0.70122  1.0000
  S   S25       1.0  0.15677  0.26099  0.73078  1.0000
  H   H27       1.0  0.24337  0.22990  0.66996  1.0000
  Fe  Fe17      1.0  0.15152  0.23524  0.71581  1.0000
  S   S26       1.0  0.15822  0.20306  0.72532  1.0000
  Fe  Fe18      1.0  0.12849  0.27507  0.71967  1.0000
  H   H28       1.0  0.38411  0.11668  0.73308  1.0000
  S   S27       1.0  0.16811  0.24560  0.68728  1.0000
  S   S28       1.0  0.14271  0.28810  0.69045  1.0000
  N   N3        1.0  0.02995  0.24322  0.57738  1.0000
  H   H29       1.0  0.19959  0.11301  0.60023  1.0000
  C   C18       1.0  0.01726  0.27882  0.56490  1.0000
  C   C19       1.0  0.15660  0.00290  0.58373  1.0000
  C   C20       1.0  0.48702  0.26870  0.60424  1.0000
  C   C21       1.0  0.25460  0.12437  0.57784  1.0000
  H   H30       1.0  0.24296  0.11835  0.60907  1.0000
  H   H31       1.0  0.23688  0.21917  0.70706  1.0000
  H   H32       1.0  0.03162  0.28450  0.56538  1.0000
  S   S29       1.0  0.21747  0.99760  0.55082  1.0000
  H   H33       1.0  0.48698  0.26093  0.71386  1.0000
  H   H34       1.0  0.03195  0.28563  0.73297  1.0000
  H   H35       1.0  0.42872  0.31425  0.70671  1.0000
  C   C22       1.0  0.09092  0.07219  0.58584  1.0000
  C   C23       1.0  0.05315  0.25782  0.59769  1.0000
  H   H36       1.0  0.39592  0.31921  0.70143  1.0000
  H   H37       1.0  0.00584  0.05775  0.67024  1.0000
  H   H38       1.0  0.10131  0.09450  0.61417  1.0000
  C   C24       1.0  0.01103  0.11765  0.57396  1.0000
  C   C25       1.0  0.43715  0.28907  0.65132  1.0000
  C   C26       1.0  0.42905  0.27704  0.64013  1.0000
  C   C27       1.0  0.43077  0.28082  0.61937  1.0000
  C   C28       1.0  0.44028  0.29682  0.60964  1.0000
  C   C29       1.0  0.44746  0.30940  0.62092  1.0000
  C   C30       1.0  0.44610  0.30538  0.64160  1.0000
  H   H39       1.0  0.42227  0.26431  0.64735  1.0000
  H   H40       1.0  0.42515  0.27099  0.61078  1.0000
  H   H41       1.0  0.36764  0.31323  0.68751  1.0000
  H   H42       1.0  0.31735  0.30660  0.71793  1.0000
  H   H43       1.0  0.48676  0.28263  0.63877  1.0000
  C   C31       1.0  0.21315  0.17449  0.72652  1.0000
  C   C32       1.0  0.19313  0.17927  0.72374  1.0000
  C   C33       1.0  0.18320  0.19718  0.72889  1.0000
  C   C34       1.0  0.01441  0.26043  0.57952  1.0000
  H   H44       1.0  0.99959  0.25629  0.57775  1.0000
  H   H45       1.0  0.27753  0.20402  0.71006  1.0000
  H   H46       1.0  0.05533  0.25920  0.56641  1.0000
  H   H47       1.0  0.02669  0.13848  0.65304  1.0000
  H   H48       1.0  0.13187  0.09684  0.57784  1.0000
  C   C35       1.0  0.33749  0.17996  0.69713  1.0000
  C   C36       1.0  0.35604  0.18676  0.69121  1.0000
  C   C37       1.0  0.36195  0.20234  0.69988  1.0000
  C   C38       1.0  0.34921  0.21132  0.71442  1.0000
  C   C39       1.0  0.33066  0.20454  0.72025  1.0000
  C   C40       1.0  0.32484  0.18893  0.71171  1.0000
  H   H49       1.0  0.36589  0.17995  0.67988  1.0000
  H   H50       1.0  0.37624  0.20751  0.69522  1.0000
  H   H51       1.0  0.01552  0.27608  0.54969  1.0000
  H   H52       1.0  0.31051  0.18392  0.71634  1.0000
  C   C41       1.0  0.14149  0.01206  0.59609  1.0000
  H   H53       1.0  0.39563  0.13866  0.70656  1.0000
  H   H54       1.0  0.06138  0.23534  0.57811  1.0000
  C   C42       1.0  0.23764  0.07457  0.63218  1.0000
  C   C43       1.0  0.22233  0.08952  0.63542  1.0000
  C   C44       1.0  0.22427  0.10390  0.64786  1.0000
  C   C45       1.0  0.24144  0.10349  0.65738  1.0000
  C   C46       1.0  0.25670  0.08848  0.65422  1.0000
  C   C47       1.0  0.25478  0.07414  0.64171  1.0000
  H   H55       1.0  0.20893  0.08986  0.62850  1.0000
  H   H56       1.0  0.21232  0.11536  0.65025  1.0000
  H   H57       1.0  0.26999  0.08792  0.66138  1.0000
  H   H58       1.0  0.26671  0.06263  0.63939  1.0000
  C   C48       1.0  0.08833  0.21923  0.62572  1.0000
  C   C49       1.0  0.08526  0.22491  0.64495  1.0000
  C   C50       1.0  0.09895  0.23534  0.65207  1.0000
  C   C51       1.0  0.11573  0.24065  0.63987  1.0000
  C   C52       1.0  0.11881  0.23495  0.62063  1.0000
  C   C53       1.0  0.10536  0.22411  0.61367  1.0000
  H   H59       1.0  0.07211  0.22133  0.65439  1.0000
  H   H60       1.0  0.09630  0.23964  0.66686  1.0000
  H   H61       1.0  0.13168  0.23904  0.61101  1.0000
  H   H62       1.0  0.10788  0.22003  0.59879  1.0000
  H   H63       1.0  0.04385  0.27198  0.59893  1.0000
  C   C54       1.0  0.25477  0.26415  0.69889  1.0000
  C   C55       1.0  0.14299  0.13391  0.55509  1.0000
  C   C56       1.0  0.15930  0.11926  0.55541  1.0000
  H   H64       1.0  0.13259  0.13541  0.56807  1.0000
  H   H65       1.0  0.16163  0.10958  0.56868  1.0000
  Fe  Fe19      1.0  0.45813  0.32498  0.56450  1.0000
  H   H66       1.0  0.35360  0.16538  0.73501  1.0000
  H   H67       1.0  0.11380  0.00878  0.61395  1.0000
  H   H68       1.0  0.40390  0.31559  0.67650  1.0000
  H   H69       1.0  0.26343  0.20410  0.68938  1.0000
  H   H70       1.0  0.32072  0.21143  0.73146  1.0000
  H   H71       1.0  0.19532  0.01571  0.51807  1.0000
  H   H72       1.0  0.02031  0.12738  0.63317  1.0000
  C   C57       1.0  0.03725  0.11093  0.59532  1.0000
  H   H73       1.0  0.18048  0.14231  0.66617  1.0000
  H   H74       1.0  0.05956  0.26423  0.71999  1.0000
  C   C58       1.0  0.00255  0.10098  0.58307  1.0000
  C   C59       1.0  0.02824  0.12270  0.58021  1.0000
  H   H75       1.0  0.14500  0.00897  0.52633  1.0000
  H   H76       1.0  0.03410  0.13608  0.57365  1.0000
  H   H77       1.0  0.17282  0.29540  0.74194  1.0000
  H   H78       1.0  0.10795  0.11267  0.55824  1.0000
  C   C60       1.0  0.11840  0.06977  0.55941  1.0000
  H   H79       1.0  0.17050  0.22736  0.62831  1.0000
  C   C61       1.0  0.02280  0.17995  0.50533  1.0000
  H   H80       1.0  0.35195  0.11559  0.70849  1.0000
  H   H81       1.0  0.12290  0.10693  0.60958  1.0000
  H   H82       1.0  0.15279  0.15538  0.50830  1.0000
  H   H83       1.0  0.09821  0.05906  0.59436  1.0000
  C   C62       1.0  0.03202  0.00315  0.63100  1.0000
  C   C63       1.0  0.21931  0.31699  0.70285  1.0000
  H   H84       1.0  0.02851  0.15135  0.62854  1.0000
  H   H85       1.0  0.10254  0.11586  0.59599  1.0000
  H   H86       1.0  0.03628  0.08456  0.61552  1.0000
  C   C64       1.0  0.37946  0.13218  0.73550  1.0000
  C   C65       1.0  0.15444  0.14530  0.52148  1.0000
  H   H87       1.0  0.47920  0.26748  0.59125  1.0000
  H   H88       1.0  0.45267  0.31460  0.65007  1.0000
  H   H89       1.0  0.27282  0.23789  0.67631  1.0000
  C   C66       1.0  0.09696  0.10178  0.56218  1.0000
  S   S30       1.0  0.07385  0.19692  0.55870  1.0000
  H   H90       1.0  0.13037  0.09330  0.53785  1.0000
  C   C67       1.0  0.24805  0.13933  0.53509  1.0000
  H   H91       1.0  0.22449  0.14234  0.55813  1.0000
  H   H92       1.0  0.24131  0.27182  0.70643  1.0000
  H   H93       1.0  0.38313  0.15997  0.71663  1.0000
  H   H94       1.0  0.03750  0.21528  0.59405  1.0000
  S   S31       1.0  0.12091  0.16592  0.53632  1.0000
  C   C68       1.0  0.11085  0.10229  0.60233  1.0000
  H   H95       1.0  0.00566  0.03431  0.68467  1.0000
  H   H96       1.0  0.06877  0.26094  0.59690  1.0000
  H   H97       1.0  0.22084  0.16077  0.72227  1.0000
  H   H98       1.0  0.16885  0.01063  0.57703  1.0000
  C   C69       1.0  0.18665  0.32357  0.69210  1.0000
  H   H99       1.0  0.24032  0.15240  0.52707  1.0000
  C   C70       1.0  0.25382  0.09881  0.55528  1.0000
  C   C71       1.0  0.26422  0.08161  0.56788  1.0000
  C   C72       1.0  0.25678  0.11541  0.59929  1.0000
  H   H100      1.0  0.23000  0.09526  0.59110  1.0000
  H   H101      1.0  0.21724  0.09715  0.57019  1.0000
  H   H102      1.0  0.24437  0.09251  0.54602  1.0000
  H   H103      1.0  0.26588  0.10484  0.54492  1.0000
  H   H104      1.0  0.27051  0.07007  0.55826  1.0000
  H   H105      1.0  0.25408  0.07455  0.57958  1.0000
  H   H106      1.0  0.27681  0.08623  0.57425  1.0000
  H   H107      1.0  0.26828  0.12243  0.60516  1.0000
  H   H108      1.0  0.28343  0.27502  0.68813  1.0000
  H   H109      1.0  0.09725  0.10662  0.52996  1.0000
  H   H110      1.0  0.25021  0.26511  0.73904  1.0000
  H   H111      1.0  0.10930  0.06361  0.54994  1.0000
  C   C73       1.0  0.01184  0.08884  0.59782  1.0000
  H   H112      1.0  0.14097  0.06886  0.53426  1.0000
  Fe  Fe20      1.0  0.41991  0.24818  0.74379  1.0000
  H   H113      1.0  0.34999  0.29528  0.72936  1.0000
  H   H114      1.0  0.18383  0.15681  0.68561  1.0000
  H   H115      1.0  0.07286  0.26419  0.74072  1.0000
  H   H116      1.0  0.08265  0.08134  0.59697  1.0000
  C   C74       1.0  0.20884  0.12080  0.58811  1.0000
  H   H117      1.0  0.06522  0.05658  0.58662  1.0000
  H   H118      1.0  0.08617  0.08470  0.54026  1.0000
  C   C75       1.0  0.22486  0.10592  0.57891  1.0000
  C   C76       1.0  0.04279  0.24244  0.53996  1.0000
  S   S32       1.0  0.19342  0.09945  0.53780  1.0000
  H   H119      1.0  0.08502  0.10905  0.57201  1.0000
  H   H120      1.0  0.12524  0.05656  0.56809  1.0000
  H   H121      1.0  0.14527  0.31580  0.73775  1.0000
  H   H122      1.0  0.25267  0.26765  0.68301  1.0000
  C   C77       1.0  0.14053  0.14692  0.53798  1.0000
  H   H123      1.0  0.00516  0.21156  0.58045  1.0000
  C   C78       1.0  0.06207  0.27322  0.73165  1.0000
  H   H124      1.0  0.04366  0.01264  0.62697  1.0000
  C   C79       1.0  0.02541  0.22754  0.59409  1.0000
  C   C80       1.0  0.34323  0.12879  0.73626  1.0000
  C   C81       1.0  0.34850  0.11080  0.72443  1.0000
  H   H125      1.0  0.22856  0.25296  0.67437  1.0000
  N   N4        1.0  0.25617  0.24231  0.70465  1.0000
  C   C82       1.0  0.23705  0.23496  0.70146  1.0000
  C   C83       1.0  0.25930  0.23723  0.72611  1.0000
  C   C84       1.0  0.27345  0.23281  0.69223  1.0000
  C   C85       1.0  0.32597  0.31712  0.72241  1.0000
  H   H126      1.0  0.48587  0.30834  0.63198  1.0000
  H   H127      1.0  0.18537  0.16917  0.71750  1.0000
  H   H128      1.0  0.00503  0.20634  0.60646  1.0000
  H   H129      1.0  0.04245  0.31561  0.73579  1.0000
  C   C86       1.0  0.12565  0.00175  0.60451  1.0000
  H   H130      1.0  0.00572  0.07560  0.60442  1.0000
  H   H131      1.0  0.26808  0.28957  0.70544  1.0000
  H   H132      1.0  0.45478  0.32176  0.61363  1.0000
  C   C87       1.0  0.20044  0.00070  0.51551  1.0000
  H   H133      1.0  0.27494  0.23785  0.72862  1.0000
  H   H134      1.0  0.18095  0.12958  0.50877  1.0000
  H   H135      1.0  0.22431  0.24264  0.71011  1.0000
  H   H136      1.0  0.01403  0.23605  0.55402  1.0000
  C   C88       1.0  0.01955  0.14164  0.63917  1.0000
  H   H137      1.0  0.03913  0.23623  0.52681  1.0000
  C   C89       1.0  0.99827  0.15152  0.64353  1.0000
  N   N5        1.0  0.16243  0.18247  0.65646  1.0000
  C   C90       1.0  0.18374  0.17368  0.65604  1.0000
  C   C91       1.0  0.16133  0.19875  0.63973  1.0000
  C   C92       1.0  0.15005  0.16658  0.65334  1.0000
  C   C93       1.0  0.15640  0.18982  0.67632  1.0000
  C   C94       1.0  0.17349  0.21593  0.64074  1.0000
  C   C95       1.0  0.13014  0.17319  0.64484  1.0000
  C   C96       1.0  0.13558  0.20073  0.67966  1.0000
  H   H138      1.0  0.18973  0.17034  0.64085  1.0000
  H   H139      1.0  0.19321  0.18427  0.66012  1.0000
  H   H140      1.0  0.14601  0.20548  0.63841  1.0000
  H   H141      1.0  0.16616  0.19276  0.62537  1.0000
  H   H142      1.0  0.15835  0.15663  0.64284  1.0000
  H   H143      1.0  0.14681  0.15708  0.66739  1.0000
  H   H144      1.0  0.15683  0.17742  0.68825  1.0000
  H   H145      1.0  0.16721  0.19918  0.68022  1.0000
  N   N6        1.0  0.24181  0.11468  0.56622  1.0000
  H   H146      1.0  0.16901  0.22304  0.65440  1.0000
  C   C97       1.0  0.00592  0.21833  0.59415  1.0000
  H   H147      1.0  0.12181  0.16023  0.64541  1.0000
  H   H148      1.0  0.13243  0.17914  0.62908  1.0000
  H   H149      1.0  0.12055  0.18413  0.65310  1.0000
  H   H150      1.0  0.12440  0.19031  0.68470  1.0000
  H   H151      1.0  0.13115  0.21049  0.66671  1.0000
  H   H152      1.0  0.13542  0.21072  0.69115  1.0000
  S   S33       1.0  0.20037  0.28450  0.70113  1.0000
  S   S34       1.0  0.06811  0.15096  0.55371  1.0000
  C   C98       1.0  0.20207  0.31006  0.69847  1.0000
  H   H153      1.0  0.04105  0.25858  0.53682  1.0000
  H   H154      1.0  0.05857  0.23741  0.54150  1.0000
  S   S35       1.0  0.24763  0.18125  0.73991  1.0000
  H   H155      1.0  0.99964  0.16755  0.64182  1.0000
  Fe  Fe21      1.0  0.04845  0.17898  0.55750  1.0000
  C   C99       1.0  0.23314  0.12990  0.55101  1.0000
  C   C100      1.0  0.38181  0.14434  0.71513  1.0000
  H   H156      1.0  0.20400  0.14988  0.66823  1.0000
  C   C101      1.0  0.27295  0.27436  0.70178  1.0000
  C   C102      1.0  0.18787  0.15462  0.66989  1.0000
  H   H157      1.0  0.36945  0.14358  0.70633  1.0000
  H   H158      1.0  0.21523  0.13246  0.59426  1.0000
  H   H159      1.0  0.03857  0.17902  0.50595  1.0000
  H   H160      1.0  0.08083  0.05533  0.56411  1.0000
  H   H161      1.0  0.28111  0.26713  0.71409  1.0000
  H   H162      1.0  0.26132  0.09943  0.60073  1.0000
  H   H163      1.0  0.24899  0.14009  0.57887  1.0000
  S   S36       1.0  0.10739  0.29554  0.73790  1.0000
  H   H164      1.0  0.28758  0.23738  0.69572  1.0000
  H   H165      1.0  0.00871  0.02622  0.62434  1.0000
  H   H166      1.0  0.25665  0.22172  0.73106  1.0000
  H   H167      1.0  0.28953  0.20485  0.68553  1.0000
  C   C103      1.0  0.17045  0.13069  0.52176  1.0000
  H   H168      1.0  0.47549  0.26866  0.61698  1.0000
  H   H169      1.0  0.03397  0.21853  0.55991  1.0000
  H   H170      1.0  0.18960  0.21143  0.63921  1.0000
  C   C104      1.0  0.17286  0.11747  0.53857  1.0000
  H   H171      1.0  0.06498  0.07778  0.56922  1.0000
  H   H172      1.0  0.25382  0.12916  0.52389  1.0000
  C   C105      1.0  0.12006  0.08889  0.58646  1.0000
  C   C106      1.0  0.27587  0.21017  0.69462  1.0000
  H   H173      1.0  0.07330  0.10819  0.54302  1.0000
  H   H174      1.0  0.33816  0.14110  0.72539  1.0000
  H   H175      1.0  0.23021  0.25018  0.73903  1.0000
  H   H176      1.0  0.33519  0.10286  0.72527  1.0000
  C   C107      1.0  0.13521  0.07885  0.54564  1.0000
  H   H177      1.0  0.36035  0.09988  0.72967  1.0000
  H   H178      1.0  0.22250  0.12356  0.54316  1.0000
  H   H179      1.0  0.14784  0.08035  0.55382  1.0000
  H   H180      1.0  0.05053  0.24778  0.61134  1.0000
  H   H181      1.0  0.26044  0.14432  0.54146  1.0000
  C   C108      1.0  0.08816  0.09976  0.54286  1.0000
  H   H182      1.0  0.26979  0.12467  0.57006  1.0000
  C   C109      1.0  0.02922  0.09381  0.60395  1.0000
  S   S37       1.0  0.01845  0.18719  0.54502  1.0000
  C   C110      1.0  0.07479  0.06519  0.57545  1.0000
  C   C111      1.0  0.35576  0.32401  0.73485  1.0000
  C   C112      1.0  0.49617  0.29478  0.63450  1.0000
  H   H183      1.0  0.12772  0.07559  0.59422  1.0000
  H   H184      1.0  0.21808  0.23032  0.67976  1.0000
  H   H185      1.0  0.23130  0.30671  0.70782  1.0000
  H   H186      1.0  0.49398  0.30028  0.66501  1.0000
  C   C113      1.0  0.02938  0.23461  0.55820  1.0000
  H   H187      1.0  0.01320  0.26498  0.59466  1.0000
  C   C114      1.0  0.22297  0.18728  0.73523  1.0000
  H   H188      1.0  0.06872  0.28637  0.72407  1.0000
  H   H189      1.0  0.00392  0.12706  0.56251  1.0000
  H   H190      1.0  0.48532  0.30020  0.59828  1.0000
  H   H191      1.0  0.18553  0.22392  0.74126  1.0000
  C   C115      1.0  0.23182  0.23730  0.68004  1.0000
  H   H192      1.0  0.00419  0.14630  0.60460  1.0000
  H   H193      1.0  0.02465  0.23321  0.60866  1.0000
  H   H194      1.0  0.06518  0.30993  0.74524  1.0000
  H   H195      1.0  0.00556  0.29069  0.56887  1.0000
  H   H196      1.0  0.23110  0.99644  0.63373  1.0000
  S   S38       1.0  0.45905  0.32728  0.53137  1.0000
  C   C116      1.0  0.24613  0.24987  0.74066  1.0000
  H   H197      1.0  0.00078  0.03449  0.72034  1.0000
  H   H198      1.0  0.48283  0.22728  0.72765  1.0000
  C   C117      1.0  0.39529  0.32629  0.68607  1.0000
  S   S39       1.0  0.37919  0.31595  0.74275  1.0000
  C   C118      1.0  0.49717  0.28786  0.60048  1.0000
  H   H199      1.0  0.48106  0.31479  0.70574  1.0000
  C   C119      1.0  0.48531  0.29887  0.70966  1.0000
  C   C120      1.0  0.48973  0.23698  0.73602  1.0000
  C   C121      1.0  0.48195  0.25844  0.72984  1.0000
  H   H200      1.0  0.46552  0.25926  0.73098  1.0000
  N   N7        1.0  0.48816  0.27387  0.74093  1.0000
  C   C122      1.0  0.47965  0.29372  0.73196  1.0000
  H   H201      1.0  0.39083  0.13614  0.74421  1.0000
  H   H202      1.0  0.46319  0.29525  0.73440  1.0000
  H   H203      1.0  0.48436  0.30573  0.73921  1.0000
  C   C123      1.0  0.37341  0.32748  0.68214  1.0000
  H   H204      1.0  0.49771  0.25540  0.60585  1.0000
  H   H205      1.0  0.33927  0.03272  0.80856  1.0000
  C   C124      1.0  0.37494  0.01704  0.93810  1.0000
  C   C125      1.0  0.37531  0.99604  0.85673  1.0000
  H   H206      1.0  0.37068  0.12919  0.77525  1.0000
  Fe  Fe22      1.0  0.48333  0.16979  0.88408  1.0000
  S   S40       1.0  0.49049  0.19894  0.89166  1.0000
  S   S41       1.0  0.45846  0.15384  0.90145  1.0000
  H   H207      1.0  0.48365  0.20633  0.81486  1.0000
  S   S42       1.0  0.47569  0.23517  0.84316  1.0000
  H   H208      1.0  0.31202  0.00105  0.80384  1.0000
  H   H209      1.0  0.44485  0.07927  0.79813  1.0000
  S   S43       1.0  0.48270  0.17945  0.85190  1.0000
  H   H210      1.0  0.01623  0.31526  0.92444  1.0000
  Fe  Fe23      1.0  0.37639  0.04540  0.84772  1.0000
  S   S44       1.0  0.34492  0.04886  0.86051  1.0000
  S   S45       1.0  0.38815  0.02328  0.82713  1.0000
  Fe  Fe24      1.0  0.38793  0.07910  0.86703  1.0000
  S   S46       1.0  0.35699  0.08505  0.88197  1.0000
  S   S47       1.0  0.41491  0.09596  0.86052  1.0000
  Fe  Fe25      1.0  0.35807  0.05175  0.88856  1.0000
  S   S48       1.0  0.34460  0.03234  0.91508  1.0000
  Fe  Fe26      1.0  0.34682  0.08116  0.85265  1.0000
  S   S49       1.0  0.32557  0.10337  0.83607  1.0000
  S   S50       1.0  0.38970  0.04636  0.87562  1.0000
  S   S51       1.0  0.37746  0.07711  0.83767  1.0000
  H   H211      1.0  0.24833  0.24348  0.75597  1.0000
  H   H212      1.0  0.23917  0.09510  0.79233  1.0000
  H   H213      1.0  0.21582  0.11721  0.80649  1.0000
  H   H214      1.0  0.41900  0.07570  0.80498  1.0000
  C   C126      1.0  0.43038  0.03888  0.79216  1.0000
  H   H215      1.0  0.33248  0.17862  0.76066  1.0000
  H   H216      1.0  0.39181  0.99866  0.77553  1.0000
  H   H217      1.0  0.21149  0.17336  0.77920  1.0000
  S   S52       1.0  0.11114  0.29832  0.82973  1.0000
  Fe  Fe27      1.0  0.49157  0.20778  0.85869  1.0000
  H   H218      1.0  0.26536  0.14308  0.81579  1.0000
  C   C127      1.0  0.47853  0.09010  0.89646  1.0000
  H   H219      1.0  0.19579  0.15584  0.79291  1.0000
  H   H220      1.0  0.23357  0.16460  0.80399  1.0000
  H   H221      1.0  0.29034  0.32381  0.75618  1.0000
  H   H222      1.0  0.15368  0.31287  0.80292  1.0000
  C   C128      1.0  0.10929  0.29615  0.76328  1.0000
  C   C129      1.0  0.09958  0.31216  0.77260  1.0000
  C   C130      1.0  0.10013  0.31299  0.79287  1.0000
  C   C131      1.0  0.11032  0.29771  0.80413  1.0000
  C   C132      1.0  0.11995  0.28159  0.79483  1.0000
  C   C133      1.0  0.11950  0.28082  0.77447  1.0000
  S   S53       1.0  0.48310  0.08177  0.81992  1.0000
  C   C134      1.0  0.32576  0.00823  0.79905  1.0000
  H   H223      1.0  0.12774  0.26962  0.80343  1.0000
  H   H224      1.0  0.12680  0.26824  0.76755  1.0000
  H   H225      1.0  0.04371  0.28493  0.80341  1.0000
  C   C135      1.0  0.48930  0.11519  0.83451  1.0000
  H   H226      1.0  0.42386  0.02678  0.76614  1.0000
  H   H227      1.0  0.49649  0.17945  0.79156  1.0000
  C   C136      1.0  0.45969  0.08752  0.91092  1.0000
  H   H228      1.0  0.17728  0.29387  0.76762  1.0000
  H   H229      1.0  0.25151  0.11230  0.82218  1.0000
  C   C137      1.0  0.36429  0.10122  0.76804  1.0000
  C   C138      1.0  0.46677  0.23382  0.82021  1.0000
  C   C139      1.0  0.45286  0.24873  0.81283  1.0000
  C   C140      1.0  0.44483  0.24742  0.79509  1.0000
  C   C141      1.0  0.45087  0.23126  0.78450  1.0000
  C   C142      1.0  0.46489  0.21654  0.79178  1.0000
  C   C143      1.0  0.47287  0.21780  0.80946  1.0000
  H   H230      1.0  0.44804  0.26118  0.82105  1.0000
  H   H231      1.0  0.43398  0.25886  0.78969  1.0000
  H   H232      1.0  0.46944  0.20396  0.78372  1.0000
  H   H233      1.0  0.44669  0.08765  0.90271  1.0000
  C   C144      1.0  0.44490  0.13920  0.88971  1.0000
  C   C145      1.0  0.42876  0.13040  0.90024  1.0000
  C   C146      1.0  0.41868  0.11760  0.89145  1.0000
  C   C147      1.0  0.42485  0.11350  0.87209  1.0000
  C   C148      1.0  0.44032  0.12302  0.86139  1.0000
  C   C149      1.0  0.45035  0.13574  0.87013  1.0000
  H   H234      1.0  0.42433  0.13312  0.91540  1.0000
  H   H235      1.0  0.40665  0.11044  0.89982  1.0000
  H   H236      1.0  0.44468  0.12027  0.84624  1.0000
  H   H237      1.0  0.46250  0.14263  0.86180  1.0000
  C   C150      1.0  0.30772  0.09543  0.77526  1.0000
  C   C151      1.0  0.30503  0.11389  0.78222  1.0000
  C   C152      1.0  0.31063  0.11613  0.80083  1.0000
  C   C153      1.0  0.31955  0.10007  0.81239  1.0000
  C   C154      1.0  0.32295  0.08176  0.80509  1.0000
  C   C155      1.0  0.31686  0.07942  0.78671  1.0000
  H   H238      1.0  0.29834  0.12635  0.77340  1.0000
  H   H239      1.0  0.30810  0.13036  0.80633  1.0000
  H   H240      1.0  0.32983  0.06934  0.81387  1.0000
  H   H241      1.0  0.31912  0.06511  0.78139  1.0000
  H   H242      1.0  0.46043  0.07441  0.92179  1.0000
  H   H243      1.0  0.44913  0.02116  0.77083  1.0000
  H   H244      1.0  0.00200  0.26275  0.98689  1.0000
  C   C156      1.0  0.34564  0.00005  0.94306  1.0000
  H   H245      1.0  0.22042  0.21480  0.74765  1.0000
  H   H246      1.0  0.25992  0.09326  0.77420  1.0000
  H   H247      1.0  0.45401  0.02543  0.84712  1.0000
  H   H248      1.0  0.34526  0.12602  0.77604  1.0000
  H   H249      1.0  0.23885  0.13164  0.83605  1.0000
  C   C157      1.0  0.43381  0.07455  0.81025  1.0000
  C   C158      1.0  0.32610  0.02461  0.81246  1.0000
  H   H250      1.0  0.26703  0.16824  0.80679  1.0000
  C   C159      1.0  0.43956  0.05379  0.82025  1.0000
  C   C160      1.0  0.05770  0.28170  0.77321  1.0000
  C   C161      1.0  0.20553  0.15911  0.77914  1.0000
  N   N8        1.0  0.41671  0.18880  0.83088  1.0000
  C   C162      1.0  0.41231  0.17317  0.84763  1.0000
  C   C163      1.0  0.42924  0.20264  0.83765  1.0000
  C   C164      1.0  0.42778  0.18000  0.81316  1.0000
  C   C165      1.0  0.39743  0.19947  0.82503  1.0000
  C   C166      1.0  0.40246  0.15575  0.84244  1.0000
  C   C167      1.0  0.41982  0.21397  0.85504  1.0000
  C   C168      1.0  0.44738  0.16727  0.81666  1.0000
  C   C169      1.0  0.39897  0.21819  0.81033  1.0000
  H   H251      1.0  0.42592  0.16714  0.85456  1.0000
  H   H252      1.0  0.40227  0.17954  0.85974  1.0000
  H   H253      1.0  0.43390  0.21353  0.82529  1.0000
  H   H254      1.0  0.44316  0.19463  0.84247  1.0000
  H   H255      1.0  0.41833  0.17100  0.80662  1.0000
  H   H256      1.0  0.43170  0.19169  0.80122  1.0000
  H   H257      1.0  0.38920  0.18966  0.81809  1.0000
  H   H258      1.0  0.38750  0.20370  0.83822  1.0000
  H   H259      1.0  0.38841  0.16052  0.83598  1.0000
  H   H260      1.0  0.41248  0.14657  0.83250  1.0000
  H   H261      1.0  0.39879  0.14605  0.85619  1.0000
  H   H262      1.0  0.40587  0.22299  0.85190  1.0000
  H   H263      1.0  0.41740  0.20398  0.86881  1.0000
  H   H264      1.0  0.43026  0.22422  0.85789  1.0000
  H   H265      1.0  0.45307  0.16015  0.80315  1.0000
  H   H266      1.0  0.44572  0.15536  0.82885  1.0000
  H   H267      1.0  0.45888  0.17634  0.81935  1.0000
  H   H268      1.0  0.40484  0.23001  0.81674  1.0000
  H   H269      1.0  0.38396  0.22406  0.80649  1.0000
  H   H270      1.0  0.40802  0.21530  0.79631  1.0000
  C   C170      1.0  0.26442  0.15380  0.80255  1.0000
  H   H271      1.0  0.42671  0.05030  0.83117  1.0000
  H   H272      1.0  0.32526  0.01887  0.82829  1.0000
  H   H273      1.0  0.01865  0.27889  0.77790  1.0000
  S   S54       1.0  0.38752  0.25609  0.75209  1.0000
  C   C171      1.0  0.45723  0.01427  0.83652  1.0000
  C   C172      1.0  0.24647  0.10292  0.77890  1.0000
  H   H274      1.0  0.07000  0.28170  0.80089  1.0000
  H   H275      1.0  0.21382  0.13997  0.81558  1.0000
  H   H276      1.0  0.19730  0.29431  0.74841  1.0000
  N   N9        1.0  0.04282  0.29182  0.75978  1.0000
  H   H277      1.0  0.23698  0.10456  0.76672  1.0000
  N   N10       1.0  0.44518  0.03765  0.80693  1.0000
  C   C173      1.0  0.43375  0.02279  0.77799  1.0000
  H   H278      1.0  0.35230  0.09447  0.76273  1.0000
  H   H279      1.0  0.35720  0.01218  0.77406  1.0000
  H   H280      1.0  0.36633  0.00804  0.86329  1.0000
  N   N11       1.0  0.23626  0.13715  0.79086  1.0000
  H   H281      1.0  0.47231  0.02367  0.79260  1.0000
  H   H282      1.0  0.48746  0.09984  0.90269  1.0000
  H   H283      1.0  0.47541  0.06691  0.78467  1.0000
  C   C174      1.0  0.46614  0.03818  0.79742  1.0000
  H   H284      1.0  0.42979  0.00845  0.78562  1.0000
  H   H285      1.0  0.24644  0.16546  0.78001  1.0000
  H   H286      1.0  0.47333  0.09866  0.88289  1.0000
  H   H287      1.0  0.26028  0.12944  0.76883  1.0000
  C   C175      1.0  0.02257  0.29361  0.77110  1.0000
  H   H288      1.0  0.49657  0.13937  0.84822  1.0000
  H   H289      1.0  0.41528  0.03839  0.79986  1.0000
  H   H290      1.0  0.47763  0.11167  0.84582  1.0000
  C   C176      1.0  0.22205  0.14227  0.77535  1.0000
  C   C177      1.0  0.35616  0.01524  0.93294  1.0000
  H   H291      1.0  0.22889  0.10862  0.83605  1.0000
  H   H292      1.0  0.45178  0.05509  0.82914  1.0000
  C   C178      1.0  0.23695  0.12005  0.82674  1.0000
  C   C179      1.0  0.25267  0.12275  0.78284  1.0000
  H   H293      1.0  0.47306  0.01303  0.83078  1.0000
  C   C180      1.0  0.22497  0.12860  0.80947  1.0000
  H   H294      1.0  0.26445  0.11909  0.79276  1.0000
  H   H295      1.0  0.21442  0.12938  0.77343  1.0000
  H   H296      1.0  0.19600  0.16110  0.76691  1.0000
  H   H297      1.0  0.05787  0.30490  0.79271  1.0000
  C   C181      1.0  0.04903  0.31127  0.74994  1.0000
  H   H298      1.0  0.23016  0.14646  0.76068  1.0000
  H   H299      1.0  0.47600  0.04039  0.80852  1.0000
  C   C182      1.0  0.44392  0.01827  0.81962  1.0000
  H   H300      1.0  0.42933  0.05319  0.78298  1.0000
  H   H301      1.0  0.00886  0.31725  0.75069  1.0000
  H   H302      1.0  0.44786  0.00570  0.81070  1.0000
  H   H303      1.0  0.42856  0.01690  0.82642  1.0000
  H   H304      1.0  0.38313  0.02875  0.93067  1.0000
  S   S55       1.0  0.29952  0.09165  0.75264  1.0000
  C   C183      1.0  0.05701  0.28898  0.79361  1.0000
  H   H305      1.0  0.45649  0.10047  0.91941  1.0000
  H   H306      1.0  0.39699  0.00622  0.95787  1.0000
  H   H307      1.0  0.33701  0.15796  0.77835  1.0000
  C   C184      1.0  0.15832  0.32530  0.79218  1.0000
  C   C185      1.0  0.47028  0.05382  0.77976  1.0000
  C   C186      1.0  0.24432  0.15584  0.79414  1.0000
  H   H308      1.0  0.27662  0.14983  0.79114  1.0000
  H   H309      1.0  0.36482  0.09516  0.78373  1.0000
  C   C187      1.0  0.47887  0.27132  0.76200  1.0000
  C   C188      1.0  0.33558  0.16236  0.76247  1.0000
  H   H310      1.0  0.35256  0.99667  0.82663  1.0000
  H   H311      1.0  0.43283  0.08519  0.82133  1.0000
  C   C189      1.0  0.38828  0.99976  0.83971  1.0000
  H   H312      1.0  0.45675  0.07472  0.87228  1.0000
  H   H313      1.0  0.45790  0.05865  0.77089  1.0000
  H   H314      1.0  0.47839  0.28126  0.79092  1.0000
  H   H315      1.0  0.33102  0.99864  0.93936  1.0000
  H   H316      1.0  0.31293  0.03546  0.81070  1.0000
  H   H317      1.0  0.19064  0.32687  0.76090  1.0000
  H   H318      1.0  0.48646  0.04697  0.92832  1.0000
  H   H319      1.0  0.03148  0.31708  0.81719  1.0000
  H   H320      1.0  0.05607  0.26569  0.77614  1.0000
  H   H321      1.0  0.46963  0.05088  0.90279  1.0000
  C   C190      1.0  0.49467  0.10307  0.81950  1.0000
  H   H322      1.0  0.07299  0.28266  0.76603  1.0000
  H   H323      1.0  0.36545  0.01375  0.79711  1.0000
  H   H324      1.0  0.32369  0.01584  0.78410  1.0000
  C   C191      1.0  0.46466  0.05973  0.87268  1.0000
  C   C192      1.0  0.18178  0.30033  0.75241  1.0000
  H   H325      1.0  0.36714  0.16180  0.75581  1.0000
  H   H326      1.0  0.48223  0.04751  0.76924  1.0000
  C   C193      1.0  0.35974  0.12368  0.76707  1.0000
  H   H327      1.0  0.48288  0.25657  0.76952  1.0000
  H   H328      1.0  0.47277  0.05782  0.85797  1.0000
  H   H329      1.0  0.09233  0.32531  0.79984  1.0000
  H   H330      1.0  0.48567  0.23225  0.75179  1.0000
  H   H331      1.0  0.46248  0.27224  0.76242  1.0000
  H   H332      1.0  0.47531  0.30092  0.77185  1.0000
  H   H333      1.0  0.17462  0.32323  0.79035  1.0000
  C   C194      1.0  0.36109  0.00316  0.78787  1.0000
  H   H334      1.0  0.45446  0.99989  0.84491  1.0000
  H   H335      1.0  0.45333  0.04919  0.87523  1.0000
  S   S56       1.0  0.44176  0.22848  0.76204  1.0000
  H   H336      1.0  0.03622  0.26464  0.75023  1.0000
  C   C195      1.0  0.38274  0.00424  0.95360  1.0000
  H   H337      1.0  0.28451  0.32308  0.78223  1.0000
  C   C196      1.0  0.18061  0.32290  0.75080  1.0000
  H   H338      1.0  0.48943  0.07146  0.93440  1.0000
  C   C197      1.0  0.47879  0.05526  0.88895  1.0000
  C   C198      1.0  0.14898  0.32498  0.77287  1.0000
  H   H339      1.0  0.48861  0.04167  0.88573  1.0000
  H   H340      1.0  0.14577  0.30974  0.77184  1.0000
  H   H341      1.0  0.09160  0.32403  0.76409  1.0000
  C   C199      1.0  0.48345  0.28628  0.77535  1.0000
  H   H342      1.0  0.02210  0.30215  0.78383  1.0000
  H   H343      1.0  0.37879  0.09657  0.76012  1.0000
  H   H344      1.0  0.49326  0.08112  0.85987  1.0000
  H   H345      1.0  0.32266  0.15633  0.75818  1.0000
  N   N12       1.0  0.35925  0.13483  0.74682  1.0000
  H   H346      1.0  0.33008  0.12583  0.74685  1.0000
  N   N13       1.0  0.49100  0.07154  0.89114  1.0000
  C   C200      1.0  0.00561  0.30304  0.75907  1.0000
  C   C201      1.0  0.49664  0.05845  0.92730  1.0000
  C   C202      1.0  0.35482  0.15641  0.74948  1.0000
  H   H347      1.0  0.00190  0.29299  0.74895  1.0000
  Fe  Fe28      1.0  0.10128  0.32736  0.84215  1.0000
  H   H348      1.0  0.48892  0.99455  0.77398  1.0000
  C   C203      1.0  0.04748  0.64734  0.02319  1.0000
  H   H349      1.0  0.19260  0.64683  0.08346  1.0000
  H   H350      1.0  0.19301  0.63596  0.06128  1.0000
  C   C204      1.0  0.06046  0.55840  0.09009  1.0000
  C   C205      1.0  0.01387  0.62543  0.04584  1.0000
  S   S57       1.0  0.19935  0.64605  0.01166  1.0000
  H   H351      1.0  0.00398  0.64665  0.18427  1.0000
  Fe  Fe29      1.0  0.20075  0.61318  0.01477  1.0000
  S   S58       1.0  0.19106  0.59872  0.04521  1.0000
  H   H352      1.0  0.03995  0.63899  0.01409  1.0000
  C   C206      1.0  0.05399  0.60593  0.05057  1.0000
  H   H353      1.0  0.44011  0.62925  0.23257  1.0000
  Fe  Fe30      1.0  0.05269  0.62609  0.13597  1.0000
  S   S59       1.0  0.06476  0.60871  0.16239  1.0000
  S   S60       1.0  0.02227  0.64235  0.13881  1.0000
  Fe  Fe31      1.0  0.08892  0.61421  0.10797  1.0000
  S   S61       1.0  0.10320  0.59551  0.13236  1.0000
  S   S62       1.0  0.10016  0.61648  0.07553  1.0000
  Fe  Fe32      1.0  0.07303  0.58514  0.14189  1.0000
  S   S63       1.0  0.06868  0.55256  0.14959  1.0000
  Fe  Fe33      1.0  0.09323  0.62128  0.15005  1.0000
  S   S64       1.0  0.11590  0.63323  0.16612  1.0000
  S   S65       1.0  0.05978  0.60215  0.11608  1.0000
  S   S66       1.0  0.08029  0.64035  0.12493  1.0000
  H   H354      1.0  0.11375  0.52402  0.07320  1.0000
  C   C207      1.0  0.20904  0.61617  0.10292  1.0000
  Fe  Fe34      1.0  0.49014  0.63415  0.23782  1.0000
  S   S67       1.0  0.00812  0.49098  0.13962  1.0000
  C   C208      1.0  0.23201  0.63314  0.05041  1.0000
  C   C209      1.0  0.04422  0.62180  0.06383  1.0000
  C   C210      1.0  0.20107  0.64555  0.06877  1.0000
  N   N14       1.0  0.02737  0.63555  0.05615  1.0000
  C   C211      1.0  0.02537  0.65663  0.08532  1.0000
  H   H355      1.0  0.24435  0.63949  0.08972  1.0000
  C   C212      1.0  0.08643  0.51519  0.08784  1.0000
  C   C213      1.0  0.23299  0.64881  0.08146  1.0000
  H   H356      1.0  0.01363  0.59863  0.06726  1.0000
  H   H357      1.0  0.06210  0.63958  0.02624  1.0000
  H   H358      1.0  0.14366  0.65335  0.18218  1.0000
  H   H359      1.0  0.05609  0.63027  0.06712  1.0000
  H   H360      1.0  0.01406  0.47474  0.20591  1.0000
  C   C214      1.0  0.03488  0.65243  0.04237  1.0000
  H   H361      1.0  0.00207  0.63631  0.04002  1.0000
  H   H362      1.0  0.00685  0.49464  0.18840  1.0000
  H   H363      1.0  0.06952  0.51131  0.15554  1.0000
  S   S68       1.0  0.23209  0.60857  0.00040  1.0000
  C   C215      1.0  0.00954  0.47836  0.19083  1.0000
  C   C216      1.0  0.16593  0.60420  0.05387  1.0000
  C   C217      1.0  0.15203  0.61069  0.04064  1.0000
  C   C218      1.0  0.13201  0.61482  0.04751  1.0000
  C   C219      1.0  0.12569  0.61247  0.06775  1.0000
  C   C220      1.0  0.13962  0.60603  0.08110  1.0000
  C   C221      1.0  0.15968  0.60178  0.07415  1.0000
  H   H364      1.0  0.15669  0.61197  0.02506  1.0000
  H   H365      1.0  0.12136  0.61962  0.03705  1.0000
  H   H366      1.0  0.13491  0.60411  0.09673  1.0000
  H   H367      1.0  0.17034  0.59660  0.08450  1.0000
  H   H368      1.0  0.11604  0.53016  0.12985  1.0000
  H   H369      1.0  0.02175  0.47407  0.17964  1.0000
  C   C222      1.0  0.05543  0.51671  0.15025  1.0000
  C   C223      1.0  0.05063  0.53695  0.14595  1.0000
  C   C224      1.0  0.03219  0.54358  0.13907  1.0000
  C   C225      1.0  0.00494  0.44255  0.17000  1.0000
  H   H370      1.0  0.04908  0.57096  0.08729  1.0000
  H   H371      1.0  0.02820  0.55916  0.13579  1.0000
  C   C226      1.0  0.01875  0.52994  0.13680  1.0000
  H   H372      1.0  0.04848  0.59155  0.05589  1.0000
  H   H373      1.0  0.23390  0.64718  0.04109  1.0000
  C   C227      1.0  0.01032  0.60779  0.13078  1.0000
  C   C228      1.0  0.02075  0.43169  0.20779  1.0000
  H   H374      1.0  0.08713  0.53886  0.11469  1.0000
  H   H375      1.0  0.09631  0.50408  0.09611  1.0000
  H   H376      1.0  0.02332  0.60041  0.13690  1.0000
  N   N15       1.0  0.09856  0.54997  0.08503  1.0000
  C   C229      1.0  0.11664  0.55972  0.07608  1.0000
  C   C230      1.0  0.09955  0.54654  0.10699  1.0000
  C   C231      1.0  0.08075  0.56423  0.08074  1.0000
  C   C232      1.0  0.11763  0.56663  0.05380  1.0000
  C   C233      1.0  0.11847  0.53459  0.11372  1.0000
  H   H377      1.0  0.11806  0.57274  0.08378  1.0000
  H   H378      1.0  0.13037  0.54969  0.07805  1.0000
  H   H379      1.0  0.09801  0.56081  0.11337  1.0000
  H   H380      1.0  0.08236  0.57878  0.08552  1.0000
  H   H381      1.0  0.07955  0.56688  0.06464  1.0000
  H   H382      1.0  0.11519  0.55489  0.04498  1.0000
  H   H383      1.0  0.10707  0.57982  0.05069  1.0000
  H   H384      1.0  0.13258  0.57111  0.04862  1.0000
  C   C234      1.0  0.04226  0.50328  0.14793  1.0000
  H   H385      1.0  0.13107  0.54364  0.11135  1.0000
  H   H386      1.0  0.23593  0.60931  0.08482  1.0000
  H   H387      1.0  0.26184  0.62514  0.06031  1.0000
  H   H388      1.0  0.22262  0.62536  0.04245  1.0000
  H   H389      1.0  0.08026  0.50702  0.07743  1.0000
  H   H390      1.0  0.12240  0.52106  0.10629  1.0000
  H   H391      1.0  0.21229  0.60155  0.11128  1.0000
  C   C235      1.0  0.01494  0.64415  0.07338  1.0000
  H   H392      1.0  0.04446  0.66052  0.04974  1.0000
  C   C236      1.0  0.22089  0.61649  0.08234  1.0000
  C   C237      1.0  0.11341  0.65639  0.17569  1.0000
  C   C238      1.0  0.25241  0.62095  0.04983  1.0000
  H   H393      1.0  0.07012  0.60384  0.05187  1.0000
  H   H394      1.0  0.09283  0.53440  0.06109  1.0000
  H   H395      1.0  0.01796  0.41778  0.15416  1.0000
  C   C239      1.0  0.00554  0.62800  0.13149  1.0000
  H   H396      1.0  0.05967  0.55521  0.10630  1.0000
  H   H397      1.0  0.21442  0.60642  0.07397  1.0000
  H   H398      1.0  0.25705  0.65887  0.05947  1.0000
  H   H399      1.0  0.05609  0.54600  0.08332  1.0000
  H   H400      1.0  0.25074  0.60502  0.05296  1.0000
  H   H401      1.0  0.05241  0.60927  0.03471  1.0000
  Fe  Fe35      1.0  0.22979  0.64179  0.99595  1.0000
  N   N16       1.0  0.22198  0.63643  0.07067  1.0000
  H   H402      1.0  0.19289  0.61803  0.10181  1.0000
  H   H403      1.0  0.07379  0.52054  0.09803  1.0000
  C   C240      1.0  0.02377  0.50961  0.14134  1.0000
  H   H404      1.0  0.26025  0.62318  0.03474  1.0000
  H   H405      1.0  0.15224  0.63392  0.99918  1.0000
  H   H406      1.0  0.02152  0.61902  0.03263  1.0000
  C   C241      1.0  0.09837  0.53119  0.07585  1.0000
  H   H407      1.0  0.04648  0.48775  0.15139  1.0000
  H   H408      1.0  0.00242  0.58162  0.12063  1.0000
  H   H409      1.0  0.21297  0.62736  0.11165  1.0000
  C   C242      1.0  0.99827  0.43670  0.20697  1.0000
  H   H410      1.0  0.12782  0.61010  0.99870  1.0000
  H   H411      1.0  0.03879  0.64845  0.09103  1.0000
  H   H412      1.0  0.00799  0.65869  0.00295  1.0000
  H   H413      1.0  0.02048  0.44500  0.17089  1.0000
  H   H414      1.0  0.02916  0.44457  0.20399  1.0000
  H   H415      1.0  0.00453  0.53517  0.13174  1.0000
  H   H416      1.0  0.00923  0.63235  0.08431  1.0000
  H   H417      1.0  0.03903  0.61368  0.07818  1.0000
  H   H418      1.0  0.02348  0.42556  0.22305  1.0000
  S   S69       1.0  0.47481  0.65368  0.21388  1.0000
  H   H419      1.0  0.02697  0.42026  0.19807  1.0000
  H   H420      1.0  0.00578  0.41037  0.17809  1.0000
  C   C243      1.0  0.00346  0.60892  0.05859  1.0000
  H   H421      1.0  0.00062  0.45242  0.15683  1.0000
  H   H422      1.0  0.41431  0.63479  0.23781  1.0000
  H   H423      1.0  0.00164  0.65346  0.06839  1.0000
  S   S70       1.0  0.25455  0.65890  0.00263  1.0000
  H   H424      1.0  0.01512  0.66063  0.09833  1.0000
  C   C244      1.0  0.99823  0.59703  0.12206  1.0000
  C   C245      1.0  0.00500  0.42133  0.16495  1.0000
  H   H425      1.0  0.22275  0.65602  0.09292  1.0000
  H   H426      1.0  0.01551  0.65910  0.20022  1.0000
  C   C246      1.0  0.42811  0.63110  0.24480  1.0000
  C   C247      1.0  0.27219  0.63035  0.41078  1.0000
  H   H427      1.0  0.46138  0.61829  0.44995  1.0000
  H   H428      1.0  0.27117  0.62005  0.42450  1.0000
  Fe  Fe36      1.0  0.48241  0.62516  0.28195  1.0000
  C   C248      1.0  0.27929  0.60346  0.36362  1.0000
  S   S71       1.0  0.46194  0.63782  0.30663  1.0000
  H   H429      1.0  0.27033  0.64179  0.34846  1.0000
  H   H430      1.0  0.46622  0.57481  0.36970  1.0000
  H   H431      1.0  0.46895  0.62514  0.34937  1.0000
  H   H432      1.0  0.30254  0.58095  0.35445  1.0000
  C   C249      1.0  0.41405  0.65922  0.45790  1.0000
  Fe  Fe37      1.0  0.33530  0.59439  0.40339  1.0000
  S   S72       1.0  0.32689  0.62671  0.40534  1.0000
  S   S73       1.0  0.31317  0.57496  0.42098  1.0000
  Fe  Fe38      1.0  0.37101  0.60257  0.37305  1.0000
  S   S74       1.0  0.36521  0.63526  0.37299  1.0000
  S   S75       1.0  0.39584  0.58810  0.35320  1.0000
  Fe  Fe39      1.0  0.35922  0.62806  0.40566  1.0000
  S   S76       1.0  0.36814  0.64610  0.42731  1.0000
  Fe  Fe40      1.0  0.33340  0.63093  0.37250  1.0000
  H   H433      1.0  0.42469  0.65808  0.29401  1.0000
  S   S77       1.0  0.36740  0.59553  0.40610  1.0000
  S   S78       1.0  0.33948  0.59853  0.37016  1.0000
  C   C250      1.0  0.37318  0.63038  0.44845  1.0000
  C   C251      1.0  0.36595  0.63601  0.46704  1.0000
  H   H434      1.0  0.49799  0.33153  0.45990  1.0000
  C   C252      1.0  0.49183  0.57951  0.40091  1.0000
  C   C253      1.0  0.38957  0.60029  0.46386  1.0000
  C   C254      1.0  0.38484  0.61245  0.44685  1.0000
  H   H435      1.0  0.33146  0.59082  0.45389  1.0000
  S   S79       1.0  0.31491  0.64934  0.35038  1.0000
  H   H436      1.0  0.39901  0.58668  0.46260  1.0000
  H   H437      1.0  0.39091  0.60830  0.43253  1.0000
  C   C255      1.0  0.46086  0.59056  0.37092  1.0000
  H   H438      1.0  0.41175  0.35924  0.45018  1.0000
  C   C256      1.0  0.45660  0.63506  0.37664  1.0000
  C   C257      1.0  0.44330  0.62401  0.31889  1.0000
  C   C258      1.0  0.44176  0.60501  0.31459  1.0000
  C   C259      1.0  0.42703  0.59418  0.32512  1.0000
  C   C260      1.0  0.41372  0.60233  0.33986  1.0000
  C   C261      1.0  0.41525  0.62140  0.34404  1.0000
  C   C262      1.0  0.42998  0.63221  0.33356  1.0000
  H   H439      1.0  0.45204  0.59854  0.30334  1.0000
  H   H440      1.0  0.42598  0.57938  0.32190  1.0000
  H   H441      1.0  0.40533  0.62767  0.35559  1.0000
  H   H442      1.0  0.43119  0.64687  0.33702  1.0000
  C   C263      1.0  0.46952  0.34328  0.44714  1.0000
  C   C264      1.0  0.28120  0.61936  0.39302  1.0000
  H   H443      1.0  0.28190  0.64162  0.41273  1.0000
  H   H444      1.0  0.24149  0.61042  0.41819  1.0000
  S   S80       1.0  0.31869  0.49811  0.48275  1.0000
  C   C265      1.0  0.30006  0.53039  0.46276  1.0000
  C   C266      1.0  0.43848  0.35668  0.46481  1.0000
  H   H445      1.0  0.43679  0.65082  0.43373  1.0000
  H   H446      1.0  0.24267  0.62130  0.36424  1.0000
  H   H447      1.0  0.45357  0.59570  0.35732  1.0000
  H   H448      1.0  0.44212  0.62975  0.37583  1.0000
  C   C267      1.0  0.31615  0.55433  0.43900  1.0000
  C   C268      1.0  0.33458  0.54517  0.44393  1.0000
  H   H449      1.0  0.48130  0.56885  0.39966  1.0000
  H   H450      1.0  0.34796  0.55061  0.43645  1.0000
  H   H451      1.0  0.28662  0.52449  0.46948  1.0000
  C   C269      1.0  0.47230  0.37642  0.47316  1.0000
  N   N17       1.0  0.47812  0.60205  0.37171  1.0000
  H   H452      1.0  0.31544  0.56866  0.47518  1.0000
  H   H453      1.0  0.28955  0.61406  0.35607  1.0000
  H   H454      1.0  0.34987  0.52088  0.46121  1.0000
  H   H455      1.0  0.42459  0.63116  0.44715  1.0000
  H   H456      1.0  0.45945  0.63522  0.39215  1.0000
  H   H457      1.0  0.42984  0.59230  0.38287  1.0000
  C   C270      1.0  0.46778  0.62806  0.45797  1.0000
  H   H458      1.0  0.39777  0.64216  0.30158  1.0000
  H   H459      1.0  0.44598  0.65351  0.24962  1.0000
  C   C271      1.0  0.45878  0.63219  0.47681  1.0000
  C   C272      1.0  0.31832  0.52099  0.46766  1.0000
  C   C273      1.0  0.33565  0.52844  0.45814  1.0000
  C   C274      1.0  0.49227  0.33890  0.44627  1.0000
  H   H460      1.0  0.34831  0.59090  0.47141  1.0000
  H   H461      1.0  0.29167  0.60723  0.39900  1.0000
  H   H462      1.0  0.28469  0.55371  0.44497  1.0000
  H   H463      1.0  0.32745  0.60936  0.46997  1.0000
  C   C275      1.0  0.48500  0.60044  0.39195  1.0000
  C   C276      1.0  0.25205  0.62741  0.37368  1.0000
  C   C277      1.0  0.23882  0.60040  0.40766  1.0000
  C   C278      1.0  0.46649  0.64532  0.48713  1.0000
  C   C279      1.0  0.44453  0.59074  0.38857  1.0000
  H   H464      1.0  0.44418  0.60263  0.39804  1.0000
  C   C280      1.0  0.43323  0.64635  0.25772  1.0000
  H   H465      1.0  0.25202  0.58543  0.38339  1.0000
  N   N18       1.0  0.26719  0.61154  0.38134  1.0000
  H   H466      1.0  0.47885  0.37810  0.45760  1.0000
  H   H467      1.0  0.22604  0.60672  0.39960  1.0000
  H   H468      1.0  0.26961  0.60119  0.35234  1.0000
  H   H469      1.0  0.43153  0.34389  0.43867  1.0000
  N   N19       1.0  0.45819  0.34478  0.46725  1.0000
  H   H470      1.0  0.30106  0.58361  0.38012  1.0000
  H   H471      1.0  0.40974  0.62492  0.28495  1.0000
  C   C281      1.0  0.29899  0.54690  0.44868  1.0000
  C   C282      1.0  0.25719  0.59493  0.39333  1.0000
  S   S81       1.0  0.49383  0.63305  0.42445  1.0000
  C   C283      1.0  0.48382  0.65351  0.47871  1.0000
  H   H472      1.0  0.41180  0.64736  0.42976  1.0000
  C   C284      1.0  0.49540  0.59411  0.35811  1.0000
  C   C285      1.0  0.49299  0.64915  0.45998  1.0000
  C   C286      1.0  0.47336  0.62344  0.36455  1.0000
  H   H473      1.0  0.44051  0.37155  0.45708  1.0000
  H   H474      1.0  0.25767  0.63870  0.40890  1.0000
  H   H475      1.0  0.29108  0.62908  0.38341  1.0000
  H   H476      1.0  0.38345  0.62956  0.28829  1.0000
  H   H477      1.0  0.24152  0.63314  0.38567  1.0000
  H   H478      1.0  0.26789  0.58522  0.40215  1.0000
  H   H479      1.0  0.23439  0.58679  0.41658  1.0000
  H   H480      1.0  0.44561  0.62556  0.48315  1.0000
  H   H481      1.0  0.35680  0.64979  0.46832  1.0000
  C   C287      1.0  0.39736  0.63658  0.28716  1.0000
  H   H482      1.0  0.26825  0.65350  0.37097  1.0000
  C   C288      1.0  0.42228  0.64679  0.44092  1.0000
  C   C289      1.0  0.46854  0.35504  0.48058  1.0000
  C   C290      1.0  0.33251  0.59353  0.46933  1.0000
  S   S82       1.0  0.47436  0.61071  0.25695  1.0000
  H   H483      1.0  0.44550  0.57641  0.39787  1.0000
  H   H484      1.0  0.28302  0.57121  0.37085  1.0000
  H   H485      1.0  0.43028  0.35921  0.47946  1.0000
  C   C291      1.0  0.29212  0.58372  0.36774  1.0000
  C   C292      1.0  0.48481  0.63667  0.44932  1.0000
  H   H486      1.0  0.46407  0.33185  0.43966  1.0000
  H   H487      1.0  0.45541  0.65061  0.37006  1.0000
  H   H488      1.0  0.39162  0.64775  0.25770  1.0000
  H   H489      1.0  0.49704  0.64557  0.32291  1.0000
  C   C293      1.0  0.31874  0.58056  0.48342  1.0000
  C   C294      1.0  0.26042  0.64554  0.36173  1.0000
  H   H490      1.0  0.30450  0.58998  0.48591  1.0000
  H   H491      1.0  0.35615  0.55877  0.47215  1.0000
  H   H492      1.0  0.47363  0.60673  0.40290  1.0000
  C   C295      1.0  0.49217  0.59491  0.33617  1.0000
  S   S83       1.0  0.49736  0.64878  0.26281  1.0000
  H   H493      1.0  0.45851  0.38653  0.47505  1.0000
  H   H494      1.0  0.48675  0.63136  0.36372  1.0000
  H   H495      1.0  0.46677  0.35734  0.43756  1.0000
  H   H496      1.0  0.48279  0.38127  0.48225  1.0000
  H   H497      1.0  0.49314  0.57979  0.41684  1.0000
  H   H498      1.0  0.43909  0.63773  0.27094  1.0000
  H   H499      1.0  0.48291  0.34703  0.48382  1.0000
  H   H500      1.0  0.40035  0.65307  0.46485  1.0000
  C   C296      1.0  0.42435  0.34798  0.45313  1.0000
  H   H501      1.0  0.36659  0.53923  0.48800  1.0000
  C   C297      1.0  0.38285  0.60624  0.48243  1.0000
  H   H502      1.0  0.42775  0.61644  0.25346  1.0000
  H   H503      1.0  0.47916  0.58764  0.33398  1.0000
  C   C298      1.0  0.37075  0.62392  0.48402  1.0000
  H   H504      1.0  0.49759  0.32908  0.43461  1.0000
  C   C299      1.0  0.35855  0.55418  0.48774  1.0000
  H   H505      1.0  0.49104  0.61011  0.32883  1.0000
  H   H506      1.0  0.41786  0.33522  0.46180  1.0000
  H   H507      1.0  0.42448  0.65598  0.46936  1.0000
  C   C300      1.0  0.39735  0.65335  0.27006  1.0000
  H   H508      1.0  0.24803  0.65598  0.35653  1.0000
  H   H509      1.0  0.36837  0.56362  0.49290  1.0000
  H   H510      1.0  0.49762  0.60933  0.39163  1.0000
  H   H511      1.0  0.33130  0.54220  0.49502  1.0000
  H   H512      1.0  0.45978  0.35538  0.49526  1.0000
  Fe  Fe41      1.0  0.32841  0.49079  0.51362  1.0000
  S   S84       1.0  0.35457  0.50357  0.52151  1.0000
  S   S85       1.0  0.29468  0.34370  0.71436  1.0000
  Fe  Fe42      1.0  0.32046  0.46820  0.55531  1.0000
  S   S86       1.0  0.34571  0.48050  0.56551  1.0000
  S   S87       1.0  0.30585  0.44377  0.57563  1.0000
  Fe  Fe43      1.0  0.33497  0.50898  0.54915  1.0000
  S   S88       1.0  0.33520  0.53607  0.56410  1.0000
  Fe  Fe44      1.0  0.36283  0.47365  0.53699  1.0000
  S   S89       1.0  0.39435  0.46103  0.54071  1.0000
  S   S90       1.0  0.30811  0.49762  0.54091  1.0000
  S   S91       1.0  0.33819  0.46002  0.52697  1.0000
  H   H513      1.0  0.32167  0.58785  0.57045  1.0000
  C   C301      1.0  0.30955  0.52416  0.72709  1.0000
  C   C302      1.0  0.33610  0.63326  0.61709  1.0000
  C   C303      1.0  0.46634  0.42332  0.61037  1.0000
  S   S92       1.0  0.42533  0.37583  0.51651  1.0000
  H   H514      1.0  0.31019  0.55942  0.65826  1.0000
  C   C304      1.0  0.25463  0.38221  0.63113  1.0000
  S   S93       1.0  0.23692  0.41722  0.70587  1.0000
  H   H515      1.0  0.37529  0.42425  0.56900  1.0000
  S   S94       1.0  0.26513  0.38348  0.68289  1.0000
  Fe  Fe45      1.0  0.26781  0.41383  0.69024  1.0000
  S   S95       1.0  0.27697  0.43955  0.66807  1.0000
  Fe  Fe46      1.0  0.23552  0.38592  0.70075  1.0000
  H   H516      1.0  0.34555  0.58660  0.55723  1.0000
  S   S96       1.0  0.28173  0.40372  0.71866  1.0000
  H   H517      1.0  0.31501  0.52035  0.68498  1.0000
  H   H518      1.0  0.35526  0.39977  0.61924  1.0000
  Fe  Fe47      1.0  0.22459  0.59550  0.70867  1.0000
  S   S97       1.0  0.23172  0.60995  0.67764  1.0000
  S   S98       1.0  0.22774  0.56250  0.71439  1.0000
  Fe  Fe48      1.0  0.38009  0.51681  0.69036  1.0000
  S   S99       1.0  0.37496  0.52477  0.65882  1.0000
  S   S100      1.0  0.36521  0.53926  0.71045  1.0000
  Fe  Fe49      1.0  0.40403  0.47747  0.68234  1.0000
  S   S101      1.0  0.39993  0.48217  0.65018  1.0000
  S   S102      1.0  0.41733  0.44729  0.69464  1.0000
  Fe  Fe50      1.0  0.40651  0.51301  0.65157  1.0000
  S   S103      1.0  0.42521  0.52517  0.62465  1.0000
  Fe  Fe51      1.0  0.36893  0.49359  0.65979  1.0000
  S   S104      1.0  0.34331  0.48636  0.64588  1.0000
  S   S105      1.0  0.41287  0.50781  0.68333  1.0000
  S   S106      1.0  0.37181  0.48615  0.69194  1.0000
  C   C305      1.0  0.41859  0.55008  0.61696  1.0000
  C   C306      1.0  0.42463  0.55782  0.59766  1.0000
  C   C307      1.0  0.41856  0.57741  0.59094  1.0000
  C   C308      1.0  0.40695  0.58950  0.60372  1.0000
  C   C309      1.0  0.40187  0.58203  0.62334  1.0000
  C   C310      1.0  0.40728  0.56227  0.62983  1.0000
  H   H519      1.0  0.43399  0.54865  0.58792  1.0000
  H   H520      1.0  0.42311  0.58327  0.57602  1.0000
  H   H521      1.0  0.40305  0.55658  0.64490  1.0000
  H   H522      1.0  0.32095  0.52315  0.65939  1.0000
  H   H523      1.0  0.31576  0.57640  0.61158  1.0000
  C   C311      1.0  0.27653  0.52653  0.68796  1.0000
  C   C312      1.0  0.23599  0.42125  0.64602  1.0000
  H   H524      1.0  0.40983  0.34362  0.65188  1.0000
  C   C313      1.0  0.46862  0.41175  0.69940  1.0000
  H   H525      1.0  0.42669  0.37337  0.65814  1.0000
  C   C314      1.0  0.33932  0.54034  0.71701  1.0000
  C   C315      1.0  0.32826  0.55843  0.72010  1.0000
  C   C316      1.0  0.30778  0.55944  0.72616  1.0000
  Fe  Fe52      1.0  0.47816  0.36208  0.56190  1.0000
  H   H526      1.0  0.33554  0.57172  0.71779  1.0000
  C   C317      1.0  0.26049  0.65055  0.69983  1.0000
  C   C318      1.0  0.20580  0.35073  0.69445  1.0000
  N   N20       1.0  0.28935  0.52426  0.66878  1.0000
  H   H527      1.0  0.36426  0.59704  0.61836  1.0000
  H   H528      1.0  0.39960  0.39244  0.60515  1.0000
  H   H529      1.0  0.34221  0.57855  0.52583  1.0000
  H   H530      1.0  0.26502  0.39069  0.63677  1.0000
  H   H531      1.0  0.38816  0.46353  0.60664  1.0000
  C   C319      1.0  0.33523  0.52544  0.58848  1.0000
  C   C320      1.0  0.32207  0.51158  0.59564  1.0000
  C   C321      1.0  0.32453  0.49982  0.61342  1.0000
  C   C322      1.0  0.34027  0.50163  0.62393  1.0000
  C   C323      1.0  0.35338  0.51554  0.61678  1.0000
  C   C324      1.0  0.35058  0.52778  0.59934  1.0000
  H   H532      1.0  0.31046  0.50933  0.58704  1.0000
  H   H533      1.0  0.31461  0.48889  0.61877  1.0000
  H   H534      1.0  0.36624  0.51630  0.62405  1.0000
  H   H535      1.0  0.36113  0.53804  0.59368  1.0000
  C   C325      1.0  0.29847  0.44284  0.60143  1.0000
  C   C326      1.0  0.29758  0.42448  0.61277  1.0000
  C   C327      1.0  0.29144  0.42316  0.63321  1.0000
  C   C328      1.0  0.28562  0.44022  0.64249  1.0000
  C   C329      1.0  0.28645  0.45854  0.63113  1.0000
  C   C330      1.0  0.29283  0.45985  0.61075  1.0000
  H   H536      1.0  0.30182  0.41120  0.60569  1.0000
  H   H537      1.0  0.29124  0.40898  0.64179  1.0000
  H   H538      1.0  0.28196  0.47183  0.63807  1.0000
  H   H539      1.0  0.29300  0.47402  0.60212  1.0000
  C   C331      1.0  0.40223  0.43702  0.53453  1.0000
  C   C332      1.0  0.41968  0.42716  0.54125  1.0000
  C   C333      1.0  0.42661  0.40822  0.53616  1.0000
  C   C334      1.0  0.41630  0.39913  0.52403  1.0000
  C   C335      1.0  0.39877  0.40893  0.51746  1.0000
  C   C336      1.0  0.39165  0.42774  0.52284  1.0000
  H   H540      1.0  0.42795  0.43426  0.55026  1.0000
  H   H541      1.0  0.44017  0.40082  0.54124  1.0000
  H   H542      1.0  0.35693  0.35431  0.73907  1.0000
  H   H543      1.0  0.37823  0.43522  0.51754  1.0000
  H   H544      1.0  0.43739  0.40890  0.70264  1.0000
  Fe  Fe53      1.0  0.39557  0.61465  0.52291  1.0000
  S   S107      1.0  0.39040  0.59231  0.50372  1.0000
  H   H545      1.0  0.30264  0.55654  0.68453  1.0000
  H   H546      1.0  0.34000  0.42556  0.60097  1.0000
  C   C337      1.0  0.43023  0.33006  0.70642  1.0000
  H   H547      1.0  0.32399  0.62587  0.59178  1.0000
  N   N21       1.0  0.22476  0.40880  0.63566  1.0000
  N   N22       1.0  0.40846  0.53133  0.54909  1.0000
  C   C338      1.0  0.39866  0.52356  0.56890  1.0000
  C   C339      1.0  0.40323  0.55330  0.54676  1.0000
  C   C340      1.0  0.43054  0.52639  0.54905  1.0000
  C   C341      1.0  0.40080  0.52150  0.53355  1.0000
  H   H548      1.0  0.45521  0.36929  0.60390  1.0000
  C   C342      1.0  0.38106  0.56042  0.54719  1.0000
  H   H549      1.0  0.25501  0.50522  0.68666  1.0000
  H   H550      1.0  0.42214  0.52076  0.50705  1.0000
  H   H551      1.0  0.43508  0.52706  0.56397  1.0000
  H   H552      1.0  0.38238  0.52466  0.56870  1.0000
  H   H553      1.0  0.41039  0.56043  0.53285  1.0000
  H   H554      1.0  0.40899  0.55996  0.55857  1.0000
  H   H555      1.0  0.40134  0.53245  0.58066  1.0000
  H   H556      1.0  0.29942  0.57343  0.72851  1.0000
  H   H557      1.0  0.48870  0.45495  0.68837  1.0000
  H   H558      1.0  0.38441  0.52239  0.53544  1.0000
  C   C343      1.0  0.12299  0.55261  0.74256  1.0000
  C   C344      1.0  0.35262  0.56961  0.62887  1.0000
  H   H559      1.0  0.24323  0.43878  0.60096  1.0000
  H   H560      1.0  0.37427  0.55505  0.53529  1.0000
  H   H561      1.0  0.37283  0.55642  0.56170  1.0000
  H   H562      1.0  0.37937  0.57670  0.54472  1.0000
  H   H563      1.0  0.41616  0.38038  0.69234  1.0000
  S   S108      1.0  0.39956  0.64501  0.50876  1.0000
  H   H564      1.0  0.38682  0.35698  0.65931  1.0000
  H   H565      1.0  0.00412  0.45819  0.72423  1.0000
  C   C345      1.0  0.46396  0.35496  0.63162  1.0000
  H   H566      1.0  0.44328  0.55439  0.54029  1.0000
  H   H567      1.0  0.33917  0.44210  0.65174  1.0000
  H   H568      1.0  0.38151  0.37548  0.61047  1.0000
  H   H569      1.0  0.25896  0.36652  0.63609  1.0000
  S   S109      1.0  0.37459  0.62471  0.54803  1.0000
  H   H570      1.0  0.32972  0.43855  0.62967  1.0000
  H   H571      1.0  0.29869  0.47291  0.67253  1.0000
  C   C346      1.0  0.48672  0.36754  0.60453  1.0000
  C   C347      1.0  0.36202  0.43812  0.62730  1.0000
  Fe  Fe54      1.0  0.27695  0.37348  0.71203  1.0000
  H   H572      1.0  0.34265  0.54623  0.51589  1.0000
  H   H573      1.0  0.49118  0.39802  0.63208  1.0000
  C   C348      1.0  0.33896  0.55305  0.50106  1.0000
  N   N23       1.0  0.36899  0.42663  0.60992  1.0000
  C   C349      1.0  0.45619  0.40189  0.65134  1.0000
  H   H574      1.0  0.33422  0.64892  0.61088  1.0000
  H   H575      1.0  0.28798  0.52713  0.62381  1.0000
  C   C350      1.0  0.34945  0.59189  0.62257  1.0000
  H   H576      1.0  0.35947  0.56716  0.64294  1.0000
  Fe  Fe55      1.0  0.24764  0.56666  0.73679  1.0000
  C   C351      1.0  0.38925  0.43227  0.60192  1.0000
  H   H577      1.0  0.39660  0.52465  0.50250  1.0000
  C   C352      1.0  0.38377  0.39085  0.60455  1.0000
  C   C353      1.0  0.39035  0.45411  0.59440  1.0000
  S   S110      1.0  0.42267  0.61100  0.53867  1.0000
  H   H578      1.0  0.39960  0.42840  0.61345  1.0000
  H   H579      1.0  0.31213  0.48879  0.68296  1.0000
  H   H580      1.0  0.37966  0.45943  0.58362  1.0000
  H   H581      1.0  0.34166  0.41791  0.64442  1.0000
  H   H582      1.0  0.39361  0.59151  0.63355  1.0000
  H   H583      1.0  0.28345  0.51780  0.70049  1.0000
  C   C354      1.0  0.22116  0.33723  0.70091  1.0000
  C   C355      1.0  0.44854  0.41900  0.69934  1.0000
  H   H584      1.0  0.19085  0.39672  0.62291  1.0000
  H   H585      1.0  0.47279  0.39619  0.70271  1.0000
  H   H586      1.0  0.35189  0.43493  0.56363  1.0000
  H   H587      1.0  0.28658  0.48599  0.69223  1.0000
  H   H588      1.0  0.44683  0.43240  0.64513  1.0000
  C   C356      1.0  0.30806  0.56724  0.51731  1.0000
  C   C357      1.0  0.22483  0.41531  0.61385  1.0000
  H   H589      1.0  0.16598  0.36512  0.72394  1.0000
  C   C358      1.0  0.48014  0.44818  0.62748  1.0000
  H   H590      1.0  0.31263  0.56203  0.53227  1.0000
  C   C359      1.0  0.39322  0.35883  0.69776  1.0000
  H   H591      1.0  0.41012  0.37774  0.63980  1.0000
  C   C360      1.0  0.35409  0.43168  0.59516  1.0000
  H   H592      1.0  0.34379  0.59895  0.63606  1.0000
  H   H593      1.0  0.29252  0.58982  0.63490  1.0000
  H   H594      1.0  0.39596  0.42390  0.58956  1.0000
  H   H595      1.0  0.28203  0.55132  0.52209  1.0000
  H   H596      1.0  0.27741  0.55347  0.65697  1.0000
  H   H597      1.0  0.35019  0.62350  0.59027  1.0000
  H   H598      1.0  0.34638  0.57190  0.59154  1.0000
  H   H599      1.0  0.21442  0.44541  0.65564  1.0000
  H   H600      1.0  0.22523  0.44978  0.63032  1.0000
  H   H601      1.0  0.41029  0.37085  0.71778  1.0000
  H   H602      1.0  0.42065  0.49912  0.57852  1.0000
  H   H603      1.0  0.25171  0.42063  0.64024  1.0000
  H   H604      1.0  0.12183  0.33994  0.72354  1.0000
  C   C361      1.0  0.41095  0.37397  0.65587  1.0000
  H   H605      1.0  0.25253  0.63739  0.70046  1.0000
  C   C362      1.0  0.22103  0.63360  0.66911  1.0000
  H   H606      1.0  0.19494  0.63350  0.68990  1.0000
  C   C363      1.0  0.14340  0.55463  0.74079  1.0000
  C   C364      1.0  0.24418  0.42248  0.60283  1.0000
  Fe  Fe56      1.0  0.44957  0.35946  0.53335  1.0000
  C   C365      1.0  0.34828  0.34393  0.73439  1.0000
  H   H607      1.0  0.29749  0.58060  0.51910  1.0000
  H   H608      1.0  0.33867  0.56267  0.63141  1.0000
  C   C366      1.0  0.34627  0.58809  0.58843  1.0000
  H   H609      1.0  0.22448  0.37785  0.63257  1.0000
  H   H610      1.0  0.43503  0.51099  0.54568  1.0000
  H   H611      1.0  0.17661  0.35419  0.68500  1.0000
  H   H612      1.0  0.29130  0.55519  0.49667  1.0000
  Fe  Fe57      1.0  0.20235  0.56601  0.73815  1.0000
  H   H613      1.0  0.25785  0.41654  0.60938  1.0000
  C   C367      1.0  0.28053  0.53821  0.65278  1.0000
  H   H614      1.0  0.44356  0.40156  0.66305  1.0000
  S   S111      1.0  0.44636  0.35652  0.56636  1.0000
  C   C368      1.0  0.44388  0.53969  0.53502  1.0000
  C   C369      1.0  0.47976  0.34885  0.64275  1.0000
  H   H615      1.0  0.25586  0.65423  0.73055  1.0000
  H   H616      1.0  0.39355  0.38840  0.70580  1.0000
  C   C370      1.0  0.29732  0.48715  0.67886  1.0000
  H   H617      1.0  0.40528  0.45596  0.58664  1.0000
  C   C371      1.0  0.33651  0.58588  0.51200  1.0000
  H   H618      1.0  0.30073  0.50193  0.64968  1.0000
  C   C372      1.0  0.40481  0.50189  0.57614  1.0000
  H   H619      1.0  0.26570  0.53434  0.65066  1.0000
  N   N24       1.0  0.32577  0.57198  0.50296  1.0000
  H   H620      1.0  0.01726  0.49339  0.71899  1.0000
  H   H621      1.0  0.24772  0.52273  0.70386  1.0000
  H   H622      1.0  0.13192  0.36011  0.73116  1.0000
  H   H623      1.0  0.30843  0.53643  0.63242  1.0000
  H   H624      1.0  0.22091  0.40332  0.60603  1.0000
  C   C373      1.0  0.20368  0.41062  0.64520  1.0000
  C   C374      1.0  0.25532  0.52081  0.68893  1.0000
  C   C375      1.0  0.45741  0.45208  0.69080  1.0000
  H   H625      1.0  0.44022  0.54151  0.51964  1.0000
  H   H626      1.0  0.37914  0.36583  0.69228  1.0000
  H   H627      1.0  0.37319  0.43596  0.63811  1.0000
  S   S112      1.0  0.48993  0.33038  0.56264  1.0000
  Fe  Fe58      1.0  0.42569  0.64221  0.52570  1.0000
  S   S113      1.0  0.24699  0.37395  0.72924  1.0000
  C   C376      1.0  0.32969  0.35044  0.72776  1.0000
  C   C377      1.0  0.34203  0.43360  0.63875  1.0000
  C   C378      1.0  0.32443  0.60536  0.51683  1.0000
  H   H628      1.0  0.19639  0.42577  0.64193  1.0000
  H   H629      1.0  0.39071  0.40199  0.50811  1.0000
  H   H630      1.0  0.33803  0.50923  0.71794  1.0000
  H   H631      1.0  0.27593  0.50051  0.65923  1.0000
  C   C379      1.0  0.23302  0.38756  0.63926  1.0000
  H   H632      1.0  0.43388  0.35403  0.68404  1.0000
  H   H633      1.0  0.40209  0.38600  0.66334  1.0000
  S   S114      1.0  0.20766  0.37625  0.69199  1.0000
  H   H634      1.0  0.45502  0.46420  0.64392  1.0000
  C   C380      1.0  0.47750  0.44486  0.69134  1.0000
  H   H635      1.0  0.22418  0.64471  0.73684  1.0000
  H   H636      1.0  0.25645  0.38362  0.61479  1.0000
  H   H637      1.0  0.45946  0.53306  0.53490  1.0000
  C   C381      1.0  0.42586  0.34082  0.68622  1.0000
  C   C382      1.0  0.18854  0.34384  0.69005  1.0000
  C   C383      1.0  0.30406  0.59980  0.62956  1.0000
  C   C384      1.0  0.44283  0.43915  0.69489  1.0000
  H   H638      1.0  0.23917  0.45144  0.65031  1.0000
  H   H639      1.0  0.11318  0.56355  0.73487  1.0000
  H   H640      1.0  0.46734  0.45051  0.58985  1.0000
  H   H641      1.0  0.46892  0.40744  0.60830  1.0000
  H   H642      1.0  0.46859  0.39217  0.65749  1.0000
  Fe  Fe59      1.0  0.25043  0.40508  0.73366  1.0000
  C   C385      1.0  0.33623  0.59361  0.56927  1.0000
  H   H643      1.0  0.24491  0.63806  0.64618  1.0000
  C   C386      1.0  0.31252  0.55030  0.67236  1.0000
  H   H644      1.0  0.21318  0.42779  0.61137  1.0000
  C   C387      1.0  0.23101  0.64438  0.65314  1.0000
  H   H645      1.0  0.23618  0.41544  0.66184  1.0000
  H   H646      1.0  0.29661  0.61486  0.62630  1.0000
  H   H647      1.0  0.19308  0.38156  0.64627  1.0000
  H   H648      1.0  0.23456  0.34236  0.70427  1.0000
  H   H649      1.0  0.27502  0.54200  0.69150  1.0000
  C   C388      1.0  0.30992  0.52857  0.67128  1.0000
  H   H650      1.0  0.32377  0.63098  0.62873  1.0000
  H   H651      1.0  0.03429  0.47164  0.72239  1.0000
  H   H652      1.0  0.38062  0.39266  0.58900  1.0000
  H   H653      1.0  0.32794  0.55135  0.67528  1.0000
  N   N25       1.0  0.47553  0.42723  0.62824  1.0000
  H   H654      1.0  0.45323  0.46763  0.68742  1.0000
  C   C389      1.0  0.46122  0.42325  0.64635  1.0000
  H   H655      1.0  0.36018  0.45418  0.62255  1.0000
  H   H656      1.0  0.35451  0.40985  0.57421  1.0000
  S   S115      1.0  0.49114  0.37978  0.58098  1.0000
  H   H657      1.0  0.42783  0.48301  0.72220  1.0000
  H   H658      1.0  0.31366  0.60311  0.53007  1.0000
  C   C390      1.0  0.37019  0.40502  0.61729  1.0000
  Fe  Fe60      1.0  0.40212  0.62401  0.56294  1.0000
  H   H659      1.0  0.36208  0.59095  0.58501  1.0000
  C   C391      1.0  0.31610  0.59257  0.61091  1.0000
  N   N26       1.0  0.40430  0.34553  0.68328  1.0000
  H   H660      1.0  0.23171  0.38264  0.65536  1.0000
  H   H661      1.0  0.33461  0.61555  0.52031  1.0000
  S   S116      1.0  0.47563  0.34119  0.66797  1.0000
  H   H662      1.0  0.17163  0.38175  0.73995  1.0000
  C   C392      1.0  0.35951  0.42451  0.57458  1.0000
  S   S117      1.0  0.24592  0.59956  0.72992  1.0000
  C   C393      1.0  0.29039  0.50367  0.66322  1.0000
  C   C394      1.0  0.31845  0.33695  0.72188  1.0000
  H   H663      1.0  0.40759  0.54441  0.50870  1.0000
  S   S118      1.0  0.48058  0.36793  0.52903  1.0000
  C   C395      1.0  0.29224  0.53857  0.63210  1.0000
  H   H664      1.0  0.31272  0.59938  0.64217  1.0000
  H   H665      1.0  0.44907  0.35297  0.63796  1.0000
  C   C396      1.0  0.40253  0.35422  0.66227  1.0000
  H   H666      1.0  0.33470  0.60962  0.56464  1.0000
  H   H667      1.0  0.30367  0.53672  0.51340  1.0000
  C   C397      1.0  0.32977  0.52325  0.72024  1.0000
  N   N27       1.0  0.33681  0.59828  0.60599  1.0000
  C   C398      1.0  0.48322  0.42465  0.69552  1.0000
  H   H668      1.0  0.40125  0.49172  0.56610  1.0000
  S   S119      1.0  0.19732  0.59869  0.73027  1.0000
  C   C399      1.0  0.33666  0.62017  0.60028  1.0000
  C   C400      1.0  0.29578  0.55173  0.51177  1.0000
  H   H669      1.0  0.24606  0.41812  0.58762  1.0000
  H   H670      1.0  0.40176  0.51167  0.72731  1.0000
  C   C401      1.0  0.20292  0.64181  0.67782  1.0000
  H   H671      1.0  0.28907  0.55319  0.62375  1.0000
  C   C402      1.0  0.22805  0.44319  0.64535  1.0000
  S   S120      1.0  0.39804  0.61376  0.59554  1.0000
  H   H672      1.0  0.36318  0.56204  0.61799  1.0000
  H   H673      1.0  0.30701  0.59843  0.59872  1.0000
  H   H674      1.0  0.34945  0.44770  0.59321  1.0000
  H   H675      1.0  0.37557  0.40239  0.63216  1.0000
  C   C403      1.0  0.49414  0.41363  0.63101  1.0000
  C   C404      1.0  0.47306  0.43475  0.59044  1.0000
  C   C405      1.0  0.02149  0.48058  0.72956  1.0000
  H   H676      1.0  0.40532  0.50540  0.53534  1.0000
  H   H677      1.0  0.45186  0.39588  0.63845  1.0000
  H   H678      1.0  0.36968  0.50159  0.73278  1.0000
  H   H679      1.0  0.14919  0.56705  0.73177  1.0000
  C   C406      1.0  0.40746  0.52833  0.51187  1.0000
  H   H680      1.0  0.41680  0.46920  0.74349  1.0000
  H   H681      1.0  0.35033  0.63108  0.62368  1.0000
  H   H682      1.0  0.20322  0.40816  0.66157  1.0000
  H   H683      1.0  0.36384  0.33873  0.69009  1.0000
  C   C407      1.0  0.19648  0.65866  0.72743  1.0000
  C   C408      1.0  0.40430  0.37531  0.70340  1.0000
  H   H684      1.0  0.17442  0.40170  0.64443  1.0000
  H   H685      1.0  0.46683  0.47860  0.62361  1.0000
  C   C409      1.0  0.40596  0.50094  0.74000  1.0000
  C   C410      1.0  0.46746  0.36419  0.61239  1.0000
  C   C411      1.0  0.29839  0.54224  0.72991  1.0000
  H   H686      1.0  0.24643  0.53052  0.67849  1.0000
  H   H687      1.0  0.39631  0.49824  0.59067  1.0000
  H   H688      1.0  0.26006  0.65889  0.68503  1.0000
  S   S121      1.0  0.45437  0.65284  0.50985  1.0000
  H   H689      1.0  0.37590  0.47744  0.74379  1.0000
  C   C412      1.0  0.18995  0.39675  0.63911  1.0000
  C   C413      1.0  0.41375  0.48129  0.73177  1.0000
  H   H690      1.0  0.22136  0.64345  0.71191  1.0000
  H   H691      1.0  0.18855  0.36065  0.73568  1.0000
  H   H692      1.0  0.15822  0.33370  0.72279  1.0000
  H   H693      1.0  0.43347  0.33147  0.67488  1.0000
  Fe  Fe61      1.0  0.38086  0.65511  0.53560  1.0000
  H   H694      1.0  0.44997  0.42659  0.61244  1.0000
  H   H695      1.0  0.27621  0.64516  0.70134  1.0000
  H   H696      1.0  0.37175  0.32996  0.66616  1.0000
  C   C414      1.0  0.46203  0.46380  0.62850  1.0000
  H   H697      1.0  0.46704  0.42742  0.65947  1.0000
  H   H698      1.0  0.48925  0.43347  0.58684  1.0000
  Fe  Fe62      1.0  0.49011  0.33562  0.52964  1.0000
  H   H699      1.0  0.48990  0.45254  0.61400  1.0000
  H   H700      1.0  0.46693  0.42865  0.57849  1.0000
  H   H701      1.0  0.30250  0.51075  0.73018  1.0000
  H   H702      1.0  0.45079  0.46128  0.61902  1.0000
  H   H703      1.0  0.25287  0.50731  0.73591  1.0000
  H   H704      1.0  0.34137  0.65581  0.56672  1.0000
  S   S122      1.0  0.27307  0.54219  0.73897  1.0000
  H   H705      1.0  0.32405  0.36578  0.72725  1.0000
  H   H706      1.0  0.41881  0.50663  0.74476  1.0000
  S   S123      1.0  0.40750  0.65521  0.55173  1.0000
  C   C415      1.0  0.12941  0.34452  0.73538  1.0000
  H   H707      1.0  0.31667  0.61273  0.50428  1.0000
  H   H708      1.0  0.42057  0.33603  0.71888  1.0000
  H   H709      1.0  0.44579  0.33125  0.70866  1.0000
  H   H710      1.0  0.40334  0.47693  0.72236  1.0000
  H   H711      1.0  0.23058  0.49585  0.73797  1.0000
  H   H712      1.0  0.30893  0.65816  0.58747  1.0000
  H   H713      1.0  0.36523  0.62842  0.49838  1.0000
  C   C416      1.0  0.17259  0.36598  0.73771  1.0000
  C   C417      1.0  0.00445  0.46769  0.73607  1.0000
  H   H714      1.0  0.38883  0.34996  0.71193  1.0000
  H   H715      1.0  0.48867  0.44981  0.63995  1.0000
  H   H716      1.0  0.18967  0.64480  0.73219  1.0000
  H   H717      1.0  0.34984  0.58986  0.50250  1.0000
  C   C418      1.0  0.21905  0.65368  0.72349  1.0000
  C   C419      1.0  0.14898  0.33117  0.73709  1.0000
  H   H718      1.0  0.02670  0.48581  0.74252  1.0000
  C   C420      1.0  0.19502  0.66078  0.67069  1.0000
  H   H719      1.0  0.18765  0.32759  0.73580  1.0000
  S   S124      1.0  0.10045  0.62055  0.91362  1.0000
  Fe  Fe63      1.0  0.19007  0.50103  0.85356  1.0000
  S   S125      1.0  0.22138  0.50360  0.85854  1.0000
  S   S126      1.0  0.17027  0.51859  0.83283  1.0000
  Fe  Fe64      1.0  0.18638  0.46416  0.88116  1.0000
  S   S127      1.0  0.21746  0.46305  0.88906  1.0000
  S   S128      1.0  0.16149  0.44536  0.89185  1.0000
  Fe  Fe65      1.0  0.21097  0.49595  0.89083  1.0000
  S   S129      1.0  0.21452  0.50952  0.91907  1.0000
  Fe  Fe66      1.0  0.22566  0.47077  0.85633  1.0000
  S   S130      1.0  0.25100  0.45633  0.83633  1.0000
  S   S131      1.0  0.17936  0.49602  0.88553  1.0000
  S   S132      1.0  0.19525  0.46931  0.84879  1.0000
  H   H720      1.0  0.38253  0.48902  0.78667  1.0000
  C   C421      1.0  0.16819  0.56853  0.97164  1.0000
  H   H721      1.0  0.28104  0.36067  0.75260  1.0000
  C   C422      1.0  0.12835  0.62275  0.98777  1.0000
  H   H722      1.0  0.14864  0.55477  0.81402  1.0000
  S   S133      1.0  0.10046  0.60741  0.97072  1.0000
  Fe  Fe67      1.0  0.04317  0.48459  0.79434  1.0000
  S   S134      1.0  0.04667  0.48542  0.82629  1.0000
  S   S135      1.0  0.02827  0.46049  0.78323  1.0000
  Fe  Fe68      1.0  0.07347  0.51521  0.78093  1.0000
  S   S136      1.0  0.07894  0.51768  0.81193  1.0000
  H   H723      1.0  0.04351  0.34282  0.75124  1.0000
  Fe  Fe69      1.0  0.07884  0.48508  0.81614  1.0000
  S   S137      1.0  0.10107  0.46627  0.83312  1.0000
  Fe  Fe70      1.0  0.04629  0.51820  0.81921  1.0000
  S   S138      1.0  0.03077  0.53786  0.84176  1.0000
  S   S139      1.0  0.07598  0.48225  0.78467  1.0000
  S   S140      1.0  0.04014  0.51775  0.78767  1.0000
  H   H724      1.0  0.04535  0.37306  0.94006  1.0000
  H   H725      1.0  0.02348  0.37740  0.89047  1.0000
  H   H726      1.0  0.30301  0.35180  0.76344  1.0000
  H   H727      1.0  0.23797  0.60020  0.87338  1.0000
  H   H728      1.0  0.42390  0.47226  0.77657  1.0000
  S   S141      1.0  0.20640  0.62338  0.77263  1.0000
  H   H729      1.0  0.24587  0.61388  0.78622  1.0000
  H   H730      1.0  0.17869  0.58277  0.82474  1.0000
  H   H731      1.0  0.01988  0.38819  0.79539  1.0000
  C   C423      1.0  0.21907  0.63349  0.78920  1.0000
  H   H732      1.0  0.27543  0.39192  0.76556  1.0000
  C   C424      1.0  0.23298  0.51331  0.76214  1.0000
  H   H733      1.0  0.11726  0.56259  0.78517  1.0000
  H   H734      1.0  0.16584  0.59444  0.91480  1.0000
  N   N28       1.0  0.20883  0.63401  0.88250  1.0000
  H   H735      1.0  0.24045  0.62030  0.85364  1.0000
  C   C425      1.0  0.03885  0.36060  0.93642  1.0000
  H   H736      1.0  0.31588  0.37918  0.78152  1.0000
  N   N29       1.0  0.16015  0.33348  0.75418  1.0000
  Fe  Fe71      1.0  0.04430  0.62755  0.93076  1.0000
  S   S142      1.0  0.18200  0.54221  0.74955  1.0000
  C   C426      1.0  0.11643  0.44709  0.76855  1.0000
  Fe  Fe72      1.0  0.07640  0.60526  0.90455  1.0000
  H   H737      1.0  0.10940  0.37254  0.90667  1.0000
  C   C427      1.0  0.06960  0.57442  0.86963  1.0000
  C   C428      1.0  0.07556  0.56830  0.85092  1.0000
  C   C429      1.0  0.06339  0.55781  0.84196  1.0000
  C   C430      1.0  0.04526  0.55301  0.85177  1.0000
  C   C431      1.0  0.03886  0.55992  0.87013  1.0000
  C   C432      1.0  0.05096  0.57068  0.87903  1.0000
  H   H738      1.0  0.06810  0.55343  0.82746  1.0000
  H   H739      1.0  0.02472  0.55654  0.87771  1.0000
  H   H740      1.0  0.04620  0.57534  0.89348  1.0000
  C   C433      1.0  0.12836  0.36598  0.93874  1.0000
  H   H741      1.0  0.04453  0.32784  0.90247  1.0000
  H   H742      1.0  0.15195  0.55311  0.78869  1.0000
  C   C434      1.0  0.11565  0.62555  0.97299  1.0000
  C   C435      1.0  0.11607  0.64227  0.95928  1.0000
  H   H743      1.0  0.37661  0.53002  0.74865  1.0000
  H   H744      1.0  0.22775  0.57922  0.90558  1.0000
  C   C436      1.0  0.04486  0.32929  0.76174  1.0000
  N   N30       1.0  0.01984  0.41485  0.85124  1.0000
  C   C437      1.0  0.21726  0.53340  0.92526  1.0000
  C   C438      1.0  0.22123  0.54909  0.91099  1.0000
  C   C439      1.0  0.22382  0.56754  0.91674  1.0000
  C   C440      1.0  0.22187  0.57081  0.93677  1.0000
  C   C441      1.0  0.21757  0.55522  0.95103  1.0000
  C   C442      1.0  0.21552  0.53662  0.94530  1.0000
  H   H745      1.0  0.22291  0.54683  0.89555  1.0000
  C   C443      1.0  0.11224  0.40678  0.80415  1.0000
  H   H746      1.0  0.21260  0.52459  0.95650  1.0000
  C   C444      1.0  0.15180  0.50328  0.83182  1.0000
  C   C445      1.0  0.14876  0.48797  0.84678  1.0000
  C   C446      1.0  0.13376  0.47601  0.84669  1.0000
  C   C447      1.0  0.12152  0.47939  0.83164  1.0000
  C   C448      1.0  0.12492  0.49416  0.81618  1.0000
  C   C449      1.0  0.14003  0.50618  0.81629  1.0000
  H   H747      1.0  0.15741  0.48562  0.85899  1.0000
  H   H748      1.0  0.13122  0.46463  0.85869  1.0000
  H   H749      1.0  0.11583  0.49630  0.80419  1.0000
  H   H750      1.0  0.14257  0.51764  0.80443  1.0000
  C   C450      1.0  0.23981  0.42606  0.78289  1.0000
  C   C451      1.0  0.22492  0.42872  0.79854  1.0000
  C   C452      1.0  0.22823  0.43776  0.81496  1.0000
  C   C453      1.0  0.24661  0.44411  0.81614  1.0000
  C   C454      1.0  0.26172  0.44111  0.80066  1.0000
  C   C455      1.0  0.25827  0.43240  0.78396  1.0000
  H   H751      1.0  0.21074  0.42353  0.79813  1.0000
  H   H752      1.0  0.21662  0.43944  0.82689  1.0000
  H   H753      1.0  0.27601  0.44596  0.80142  1.0000
  H   H754      1.0  0.26988  0.43052  0.77203  1.0000
  C   C456      1.0  0.13463  0.40936  0.86357  1.0000
  C   C457      1.0  0.13802  0.42413  0.87483  1.0000
  C   C458      1.0  0.15726  0.42888  0.87547  1.0000
  H   H755      1.0  0.11978  0.40578  0.86316  1.0000
  H   H756      1.0  0.12575  0.43177  0.88320  1.0000
  C   C459      1.0  0.15590  0.40383  0.93399  1.0000
  S   S143      1.0  0.18744  0.61157  0.98678  1.0000
  C   C460      1.0  0.17299  0.41930  0.86419  1.0000
  H   H757      1.0  0.18504  0.65233  0.89723  1.0000
  H   H758      1.0  0.01899  0.42330  0.77450  1.0000
  H   H759      1.0  0.01668  0.36083  0.96170  1.0000
  C   C461      1.0  0.04416  0.34457  0.81157  1.0000
  C   C462      1.0  0.04072  0.36475  0.80611  1.0000
  C   C463      1.0  0.12806  0.52235  0.76378  1.0000
  H   H760      1.0  0.34481  0.50877  0.76023  1.0000
  H   H761      1.0  0.23802  0.64347  0.88053  1.0000
  H   H762      1.0  0.04961  0.40109  0.84448  1.0000
  S   S144      1.0  0.05657  0.63308  0.89875  1.0000
  C   C464      1.0  0.04164  0.41602  0.84513  1.0000
  C   C465      1.0  0.29110  0.36732  0.81794  1.0000
  S   S145      1.0  0.23457  0.41384  0.76308  1.0000
  S   S146      1.0  0.08808  0.38094  0.85482  1.0000
  H   H763      1.0  0.27954  0.37978  0.81944  1.0000
  C   C466      1.0  0.39703  0.53130  0.76969  1.0000
  H   H764      1.0  0.14389  0.34308  0.95740  1.0000
  C   C467      1.0  0.39358  0.48604  0.77385  1.0000
  H   H765      1.0  0.17320  0.43390  0.81458  1.0000
  Fe  Fe73      1.0  0.08453  0.61665  0.94400  1.0000
  H   H766      1.0  0.26851  0.48469  0.78060  1.0000
  H   H767      1.0  0.30492  0.34862  0.79649  1.0000
  H   H768      1.0  0.19685  0.50380  0.76577  1.0000
  H   H769      1.0  0.04416  0.38330  0.87360  1.0000
  C   C468      1.0  0.09412  0.39437  0.92411  1.0000
  H   H770      1.0  0.10904  0.56656  0.94987  1.0000
  H   H771      1.0  0.12513  0.59312  0.93669  1.0000
  C   C469      1.0  0.35199  0.49349  0.75986  1.0000
  C   C470      1.0  0.02246  0.37265  0.79993  1.0000
  Fe  Fe74      1.0  0.08239  0.35322  0.87472  1.0000
  C   C471      1.0  0.14886  0.44643  0.79675  1.0000
  N   N31       1.0  0.10006  0.51299  0.88289  1.0000
  C   C472      1.0  0.10582  0.52297  0.86257  1.0000
  C   C473      1.0  0.08815  0.49658  0.88033  1.0000
  C   C474      1.0  0.11877  0.50492  0.89200  1.0000
  C   C475      1.0  0.08824  0.52818  0.89476  1.0000
  C   C476      1.0  0.12103  0.53806  0.86109  1.0000
  C   C477      1.0  0.06866  0.50282  0.87104  1.0000
  C   C478      1.0  0.11771  0.48698  0.90768  1.0000
  C   C479      1.0  0.07986  0.52113  0.91587  1.0000
  H   H772      1.0  0.11193  0.51197  0.85235  1.0000
  H   H773      1.0  0.09273  0.53081  0.85599  1.0000
  H   H774      1.0  0.08413  0.48776  0.89448  1.0000
  H   H775      1.0  0.09720  0.48593  0.87105  1.0000
  H   H776      1.0  0.13051  0.49999  0.88054  1.0000
  H   H777      1.0  0.12485  0.51659  0.89861  1.0000
  H   H778      1.0  0.09732  0.54009  0.89637  1.0000
  H   H779      1.0  0.07590  0.53609  0.88692  1.0000
  H   H780      1.0  0.12386  0.54405  0.84541  1.0000
  H   H781      1.0  0.11549  0.55068  0.86948  1.0000
  H   H782      1.0  0.13549  0.53134  0.86569  1.0000
  H   H783      1.0  0.06117  0.48953  0.87038  1.0000
  H   H784      1.0  0.05826  0.51278  0.87987  1.0000
  H   H785      1.0  0.07114  0.50965  0.85566  1.0000
  H   H786      1.0  0.10594  0.48926  0.91988  1.0000
  H   H787      1.0  0.13200  0.48395  0.91416  1.0000
  H   H788      1.0  0.11587  0.47359  0.90086  1.0000
  H   H789      1.0  0.09106  0.52077  0.92635  1.0000
  H   H790      1.0  0.07406  0.50672  0.91714  1.0000
  H   H791      1.0  0.06686  0.53148  0.92039  1.0000
  C   C480      1.0  0.13834  0.58692  0.83299  1.0000
  H   H792      1.0  0.13000  0.41412  0.92022  1.0000
  H   H793      1.0  0.01151  0.44308  0.83530  1.0000
  N   N32       1.0  0.27939  0.36418  0.78378  1.0000
  H   H794      1.0  0.16292  0.39148  0.94339  1.0000
  H   H795      1.0  0.17018  0.35615  0.76855  1.0000
  H   H796      1.0  0.17390  0.54039  0.90681  1.0000
  C   C481      1.0  0.01079  0.64356  0.97688  1.0000
  H   H797      1.0  0.01726  0.44436  0.85964  1.0000
  H   H798      1.0  0.20459  0.60730  0.90172  1.0000
  H   H799      1.0  0.11919  0.39310  0.81179  1.0000
  H   H800      1.0  0.10275  0.44138  0.77618  1.0000
  C   C482      1.0  0.19830  0.61591  0.88874  1.0000
  H   H801      1.0  0.16793  0.62281  0.93174  1.0000
  H   H802      1.0  0.13463  0.58383  0.91453  1.0000
  S   S147      1.0  0.14708  0.37891  0.84086  1.0000
  H   H803      1.0  0.02548  0.64751  0.97183  1.0000
  H   H804      1.0  0.24967  0.38986  0.80419  1.0000
  H   H805      1.0  0.00239  0.40475  0.87848  1.0000
  H   H806      1.0  0.17954  0.55802  0.81752  1.0000
  H   H807      1.0  0.11805  0.46144  0.77358  1.0000
  H   H808      1.0  0.14947  0.39741  0.79004  1.0000
  H   H809      1.0  0.15557  0.41729  0.94149  1.0000
  C   C483      1.0  0.14668  0.35933  0.89614  1.0000
  S   S148      1.0  0.06260  0.59844  0.93555  1.0000
  H   H810      1.0  0.06348  0.42521  0.82123  1.0000
  C   C484      1.0  0.15623  0.54049  0.75058  1.0000
  C   C485      1.0  0.15575  0.41067  0.79331  1.0000
  H   H811      1.0  0.11911  0.34327  0.74903  1.0000
  H   H812      1.0  0.13687  0.45864  0.79843  1.0000
  S   S149      1.0  0.01139  0.62877  0.94098  1.0000
  H   H813      1.0  0.11608  0.37078  0.94979  1.0000
  C   C486      1.0  0.01200  0.40347  0.83701  1.0000
  H   H814      1.0  0.26566  0.33115  0.76560  1.0000
  H   H815      1.0  0.17219  0.41233  0.76364  1.0000
  H   H816      1.0  0.39223  0.47067  0.77112  1.0000
  N   N33       1.0  0.13156  0.38231  0.92241  1.0000
  H   H817      1.0  0.17903  0.57923  0.96665  1.0000
  H   H818      1.0  0.18195  0.39651  0.84507  1.0000
  C   C487      1.0  0.00718  0.44754  0.79098  1.0000
  H   H819      1.0  0.02291  0.39084  0.83342  1.0000
  H   H820      1.0  0.04319  0.44336  0.82481  1.0000
  H   H821      1.0  0.04068  0.42195  0.81275  1.0000
  H   H822      1.0  0.14075  0.58632  0.96639  1.0000
  N   N34       1.0  0.22307  0.50328  0.78078  1.0000
  C   C488      1.0  0.20662  0.49324  0.77482  1.0000
  C   C489      1.0  0.20933  0.64944  0.79853  1.0000
  C   C490      1.0  0.21383  0.51853  0.79404  1.0000
  C   C491      1.0  0.23688  0.48812  0.79145  1.0000
  C   C492      1.0  0.19318  0.48327  0.79175  1.0000
  C   C493      1.0  0.20494  0.64353  0.86220  1.0000
  C   C494      1.0  0.22808  0.53003  0.80262  1.0000
  C   C495      1.0  0.25844  0.49286  0.79141  1.0000
  C   C496      1.0  0.00727  0.36060  0.80041  1.0000
  C   C497      1.0  0.24668  0.37438  0.80497  1.0000
  H   H823      1.0  0.40079  0.52424  0.78431  1.0000
  H   H824      1.0  0.31023  0.38362  0.75620  1.0000
  H   H825      1.0  0.20314  0.52932  0.78629  1.0000
  H   H826      1.0  0.20522  0.51162  0.80720  1.0000
  H   H827      1.0  0.23073  0.48487  0.80710  1.0000
  H   H828      1.0  0.23798  0.47402  0.78486  1.0000
  H   H829      1.0  0.18276  0.49424  0.79928  1.0000
  H   H830      1.0  0.18400  0.47393  0.78545  1.0000
  H   H831      1.0  0.20164  0.47367  0.80261  1.0000
  H   H832      1.0  0.03062  0.33005  0.77105  1.0000
  H   H833      1.0  0.24469  0.52189  0.76510  1.0000
  C   C498      1.0  0.16463  0.55426  0.90992  1.0000
  H   H834      1.0  0.23690  0.52035  0.81317  1.0000
  H   H835      1.0  0.21928  0.54130  0.81121  1.0000
  H   H836      1.0  0.23790  0.53788  0.79116  1.0000
  H   H837      1.0  0.26356  0.48738  0.80600  1.0000
  S   S150      1.0  0.06840  0.35986  0.90551  1.0000
  H   H838      1.0  0.30590  0.37271  0.81631  1.0000
  S   S151      1.0  0.08692  0.58406  0.88182  1.0000
  H   H839      1.0  0.21311  0.65672  0.85835  1.0000
  Fe  Fe75      1.0  0.07797  0.36572  0.83138  1.0000
  H   H840      1.0  0.14618  0.36756  0.96293  1.0000
  C   C499      1.0  0.02255  0.35371  0.94873  1.0000
  H   H841      1.0  0.12769  0.42153  0.82204  1.0000
  S   S152      1.0  0.06555  0.64542  0.94112  1.0000
  C   C500      1.0  0.01051  0.34055  0.80677  1.0000
  C   C501      1.0  0.16962  0.40431  0.85322  1.0000
  C   C502      1.0  0.13311  0.57976  0.93078  1.0000
  C   C503      1.0  0.15050  0.39896  0.85330  1.0000
  C   C504      1.0  0.14865  0.37685  0.90741  1.0000
  H   H842      1.0  0.08213  0.39771  0.91429  1.0000
  H   H843      1.0  0.18786  0.42292  0.86454  1.0000
  C   C505      1.0  0.04721  0.42734  0.82481  1.0000
  H   H844      1.0  0.15911  0.61113  0.95499  1.0000
  C   C506      1.0  0.12176  0.56084  0.80032  1.0000
  H   H845      1.0  0.08980  0.57135  0.84344  1.0000
  C   C507      1.0  0.16372  0.55639  0.93210  1.0000
  H   H846      1.0  0.28198  0.34140  0.80823  1.0000
  S   S153      1.0  0.05845  0.38033  0.80879  1.0000
  H   H847      1.0  0.12558  0.60220  0.80778  1.0000
  H   H848      1.0  0.13406  0.33310  0.77525  1.0000
  H   H849      1.0  0.17164  0.56636  0.90068  1.0000
  H   H850      1.0  0.14514  0.62294  0.77909  1.0000
  H   H851      1.0  0.15820  0.51313  0.76940  1.0000
  N   N35       1.0  0.14064  0.42838  0.79207  1.0000
  Fe  Fe76      1.0  0.21837  0.60944  0.97175  1.0000
  C   C508      1.0  0.15819  0.61172  0.93895  1.0000
  H   H852      1.0  0.16398  0.45862  0.81778  1.0000
  H   H853      1.0  0.20093  0.58632  0.87982  1.0000
  C   C509      1.0  0.14388  0.59143  0.77610  1.0000
  N   N36       1.0  0.15285  0.57517  0.93874  1.0000
  H   H854      1.0  0.21628  0.55735  0.96648  1.0000
  C   C510      1.0  0.00088  0.64978  0.99459  1.0000
  H   H855      1.0  0.30805  0.40349  0.77094  1.0000
  H   H856      1.0  0.22229  0.52452  0.75493  1.0000
  Fe  Fe77      1.0  0.18891  0.64411  0.98251  1.0000
  C   C511      1.0  0.18310  0.65026  0.85932  1.0000
  C   C512      1.0  0.28396  0.38507  0.77793  1.0000
  C   C513      1.0  0.04702  0.35129  0.91971  1.0000
  H   H857      1.0  0.09658  0.40926  0.81044  1.0000
  H   H858      1.0  0.21066  0.63399  0.85053  1.0000
  S   S154      1.0  0.10831  0.35324  0.82089  1.0000
  H   H859      1.0  0.11215  0.43755  0.80776  1.0000
  H   H860      1.0  0.29012  0.35802  0.83232  1.0000
  H   H861      1.0  0.23405  0.62293  0.89843  1.0000
  H   H862      1.0  0.25015  0.48591  0.75291  1.0000
  C   C514      1.0  0.14075  0.59619  0.81125  1.0000
  C   C515      1.0  0.13477  0.43219  0.77138  1.0000
  C   C516      1.0  0.25728  0.36390  0.78749  1.0000
  S   S155      1.0  0.22515  0.59455  0.94300  1.0000
  Fe  Fe78      1.0  0.11798  0.36561  0.84639  1.0000
  H   H863      1.0  0.14318  0.34606  0.90609  1.0000
  H   H864      1.0  0.04847  0.42284  0.85619  1.0000
  C   C517      1.0  0.11517  0.53653  0.75420  1.0000
  H   H865      1.0  0.17737  0.59686  0.79057  1.0000
  C   C518      1.0  0.17491  0.41236  0.77922  1.0000
  H   H866      1.0  0.18087  0.58787  0.93415  1.0000
  H   H867      1.0  0.34191  0.48549  0.75301  1.0000
  H   H868      1.0  0.12233  0.50969  0.77230  1.0000
  H   H869      1.0  0.12520  0.40269  0.94469  1.0000
  H   H870      1.0  0.15760  0.54323  0.94045  1.0000
  H   H871      1.0  0.41048  0.53317  0.75930  1.0000
  C   C519      1.0  0.00993  0.43560  0.85057  1.0000
  H   H872      1.0  0.25020  0.37045  0.77408  1.0000
  S   S156      1.0  0.08941  0.53437  0.75606  1.0000
  C   C520      1.0  0.19797  0.60168  0.87301  1.0000
  H   H873      1.0  0.14971  0.43957  0.82897  1.0000
  C   C521      1.0  0.23080  0.62959  0.88344  1.0000
  C   C522      1.0  0.23825  0.62624  0.79330  1.0000
  S   S157      1.0  0.21914  0.64232  0.96617  1.0000
  H   H874      1.0  0.02335  0.37422  0.86507  1.0000
  H   H875      1.0  0.36918  0.52018  0.77313  1.0000
  H   H876      1.0  0.27912  0.39453  0.78987  1.0000
  C   C523      1.0  0.15948  0.44416  0.81561  1.0000
  H   H877      1.0  0.17537  0.55349  0.96982  1.0000
  H   H878      1.0  0.13553  0.36330  0.88553  1.0000
  C   C524      1.0  0.12315  0.42443  0.80689  1.0000
  H   H879      1.0  0.41303  0.48450  0.79702  1.0000
  C   C525      1.0  0.24206  0.61534  0.86935  1.0000
  H   H880      1.0  0.13220  0.41838  0.76571  1.0000
  H   H881      1.0  0.12286  0.58370  0.83750  1.0000
  H   H882      1.0  0.17908  0.57335  0.78189  1.0000
  H   H883      1.0  0.11169  0.40460  0.78858  1.0000
  H   H884      1.0  0.12293  0.35320  0.93336  1.0000
  C   C526      1.0  0.28945  0.35441  0.80136  1.0000
  S   S158      1.0  0.11333  0.33857  0.86741  1.0000
  H   H885      1.0  0.11835  0.54598  0.80696  1.0000
  C   C527      1.0  0.14942  0.57302  0.96092  1.0000
  C   C528      1.0  0.30587  0.38773  0.77136  1.0000
  S   S159      1.0  0.22248  0.56830  0.76106  1.0000
  H   H886      1.0  0.17928  0.55488  0.93554  1.0000
  C   C529      1.0  0.16189  0.35475  0.75590  1.0000
  H   H887      1.0  0.15983  0.40694  0.80859  1.0000
  C   C530      1.0  0.11309  0.38617  0.91195  1.0000
  H   H888      1.0  0.21268  0.48151  0.76531  1.0000
  H   H889      1.0  0.18255  0.62028  0.89392  1.0000
  H   H890      1.0  0.16536  0.40632  0.91981  1.0000
  H   H891      1.0  0.35313  0.48632  0.77505  1.0000
  H   H892      1.0  0.14703  0.43789  0.76098  1.0000
  C   C531      1.0  0.28662  0.35286  0.76632  1.0000
  H   H893      1.0  0.09576  0.40826  0.93003  1.0000
  C   C532      1.0  0.23775  0.65112  0.81598  1.0000
  H   H894      1.0  0.18567  0.39942  0.78277  1.0000
  H   H895      1.0  0.20150  0.62875  0.92430  1.0000
  H   H896      1.0  0.08891  0.38339  0.93616  1.0000
  H   H897      1.0  0.14306  0.61741  0.93553  1.0000
  H   H898      1.0  0.25031  0.36630  0.81926  1.0000
  H   H899      1.0  0.18301  0.60283  0.86802  1.0000
  C   C533      1.0  0.11859  0.56394  0.93598  1.0000
  H   H900      1.0  0.15934  0.45208  0.78436  1.0000
  H   H901      1.0  0.12592  0.54878  0.93753  1.0000
  C   C534      1.0  0.18253  0.57334  0.81259  1.0000
  H   H902      1.0  0.25808  0.61462  0.87087  1.0000
  H   H903      1.0  0.11535  0.39673  0.89859  1.0000
  H   H904      1.0  0.18208  0.42558  0.78070  1.0000
  H   H905      1.0  0.23047  0.37466  0.80476  1.0000
  H   H906      1.0  0.20890  0.60346  0.85994  1.0000
  Fe  Fe79      1.0  0.08000  0.64804  0.90974  1.0000
  H   H907      1.0  0.16580  0.61191  0.76364  1.0000
  C   C535      1.0  0.20564  0.64347  0.91828  1.0000
  C   C536      1.0  0.02898  0.33254  0.81222  1.0000
  C   C537      1.0  0.20134  0.64900  0.89668  1.0000
  C   C538      1.0  0.24748  0.63494  0.80683  1.0000
  C   C539      1.0  0.02784  0.38383  0.87518  1.0000
  H   H908      1.0  0.25325  0.34862  0.79056  1.0000
  H   H909      1.0  0.18174  0.65415  0.84334  1.0000
  H   H910      1.0  0.02434  0.41383  0.88200  1.0000
  C   C540      1.0  0.14384  0.65173  0.97327  1.0000
  C   C541      1.0  0.38197  0.52041  0.76155  1.0000
  H   H911      1.0  0.26222  0.62919  0.81016  1.0000
  H   H912      1.0  0.14983  0.55324  0.90541  1.0000
  C   C542      1.0  0.28131  0.33154  0.76802  1.0000
  N   N37       1.0  0.15020  0.58296  0.79597  1.0000
  H   H913      1.0  0.10902  0.56465  0.92389  1.0000
  H   H914      1.0  0.14848  0.57367  0.83663  1.0000
  C   C543      1.0  0.14844  0.52426  0.76191  1.0000
  H   H915      1.0  0.14009  0.56093  0.96634  1.0000
  H   H916      1.0  0.42227  0.49863  0.77533  1.0000
  H   H917      1.0  0.15001  0.58156  0.76467  1.0000
  H   H918      1.0  0.19675  0.65417  0.92754  1.0000
  C   C544      1.0  0.16522  0.59174  0.93110  1.0000
  H   H919      1.0  0.16282  0.37364  0.91394  1.0000
  C   C545      1.0  0.14974  0.61213  0.76830  1.0000
  H   H920      1.0  0.10612  0.64472  0.94803  1.0000
  C   C546      1.0  0.14409  0.56242  0.79996  1.0000
  H   H921      1.0  0.11251  0.57161  0.80912  1.0000
  H   H922      1.0  0.12754  0.59256  0.77627  1.0000
  H   H923      1.0  0.14095  0.59792  0.84270  1.0000
  C   C547      1.0  0.13463  0.40104  0.93050  1.0000
  H   H924      1.0  0.19876  0.57308  0.80878  1.0000
  C   C548      1.0  0.01442  0.33716  0.94467  1.0000
  C   C549      1.0  0.17242  0.58198  0.79422  1.0000
  H   H925      1.0  0.39012  0.54636  0.77203  1.0000
  H   H926      1.0  0.14909  0.60919  0.81068  1.0000
  H   H927      1.0  0.22138  0.64430  0.92001  1.0000
  C   C550      1.0  0.14577  0.35836  0.95082  1.0000
  C   C551      1.0  0.00632  0.42957  0.78351  1.0000
  H   H928      1.0  0.05853  0.33817  0.81523  1.0000
  C   C552      1.0  0.41438  0.48566  0.78066  1.0000
  H   H929      1.0  0.01049  0.41263  0.82272  1.0000
  H   H930      1.0  0.05695  0.33052  0.77070  1.0000
  H   H931      1.0  0.14710  0.36287  0.75937  1.0000
  H   H932      1.0  0.11443  0.44984  0.75262  1.0000
  H   H933      1.0  0.26075  0.50856  0.78894  1.0000
  S   S160      1.0  0.06995  0.33922  0.85170  1.0000
  C   C553      1.0  0.01793  0.40512  0.87216  1.0000
  N   N38       1.0  0.38886  0.50001  0.75597  1.0000
  H   H934      1.0  0.17326  0.63872  0.86476  1.0000
  H   H935      1.0  0.15109  0.38957  0.89620  1.0000
  H   H936      1.0  0.16029  0.35716  0.94195  1.0000
  C   C554      1.0  0.24211  0.49960  0.74651  1.0000
  H   H937      1.0  0.15336  0.33924  0.79877  1.0000
  H   H938      1.0  0.14225  0.61751  0.75490  1.0000
  H   H939      1.0  0.16091  0.35556  0.88716  1.0000
  H   H940      1.0  0.02193  0.65803  0.88013  1.0000
  C   C555      1.0  0.37216  0.49291  0.74716  1.0000
  Fe  Fe80      1.0  0.21889  0.60066  0.75205  1.0000
  C   C556      1.0  0.14232  0.63597  0.98793  1.0000
  C   C557      1.0  0.13009  0.65546  0.95953  1.0000
  C   C558      1.0  0.00113  0.63338  0.96514  1.0000
  C   C559      1.0  0.03841  0.33520  0.91522  1.0000
  H   H941      1.0  0.12225  0.65798  0.91709  1.0000
  C   C560      1.0  0.02235  0.32809  0.92774  1.0000
  H   H942      1.0  0.16408  0.56933  0.98768  1.0000
  H   H943      1.0  0.19452  0.65518  0.79541  1.0000
  C   C561      1.0  0.21870  0.65836  0.81160  1.0000
  H   H944      1.0  0.00893  0.45730  0.74882  1.0000
  H   H945      1.0  0.25013  0.83686  0.11128  1.0000
  Fe  Fe81      1.0  0.15580  0.76627  0.18714  1.0000
  S   S161      1.0  0.12354  0.76739  0.19860  1.0000
  S   S162      1.0  0.16505  0.77479  0.15475  1.0000
  H   H946      1.0  0.13981  0.73811  0.16035  1.0000
  H   H947      1.0  0.28346  0.67629  0.02001  1.0000
  Fe  Fe82      1.0  0.13057  0.73522  0.20847  1.0000
  H   H948      1.0  0.39214  0.79093  0.02291  1.0000
  S   S163      1.0  0.16441  0.77590  0.21486  1.0000
  S   S164      1.0  0.16233  0.73405  0.19603  1.0000
  Fe  Fe83      1.0  0.27099  0.75395  0.05882  1.0000
  S   S165      1.0  0.25869  0.78434  0.06660  1.0000
  H   H949      1.0  0.46249  0.89153  0.01011  1.0000
  Fe  Fe84      1.0  0.30930  0.75705  0.07684  1.0000
  S   S166      1.0  0.29973  0.78699  0.08604  1.0000
  S   S167      1.0  0.34033  0.74242  0.07834  1.0000
  Fe  Fe85      1.0  0.27046  0.77502  0.09578  1.0000
  S   S168      1.0  0.25564  0.78216  0.12578  1.0000
  Fe  Fe86      1.0  0.28894  0.79374  0.05629  1.0000
  S   S169      1.0  0.29453  0.82097  0.03503  1.0000
  S   S170      1.0  0.28101  0.74419  0.08891  1.0000
  S   S171      1.0  0.30024  0.76433  0.04616  1.0000
  H   H950      1.0  0.07986  0.95134  0.23605  1.0000
  H   H951      1.0  0.25139  0.76932  0.22226  1.0000
  Fe  Fe87      1.0  0.36446  0.90691  0.02470  1.0000
  S   S172      1.0  0.39297  0.88805  0.01943  1.0000
  S   S173      1.0  0.34296  0.89115  0.04742  1.0000
  Fe  Fe88      1.0  0.40780  0.91409  0.02413  1.0000
  S   S174      1.0  0.43500  0.90568  0.04030  1.0000
  H   H952      1.0  0.23280  0.74534  0.16163  1.0000
  S   S175      1.0  0.37935  0.93265  0.03147  1.0000
  C   C562      1.0  0.44552  0.76335  0.01676  1.0000
  H   H953      1.0  0.22202  0.68911  0.01207  1.0000
  H   H954      1.0  0.41185  0.91311  0.07985  1.0000
  Fe  Fe89      1.0  0.48553  0.94427  0.11791  1.0000
  S   S176      1.0  0.48205  0.94978  0.14996  1.0000
  S   S177      1.0  0.46594  0.95995  0.09541  1.0000
  H   H955      1.0  0.26267  0.73487  0.14343  1.0000
  H   H956      1.0  0.27122  0.76506  0.20369  1.0000
  Fe  Fe90      1.0  0.48390  0.91665  0.15612  1.0000
  S   S178      1.0  0.46499  0.89850  0.17957  1.0000
  H   H957      1.0  0.41911  0.93402  0.10153  1.0000
  S   S179      1.0  0.48514  0.91185  0.12439  1.0000
  Fe  Fe91      1.0  0.40024  0.76128  0.16732  1.0000
  S   S180      1.0  0.38382  0.79056  0.17192  1.0000
  S   S181      1.0  0.40117  0.74477  0.14070  1.0000
  Fe  Fe92      1.0  0.42225  0.76032  0.20367  1.0000
  S   S182      1.0  0.40751  0.79001  0.21111  1.0000
  H   H958      1.0  0.21523  0.85807  0.05160  1.0000
  Fe  Fe93      1.0  0.38001  0.77859  0.20398  1.0000
  Fe  Fe94      1.0  0.41266  0.79943  0.17850  1.0000
  S   S183      1.0  0.42456  0.82566  0.15946  1.0000
  S   S184      1.0  0.39445  0.74836  0.19879  1.0000
  S   S185      1.0  0.42946  0.77064  0.17186  1.0000
  C   C563      1.0  0.45417  0.87781  0.17431  1.0000
  C   C564      1.0  0.44367  0.86640  0.18950  1.0000
  C   C565      1.0  0.43466  0.85013  0.18544  1.0000
  C   C566      1.0  0.43576  0.84545  0.16605  1.0000
  C   C567      1.0  0.44621  0.85685  0.15099  1.0000
  C   C568      1.0  0.45569  0.87263  0.15516  1.0000
  H   H959      1.0  0.44248  0.87021  0.20444  1.0000
  H   H960      1.0  0.42660  0.84151  0.19721  1.0000
  H   H961      1.0  0.44735  0.85317  0.13601  1.0000
  H   H962      1.0  0.46424  0.88079  0.14352  1.0000
  C   C569      1.0  0.44460  0.92208  0.05353  1.0000
  C   C570      1.0  0.46179  0.91566  0.06268  1.0000
  C   C571      1.0  0.46872  0.92740  0.07515  1.0000
  C   C572      1.0  0.45856  0.94571  0.07848  1.0000
  C   C573      1.0  0.44190  0.95252  0.06858  1.0000
  C   C574      1.0  0.43484  0.94070  0.05621  1.0000
  H   H963      1.0  0.46938  0.90125  0.06075  1.0000
  H   H964      1.0  0.48171  0.92212  0.08248  1.0000
  H   H965      1.0  0.43411  0.96678  0.07091  1.0000
  H   H966      1.0  0.42164  0.94583  0.04911  1.0000
  C   C575      1.0  0.35631  0.74469  0.09614  1.0000
  C   C576      1.0  0.37512  0.73438  0.09406  1.0000
  C   C577      1.0  0.38844  0.73480  0.10785  1.0000
  C   C578      1.0  0.38329  0.74562  0.12398  1.0000
  C   C579      1.0  0.36463  0.75652  0.12599  1.0000
  C   C580      1.0  0.35108  0.75601  0.11204  1.0000
  H   H967      1.0  0.37931  0.72563  0.08188  1.0000
  H   H968      1.0  0.40277  0.72636  0.10615  1.0000
  H   H969      1.0  0.36054  0.76497  0.13839  1.0000
  H   H970      1.0  0.33657  0.76407  0.11375  1.0000
  C   C581      1.0  0.30959  0.83933  0.03837  1.0000
  C   C582      1.0  0.31678  0.84034  0.05640  1.0000
  C   C583      1.0  0.32743  0.85602  0.05880  1.0000
  C   C584      1.0  0.33156  0.87049  0.04307  1.0000
  C   C585      1.0  0.32508  0.86900  0.02483  1.0000
  C   C586      1.0  0.31388  0.85369  0.02260  1.0000
  H   H971      1.0  0.31380  0.82933  0.06863  1.0000
  H   H972      1.0  0.33231  0.85708  0.07299  1.0000
  C   C587      1.0  0.38194  0.91239  0.09331  1.0000
  H   H973      1.0  0.26162  0.76185  0.16507  1.0000
  C   C588      1.0  0.45321  0.71877  0.21944  1.0000
  C   C589      1.0  0.44683  0.70901  0.20504  1.0000
  H   H974      1.0  0.43693  0.71688  0.19494  1.0000
  C   C590      1.0  0.19033  0.77643  0.14691  1.0000
  C   C591      1.0  0.19793  0.77251  0.12771  1.0000
  C   C592      1.0  0.21796  0.77412  0.12099  1.0000
  C   C593      1.0  0.23036  0.78018  0.13329  1.0000
  C   C594      1.0  0.22263  0.78453  0.15232  1.0000
  C   C595      1.0  0.20280  0.78233  0.15925  1.0000
  H   H975      1.0  0.18832  0.76810  0.11804  1.0000
  H   H976      1.0  0.22375  0.77079  0.10628  1.0000
  H   H977      1.0  0.23206  0.78959  0.16176  1.0000
  H   H978      1.0  0.19700  0.78570  0.17394  1.0000
  H   H979      1.0  0.16142  0.73919  0.10777  1.0000
  C   C596      1.0  0.46988  0.79457  0.18780  1.0000
  H   H980      1.0  0.23470  0.67529  0.05946  1.0000
  H   H981      1.0  0.32661  0.81835  0.00161  1.0000
  H   H982      1.0  0.11255  0.82612  0.22395  1.0000
  H   H983      1.0  0.10045  0.86086  0.22904  1.0000
  H   H984      1.0  0.44867  0.68168  0.19218  1.0000
  C   C597      1.0  0.46437  0.80012  0.20897  1.0000
  H   H985      1.0  0.29844  0.85721  0.21928  1.0000
  H   H986      1.0  0.27037  0.77032  0.01525  1.0000
  H   H987      1.0  0.02225  0.66323  0.03811  1.0000
  H   H988      1.0  0.49343  0.84738  0.00104  1.0000
  C   C598      1.0  0.26065  0.86614  0.05286  1.0000
  H   H989      1.0  0.42313  0.74409  0.01548  1.0000
  H   H990      1.0  0.01201  0.67060  0.17613  1.0000
  H   H991      1.0  0.43111  0.86478  0.10269  1.0000
  C   C599      1.0  0.43973  0.87695  0.09631  1.0000
  S   S186      1.0  0.44572  0.74386  0.22177  1.0000
  H   H992      1.0  0.23768  0.71882  0.22224  1.0000
  H   H993      1.0  0.21476  0.86257  0.10797  1.0000
  N   N39       1.0  0.42159  0.79226  0.09768  1.0000
  C   C600      1.0  0.40879  0.79473  0.11686  1.0000
  C   C601      1.0  0.43261  0.77191  0.09952  1.0000
  C   C602      1.0  0.40849  0.79307  0.08141  1.0000
  C   C603      1.0  0.43630  0.80730  0.09369  1.0000
  C   C604      1.0  0.39649  0.81473  0.11851  1.0000
  C   C605      1.0  0.44631  0.76738  0.11608  1.0000
  C   C606      1.0  0.41923  0.78782  0.06133  1.0000
  C   C607      1.0  0.42983  0.82707  0.08188  1.0000
  H   H994      1.0  0.39835  0.78329  0.11990  1.0000
  H   H995      1.0  0.41781  0.79267  0.12951  1.0000
  H   H996      1.0  0.44229  0.76916  0.08574  1.0000
  H   H997      1.0  0.42210  0.76048  0.10174  1.0000
  H   H998      1.0  0.39688  0.78282  0.08574  1.0000
  H   H999      1.0  0.40015  0.80776  0.07882  1.0000
  H   H1000     1.0  0.44094  0.81076  0.10779  1.0000
  H   H1001     1.0  0.45017  0.80136  0.08529  1.0000
  H   H1002     1.0  0.38626  0.81373  0.13230  1.0000
  H   H1003     1.0  0.40607  0.82622  0.11998  1.0000
  H   H1004     1.0  0.38719  0.81919  0.10631  1.0000
  H   H1005     1.0  0.45583  0.75345  0.11390  1.0000
  H   H1006     1.0  0.45615  0.77898  0.11605  1.0000
  H   H1007     1.0  0.43775  0.76494  0.13069  1.0000
  H   H1008     1.0  0.43394  0.79334  0.05800  1.0000
  H   H1009     1.0  0.41022  0.79428  0.04935  1.0000
  H   H1010     1.0  0.42114  0.77165  0.06087  1.0000
  H   H1011     1.0  0.42818  0.82522  0.06644  1.0000
  H   H1012     1.0  0.44156  0.83698  0.08131  1.0000
  H   H1013     1.0  0.41601  0.83472  0.08847  1.0000
  H   H1014     1.0  0.27057  0.85707  0.04263  1.0000
  H   H1015     1.0  0.28693  0.87424  0.06447  1.0000
  H   H1016     1.0  0.20422  0.72815  0.17557  1.0000
  N   N40       1.0  0.12800  0.72930  0.13527  1.0000
  H   H1017     1.0  0.32730  0.72049  0.99942  1.0000
  C   C608      1.0  0.27301  0.88132  0.05889  1.0000
  H   H1018     1.0  0.24970  0.87479  0.04364  1.0000
  H   H1019     1.0  0.26459  0.89053  0.06984  1.0000
  H   H1020     1.0  0.47708  0.79952  0.21754  1.0000
  H   H1021     1.0  0.27754  0.89130  0.04561  1.0000
  C   C609      1.0  0.45349  0.68905  0.20352  1.0000
  H   H1022     1.0  0.33052  0.84378  0.21230  1.0000
  H   H1023     1.0  0.36496  0.78959  0.05337  1.0000
  H   H1024     1.0  0.25317  0.82890  0.05185  1.0000
  H   H1025     1.0  0.27749  0.83409  0.07252  1.0000
  C   C610      1.0  0.49269  0.79106  0.15803  1.0000
  C   C611      1.0  0.37760  0.78569  0.02260  1.0000
  C   C612      1.0  0.22628  0.84668  0.04558  1.0000
  C   C613      1.0  0.06008  0.80763  0.24111  1.0000
  C   C614      1.0  0.46631  0.67864  0.21654  1.0000
  H   H1026     1.0  0.15027  0.76265  0.09867  1.0000
  N   N41       1.0  0.25050  0.85325  0.06946  1.0000
  C   C615      1.0  0.24143  0.83826  0.06011  1.0000
  H   H1027     1.0  0.23376  0.85274  0.03130  1.0000
  C   C616      1.0  0.11056  0.69299  0.19151  1.0000
  N   N42       1.0  0.48930  0.80017  0.17723  1.0000
  H   H1028     1.0  0.27406  0.85341  0.08796  1.0000
  H   H1029     1.0  0.08278  0.66389  0.17137  1.0000
  C   C617      1.0  0.26614  0.84280  0.08180  1.0000
  S   S187      1.0  0.25017  0.73844  0.04332  1.0000
  S   S188      1.0  0.10784  0.71621  0.20102  1.0000
  H   H1030     1.0  0.24296  0.87333  0.09175  1.0000
  C   C618      1.0  0.16351  0.72099  0.14533  1.0000
  H   H1031     1.0  0.31542  0.79624  0.00216  1.0000
  H   H1032     1.0  0.47401  0.82847  0.16783  1.0000
  C   C619      1.0  0.09414  0.68665  0.18458  1.0000
  H   H1033     1.0  0.23408  0.82770  0.07115  1.0000
  H   H1034     1.0  0.22848  0.87827  0.07162  1.0000
  C   C620      1.0  0.12848  0.68093  0.19042  1.0000
  H   H1035     1.0  0.13674  0.71289  0.16224  1.0000
  C   C621      1.0  0.45480  0.77953  0.00749  1.0000
  H   H1036     1.0  0.48499  0.67631  0.16491  1.0000
  C   C622      1.0  0.49312  0.83435  0.18832  1.0000
  C   C623      1.0  0.46615  0.70842  0.23231  1.0000
  C   C624      1.0  0.23551  0.86609  0.08148  1.0000
  H   H1037     1.0  0.45746  0.80159  0.17950  1.0000
  H   H1038     1.0  0.39817  0.93138  0.11913  1.0000
  H   H1039     1.0  0.49635  0.69301  0.18873  1.0000
  H   H1040     1.0  0.45593  0.81490  0.20889  1.0000
  H   H1041     1.0  0.48368  0.83172  0.20235  1.0000
  H   H1042     1.0  0.14538  0.71057  0.11475  1.0000
  H   H1043     1.0  0.05055  0.66124  0.01397  1.0000
  H   H1044     1.0  0.02034  0.94084  0.21255  1.0000
  H   H1045     1.0  0.23750  0.76688  0.19143  1.0000
  H   H1046     1.0  0.46868  0.77857  0.18801  1.0000
  H   H1047     1.0  0.20185  0.67743  0.06715  1.0000
  C   C625      1.0  0.40391  0.90417  0.09216  1.0000
  C   C626      1.0  0.35723  0.81858  0.02350  1.0000
  N   N43       1.0  0.36345  0.80087  0.01240  1.0000
  H   H1048     1.0  0.41051  0.86079  0.13128  1.0000
  C   C627      1.0  0.25277  0.68050  0.01489  1.0000
  H   H1049     1.0  0.27454  0.72137  0.20151  1.0000
  C   C628      1.0  0.24754  0.70876  0.21316  1.0000
  H   H1050     1.0  0.38260  0.76852  0.05066  1.0000
  C   C629      1.0  0.25914  0.82880  0.09973  1.0000
  H   H1051     1.0  0.43671  0.83459  0.03283  1.0000
  C   C630      1.0  0.04035  0.94458  0.23380  1.0000
  H   H1052     1.0  0.44174  0.92447  0.12763  1.0000
  C   C631      1.0  0.47724  0.79788  0.14338  1.0000
  C   C632      1.0  0.37327  0.82674  0.03334  1.0000
  H   H1053     1.0  0.37282  0.90420  0.10519  1.0000
  H   H1054     1.0  0.09644  0.73164  0.13327  1.0000
  H   H1055     1.0  0.42846  0.68522  0.24382  1.0000
  C   C633      1.0  0.24410  0.66505  0.06890  1.0000
  C   C634      1.0  0.19853  0.66638  0.05790  1.0000
  H   H1056     1.0  0.48246  0.79166  0.12928  1.0000
  H   H1057     1.0  0.37211  0.84299  0.02989  1.0000
  H   H1058     1.0  0.11058  0.69179  0.13941  1.0000
  C   C635      1.0  0.46623  0.85880  0.03106  1.0000
  H   H1059     1.0  0.21374  0.72231  0.19884  1.0000
  H   H1060     1.0  0.28362  0.86910  0.23808  1.0000
  H   H1061     1.0  0.41154  0.89133  0.14134  1.0000
  S   S189      1.0  0.13737  0.74162  0.23820  1.0000
  H   H1062     1.0  0.20127  0.77052  0.22943  1.0000
  H   H1063     1.0  0.42365  0.94399  0.13368  1.0000
  H   H1064     1.0  0.37620  0.91082  0.07918  1.0000
  H   H1065     1.0  0.42036  0.66440  0.22054  1.0000
  C   C636      1.0  0.21822  0.85612  0.09373  1.0000
  Fe  Fe95      1.0  0.13268  0.77384  0.22737  1.0000
  C   C637      1.0  0.26917  0.70306  0.03102  1.0000
  C   C638      1.0  0.14718  0.74748  0.10457  1.0000
  H   H1066     1.0  0.20454  0.85951  0.08625  1.0000
  C   C639      1.0  0.10188  0.84998  0.24165  1.0000
  C   C640      1.0  0.25164  0.71564  0.03311  1.0000
  C   C641      1.0  0.41347  0.92477  0.11499  1.0000
  C   C642      1.0  0.26039  0.71921  0.19603  1.0000
  H   H1067     1.0  0.29004  0.77615  0.99766  1.0000
  H   H1068     1.0  0.20738  0.74758  0.18934  1.0000
  Fe  Fe96      1.0  0.16861  0.74359  0.22457  1.0000
  C   C643      1.0  0.00508  0.66128  0.18877  1.0000
  H   H1069     1.0  0.38114  0.77272  0.01410  1.0000
  H   H1070     1.0  0.21970  0.79288  0.24389  1.0000
  H   H1071     1.0  0.10389  0.71822  0.15536  1.0000
  S   S190      1.0  0.47512  0.78812  0.01667  1.0000
  C   C644      1.0  0.48554  0.86556  0.03617  1.0000
  H   H1072     1.0  0.22094  0.84010  0.09753  1.0000
  H   H1073     1.0  0.47129  0.71593  0.24335  1.0000
  H   H1074     1.0  0.45557  0.87143  0.09698  1.0000
  C   C645      1.0  0.14128  0.72538  0.15160  1.0000
  H   H1075     1.0  0.45388  0.86762  0.03907  1.0000
  H   H1076     1.0  0.34535  0.81520  0.03552  1.0000
  C   C646      1.0  0.21403  0.73289  0.18543  1.0000
  C   C647      1.0  0.32956  0.80284  0.99856  1.0000
  H   H1077     1.0  0.26500  0.70811  0.18546  1.0000
  Fe  Fe97      1.0  0.49640  0.80602  0.07784  1.0000
  H   H1078     1.0  0.49291  0.77482  0.16057  1.0000
  H   H1079     1.0  0.16689  0.70838  0.13649  1.0000
  H   H1080     1.0  0.11790  0.75549  0.11669  1.0000
  H   H1081     1.0  0.26427  0.74536  0.22237  1.0000
  C   C648      1.0  0.10686  0.73119  0.14462  1.0000
  C   C649      1.0  0.37028  0.77777  0.04387  1.0000
  H   H1082     1.0  0.32801  0.88010  0.01263  1.0000
  C   C650      1.0  0.29886  0.86229  0.23400  1.0000
  N   N44       1.0  0.41368  0.90371  0.11078  1.0000
  C   C651      1.0  0.10879  0.83030  0.23871  1.0000
  C   C652      1.0  0.49656  0.84303  0.10159  1.0000
  H   H1083     1.0  0.22102  0.71997  0.02770  1.0000
  C   C653      1.0  0.43498  0.89519  0.10765  1.0000
  H   H1084     1.0  0.39427  0.66713  0.23011  1.0000
  H   H1085     1.0  0.39563  0.86937  0.11140  1.0000
  S   S191      1.0  0.47991  0.82682  0.09787  1.0000
  H   H1086     1.0  0.25728  0.70019  0.22365  1.0000
  H   H1087     1.0  0.20740  0.66788  0.04339  1.0000
  H   H1088     1.0  0.35845  0.76806  0.04406  1.0000
  N   N45       1.0  0.25114  0.73794  0.18565  1.0000
  H   H1089     1.0  0.04871  0.80030  0.23551  1.0000
  C   C654      1.0  0.23482  0.73383  0.17424  1.0000
  H   H1090     1.0  0.47730  0.82989  0.00968  1.0000
  H   H1091     1.0  0.48218  0.84919  0.12998  1.0000
  H   H1092     1.0  0.45491  0.78925  0.21733  1.0000
  H   H1093     1.0  0.10144  0.76336  0.14667  1.0000
  C   C655      1.0  0.26693  0.74666  0.17108  1.0000
  S   S192      1.0  0.48770  0.77624  0.07532  1.0000
  H   H1094     1.0  0.28105  0.72017  0.15749  1.0000
  C   C656      1.0  0.33171  0.83112  0.22379  1.0000
  H   H1095     1.0  0.16981  0.73417  0.13746  1.0000
  H   H1096     1.0  0.25118  0.81704  0.09576  1.0000
  H   H1097     1.0  0.23880  0.71981  0.16748  1.0000
  H   H1098     1.0  0.14121  0.68551  0.19580  1.0000
  H   H1099     1.0  0.40485  0.88950  0.08692  1.0000
  C   C657      1.0  0.10038  0.74922  0.15606  1.0000
  C   C658      1.0  0.23467  0.71038  0.02619  1.0000
  H   H1100     1.0  0.49540  0.76535  0.20432  1.0000
  H   H1101     1.0  0.38466  0.86866  0.13587  1.0000
  H   H1102     1.0  0.44413  0.90635  0.09948  1.0000
  H   H1103     1.0  0.12026  0.71599  0.11073  1.0000
  H   H1104     1.0  0.38864  0.82119  0.02869  1.0000
  H   H1105     1.0  0.37047  0.82405  0.04964  1.0000
  H   H1106     1.0  0.46275  0.79250  0.14874  1.0000
  H   H1107     1.0  0.33743  0.78712  0.02563  1.0000
  H   H1108     1.0  0.28028  0.74809  0.17832  1.0000
  H   H1109     1.0  0.01850  0.96552  0.21925  1.0000
  H   H1110     1.0  0.08467  0.74880  0.16218  1.0000
  C   C659      1.0  0.39844  0.87177  0.12635  1.0000
  C   C660      1.0  0.13168  0.74843  0.12280  1.0000
  H   H1111     1.0  0.21820  0.83461  0.04231  1.0000
  H   H1112     1.0  0.24992  0.67400  0.07886  1.0000
  C   C661      1.0  0.13031  0.71260  0.12257  1.0000
  C   C662      1.0  0.32560  0.83702  0.24478  1.0000
  C   C663      1.0  0.47257  0.68849  0.23093  1.0000
  H   H1113     1.0  0.35057  0.83093  0.01360  1.0000
  C   C664      1.0  0.40293  0.89278  0.12839  1.0000
  H   H1114     1.0  0.28616  0.74305  0.14394  1.0000
  H   H1115     1.0  0.45063  0.75555  0.03013  1.0000
  H   H1116     1.0  0.28235  0.70681  0.03627  1.0000
  H   H1117     1.0  0.14141  0.74100  0.09266  1.0000
  H   H1118     1.0  0.04655  0.92959  0.23020  1.0000
  C   C665      1.0  0.12625  0.69226  0.13332  1.0000
  H   H1119     1.0  0.23091  0.74840  0.21005  1.0000
  H   H1120     1.0  0.05066  0.95425  0.22482  1.0000
  C   C666      1.0  0.27441  0.73526  0.15313  1.0000
  H   H1121     1.0  0.43773  0.88066  0.08046  1.0000
  H   H1122     1.0  0.23865  0.69853  0.20768  1.0000
  H   H1123     1.0  0.38882  0.90130  0.13353  1.0000
  H   H1124     1.0  0.42100  0.91996  0.14592  1.0000
  C   C667      1.0  0.42569  0.92813  0.13157  1.0000
  C   C668      1.0  0.26974  0.68573  0.02180  1.0000
  H   H1125     1.0  0.13600  0.68740  0.14511  1.0000
  C   C669      1.0  0.23517  0.69289  0.01730  1.0000
  H   H1126     1.0  0.08018  0.69579  0.18542  1.0000
  H   H1127     1.0  0.37986  0.92829  0.09508  1.0000
  H   H1128     1.0  0.27229  0.82129  0.10657  1.0000
  S   S193      1.0  0.34894  0.78129  0.21950  1.0000
  H   H1129     1.0  0.46566  0.84350  0.03821  1.0000
  H   H1130     1.0  0.13592  0.75924  0.13196  1.0000
  C   C670      1.0  0.34529  0.79094  0.01077  1.0000
  H   H1131     1.0  0.00752  0.94610  0.23532  1.0000
  H   H1132     1.0  0.44115  0.89143  0.12195  1.0000
  C   C671      1.0  0.40840  0.67373  0.22839  1.0000
  H   H1133     1.0  0.30844  0.85308  0.00857  1.0000
  H   H1134     1.0  0.10884  0.74889  0.16882  1.0000
  C   C672      1.0  0.44241  0.85725  0.00792  1.0000
  C   C673      1.0  0.24355  0.75302  0.19968  1.0000
  Fe  Fe98      1.0  0.49451  0.78407  0.04241  1.0000
  H   H1135     1.0  0.29115  0.82634  0.23238  1.0000
  H   H1136     1.0  0.48602  0.88161  0.03243  1.0000
  C   C674      1.0  0.25872  0.75826  0.21255  1.0000
  C   C675      1.0  0.46803  0.88026  0.99989  1.0000
  H   H1137     1.0  0.40289  0.81059  0.99770  1.0000
  H   H1138     1.0  0.28329  0.73846  0.01048  1.0000
  C   C676      1.0  0.09556  0.66856  0.17658  1.0000
  H   H1139     1.0  0.30705  0.89026  0.21919  1.0000
  C   C677      1.0  0.49406  0.85237  0.11878  1.0000
  H   H1140     1.0  0.34945  0.77676  0.00430  1.0000
  H   H1141     1.0  0.32311  0.81951  0.22049  1.0000
  H   H1142     1.0  0.18282  0.67003  0.05510  1.0000
  H   H1143     1.0  0.40626  0.68766  0.21856  1.0000
  H   H1144     1.0  0.07408  0.79782  0.24177  1.0000
  H   H1145     1.0  0.48620  0.86253  0.05235  1.0000
  H   H1146     1.0  0.12931  0.68115  0.12261  1.0000
  H   H1147     1.0  0.06348  0.82020  0.23001  1.0000
  H   H1148     1.0  0.31510  0.74009  0.01335  1.0000
  C   C678      1.0  0.02050  0.94973  0.22497  1.0000
  H   H1149     1.0  0.47518  0.81403  0.13991  1.0000
  H   H1150     1.0  0.17129  0.71693  0.15872  1.0000
  H   H1151     1.0  0.48425  0.88104  0.99696  1.0000
  C   C679      1.0  0.48868  0.82220  0.17226  1.0000
  H   H1152     1.0  0.48274  0.68103  0.24074  1.0000
  C   C680      1.0  0.42989  0.75688  0.00839  1.0000
  H   H1153     1.0  0.31129  0.88686  0.24447  1.0000
  H   H1154     1.0  0.16206  0.82821  0.24388  1.0000
  N   N46       1.0  0.46364  0.86008  0.00937  1.0000
  C   C681      1.0  0.27965  0.74706  0.99641  1.0000
  H   H1155     1.0  0.33862  0.74233  0.99961  1.0000
  H   H1156     1.0  0.02889  0.67073  0.07687  1.0000
  H   H1157     1.0  0.49017  0.85021  0.18312  1.0000
  C   C682      1.0  0.20873  0.76522  0.24227  1.0000
  H   H1158     1.0  0.42029  0.83671  0.01428  1.0000
  C   C683      1.0  0.43593  0.83713  0.01675  1.0000
  C   C684      1.0  0.47795  0.84431  0.00059  1.0000
  H   H1159     1.0  0.32784  0.87419  0.22637  1.0000
  H   H1160     1.0  0.31330  0.77720  0.24459  1.0000
  C   C685      1.0  0.34353  0.78257  0.24506  1.0000
  S   S194      1.0  0.19469  0.72978  0.24057  1.0000
  C   C686      1.0  0.32415  0.73662  0.99952  1.0000
  Fe  Fe99      1.0  0.38047  0.94260  0.99858  1.0000
  C   C687      1.0  0.27631  0.76896  0.99965  1.0000
  C   C688      1.0  0.31221  0.87915  0.23108  1.0000
  H   H1161     1.0  0.34747  0.82491  0.22269  1.0000
  H   H1162     1.0  0.44472  0.82496  0.00949  1.0000
  H   H1163     1.0  0.43246  0.86876  0.01531  1.0000
  C   C689      1.0  0.12983  0.66269  0.18268  1.0000
  H   H1164     1.0  0.19138  0.69280  0.99580  1.0000
  H   H1165     1.0  0.05110  0.82822  0.31693  1.0000
  C   C690      1.0  0.21031  0.89885  0.34520  1.0000
  Fe  Fe100     1.0  0.21608  0.90583  0.43080  1.0000
  S   S195      1.0  0.18911  0.89002  0.43464  1.0000
  S   S196      1.0  0.24218  0.89375  0.41030  1.0000
  Fe  Fe101     1.0  0.19804  0.93566  0.46035  1.0000
  S   S197      1.0  0.16993  0.92120  0.46613  1.0000
  S   S198      1.0  0.19653  0.96533  0.47288  1.0000
  Fe  Fe102     1.0  0.18932  0.89285  0.46674  1.0000
  H   H1166     1.0  0.07606  0.96535  0.25723  1.0000
  Fe  Fe103     1.0  0.17207  0.91976  0.43358  1.0000
  S   S199      1.0  0.14409  0.92914  0.41910  1.0000
  S   S200      1.0  0.21762  0.90688  0.46337  1.0000
  S   S201      1.0  0.19904  0.93592  0.42725  1.0000
  Fe  Fe104     1.0  0.06153  0.88582  0.33657  1.0000
  S   S202      1.0  0.05112  0.90109  0.30829  1.0000
  S   S203      1.0  0.04554  0.86559  0.35933  1.0000
  Fe  Fe105     1.0  0.10141  0.90092  0.32911  1.0000
  S   S204      1.0  0.09444  0.91786  0.30028  1.0000
  S   S205      1.0  0.13129  0.89537  0.34069  1.0000
  Fe  Fe106     1.0  0.06450  0.92680  0.31626  1.0000
  S   S206      1.0  0.05061  0.95860  0.31215  1.0000
  Fe  Fe107     1.0  0.08153  0.89082  0.29457  1.0000
  H   H1167     1.0  0.04124  0.90460  0.26679  1.0000
  S   S207      1.0  0.07289  0.91211  0.34561  1.0000
  S   S208      1.0  0.09055  0.87339  0.32224  1.0000
  Fe  Fe108     1.0  0.25466  0.78171  0.30602  1.0000
  S   S209      1.0  0.26782  0.80853  0.31155  1.0000
  S   S210      1.0  0.24123  0.78813  0.27716  1.0000
  Fe  Fe109     1.0  0.26733  0.75891  0.34422  1.0000
  S   S211      1.0  0.28112  0.78443  0.35236  1.0000
  S   S212      1.0  0.26897  0.73222  0.36698  1.0000
  Fe  Fe110     1.0  0.25412  0.80323  0.34277  1.0000
  S   S213      1.0  0.23240  0.82595  0.35787  1.0000
  Fe  Fe111     1.0  0.29338  0.78730  0.32038  1.0000
  S   S214      1.0  0.32542  0.79118  0.31010  1.0000
  S   S215      1.0  0.23933  0.77743  0.33674  1.0000
  S   S216      1.0  0.28123  0.76073  0.31284  1.0000
  C   C691      1.0  0.05446  0.75211  0.48359  1.0000
  Fe  Fe112     1.0  0.05994  0.80964  0.48763  1.0000
  H   H1168     1.0  0.26156  0.80632  0.40093  1.0000
  C   C692      1.0  0.49287  0.68303  0.30471  1.0000
  H   H1169     1.0  0.05034  0.72680  0.46793  1.0000
  H   H1170     1.0  0.17932  0.83672  0.42447  1.0000
  H   H1171     1.0  0.20227  0.80681  0.31805  1.0000
  C   C693      1.0  0.33249  0.78735  0.28520  1.0000
  C   C694      1.0  0.31871  0.78271  0.27356  1.0000
  H   H1172     1.0  0.39832  0.67768  0.42530  1.0000
  H   H1173     1.0  0.23898  0.83363  0.41198  1.0000
  C   C695      1.0  0.01923  0.84156  0.41168  1.0000
  C   C696      1.0  0.35193  0.78936  0.27677  1.0000
  H   H1174     1.0  0.30365  0.78134  0.27978  1.0000
  H   H1175     1.0  0.34648  0.67778  0.34984  1.0000
  C   C697      1.0  0.23917  0.81965  0.42186  1.0000
  H   H1176     1.0  0.36266  0.79303  0.28569  1.0000
  C   C698      1.0  0.14370  0.85409  0.45309  1.0000
  C   C699      1.0  0.15548  0.86428  0.46269  1.0000
  C   C700      1.0  0.16613  0.85451  0.47776  1.0000
  H   H1177     1.0  0.09162  0.94278  0.25766  1.0000
  H   H1178     1.0  0.13552  0.86173  0.44148  1.0000
  H   H1179     1.0  0.15589  0.87985  0.45872  1.0000
  C   C701      1.0  0.23953  0.87532  0.39514  1.0000
  C   C702      1.0  0.22089  0.87104  0.39174  1.0000
  C   C703      1.0  0.21911  0.85625  0.37986  1.0000
  C   C704      1.0  0.23592  0.84534  0.37138  1.0000
  C   C705      1.0  0.25463  0.84980  0.37443  1.0000
  C   C706      1.0  0.25640  0.86483  0.38618  1.0000
  H   H1180     1.0  0.20778  0.87917  0.39813  1.0000
  H   H1181     1.0  0.20458  0.85305  0.37744  1.0000
  H   H1182     1.0  0.26770  0.84155  0.36795  1.0000
  H   H1183     1.0  0.27090  0.86812  0.38860  1.0000
  C   C707      1.0  0.13954  0.91809  0.39857  1.0000
  C   C708      1.0  0.12333  0.92581  0.38839  1.0000
  C   C709      1.0  0.12032  0.91854  0.37089  1.0000
  C   C710      1.0  0.13354  0.90349  0.36350  1.0000
  C   C711      1.0  0.14937  0.89528  0.37405  1.0000
  C   C712      1.0  0.15228  0.90245  0.39166  1.0000
  H   H1184     1.0  0.11342  0.93790  0.39372  1.0000
  H   H1185     1.0  0.10817  0.92504  0.36277  1.0000
  H   H1186     1.0  0.15951  0.88346  0.36847  1.0000
  H   H1187     1.0  0.16459  0.89619  0.39964  1.0000
  C   C713      1.0  0.00602  0.83282  0.32914  1.0000
  C   C714      1.0  0.21865  0.73887  0.26675  1.0000
  C   C715      1.0  0.22908  0.75161  0.27512  1.0000
  C   C716      1.0  0.22934  0.77116  0.26696  1.0000
  H   H1188     1.0  0.38983  0.71664  0.44298  1.0000
  C   C717      1.0  0.16205  0.82527  0.26014  1.0000
  H   H1189     1.0  0.00651  0.97578  0.24977  1.0000
  H   H1190     1.0  0.23678  0.74636  0.28790  1.0000
  C   C718      1.0  0.44093  0.68078  0.27875  1.0000
  H   H1191     1.0  0.41407  0.68422  0.48276  1.0000
  C   C719      1.0  0.09857  0.84140  0.27690  1.0000
  C   C720      1.0  0.10496  0.82173  0.27396  1.0000
  H   H1192     1.0  0.09455  0.84546  0.29166  1.0000
  H   H1193     1.0  0.10552  0.81081  0.28658  1.0000
  C   C721      1.0  0.20915  0.96490  0.34332  1.0000
  H   H1194     1.0  0.48999  0.66360  0.48657  1.0000
  H   H1195     1.0  0.15253  0.83274  0.29746  1.0000
  H   H1196     1.0  0.12932  0.82525  0.30770  1.0000
  H   H1197     1.0  0.20646  0.79891  0.41650  1.0000
  H   H1198     1.0  0.01402  0.93931  0.31969  1.0000
  H   H1199     1.0  0.18055  0.79832  0.25603  1.0000
  S   S217      1.0  0.08684  0.88017  0.26402  1.0000
  H   H1200     1.0  0.19334  0.78814  0.45843  1.0000
  C   C722      1.0  0.02508  0.96759  0.31470  1.0000
  C   C723      1.0  0.05308  0.81555  0.26105  1.0000
  H   H1201     1.0  0.47075  0.70846  0.30066  1.0000
  H   H1202     1.0  0.45886  0.69318  0.44398  1.0000
  C   C724      1.0  0.34998  0.69066  0.33918  1.0000
  H   H1203     1.0  0.14930  0.82045  0.32219  1.0000
  H   H1204     1.0  0.02347  0.87716  0.32595  1.0000
  H   H1205     1.0  0.19942  0.80256  0.28247  1.0000
  C   C725      1.0  0.22879  0.94316  0.37997  1.0000
  C   C726      1.0  0.03065  0.85286  0.34748  1.0000
  C   C727      1.0  0.00209  0.80027  0.45441  1.0000
  H   H1206     1.0  0.21375  0.91734  0.38880  1.0000
  S   S218      1.0  0.18236  0.86691  0.48835  1.0000
  H   H1207     1.0  0.06046  0.93753  0.27760  1.0000
  N   N47       1.0  0.04678  0.80081  0.27801  1.0000
  C   C728      1.0  0.11011  0.81603  0.25491  1.0000
  H   H1208     1.0  0.03152  0.78466  0.26010  1.0000
  C   C729      1.0  0.02873  0.79230  0.27356  1.0000
  H   H1209     1.0  0.06564  0.82290  0.26438  1.0000
  H   H1210     1.0  0.39560  0.71116  0.41790  1.0000
  H   H1211     1.0  0.22237  0.93622  0.33646  1.0000
  C   C730      1.0  0.36598  0.74823  0.31037  1.0000
  C   C731      1.0  0.29489  0.68504  0.33970  1.0000
  H   H1212     1.0  0.30216  0.82220  0.28447  1.0000
  H   H1213     1.0  0.01749  0.76704  0.48693  1.0000
  C   C732      1.0  0.02232  0.79911  0.45679  1.0000
  C   C733      1.0  0.26948  0.83362  0.25623  1.0000
  H   H1214     1.0  0.38055  0.67753  0.44570  1.0000
  C   C734      1.0  0.21872  0.92596  0.37470  1.0000
  H   H1215     1.0  0.19138  0.90254  0.37211  1.0000
  C   C735      1.0  0.21290  0.83712  0.44206  1.0000
  C   C736      1.0  0.22143  0.80071  0.44905  1.0000
  S   S219      1.0  0.02939  0.80592  0.47897  1.0000
  H   H1216     1.0  0.28670  0.86019  0.27246  1.0000
  C   C737      1.0  0.06715  0.76762  0.27033  1.0000
  C   C738      1.0  0.32419  0.78043  0.25357  1.0000
  H   H1217     1.0  0.48349  0.68171  0.31911  1.0000
  H   H1218     1.0  0.30763  0.74694  0.35718  1.0000
  C   C739      1.0  0.20289  0.97382  0.49458  1.0000
  H   H1219     1.0  0.15027  0.80934  0.47955  1.0000
  H   H1220     1.0  0.19999  0.78226  0.31383  1.0000
  N   N48       1.0  0.34267  0.72889  0.33580  1.0000
  C   C740      1.0  0.33997  0.74491  0.34941  1.0000
  H   H1221     1.0  0.08536  0.82942  0.43220  1.0000
  C   C741      1.0  0.34134  0.70951  0.34847  1.0000
  C   C742      1.0  0.32642  0.73290  0.32244  1.0000
  C   C743      1.0  0.32135  0.74512  0.36448  1.0000
  H   H1222     1.0  0.06136  0.77907  0.29834  1.0000
  C   C744      1.0  0.41442  0.67848  0.24801  1.0000
  H   H1223     1.0  0.04036  0.77838  0.41474  1.0000
  H   H1224     1.0  0.35288  0.74403  0.35803  1.0000
  H   H1225     1.0  0.33914  0.75972  0.34092  1.0000
  C   C745      1.0  0.02961  0.78478  0.42565  1.0000
  C   C746      1.0  0.30037  0.67860  0.37409  1.0000
  H   H1226     1.0  0.34904  0.70926  0.36192  1.0000
  H   H1227     1.0  0.37439  0.72780  0.33510  1.0000
  H   H1228     1.0  0.31190  0.73086  0.33102  1.0000
  H   H1229     1.0  0.32468  0.74862  0.31631  1.0000
  H   H1230     1.0  0.31904  0.70766  0.30915  1.0000
  H   H1231     1.0  0.32071  0.75791  0.37303  1.0000
  H   H1232     1.0  0.44466  0.68970  0.46748  1.0000
  C   C747      1.0  0.20339  0.79710  0.46412  1.0000
  H   H1233     1.0  0.21174  0.84939  0.42999  1.0000
  H   H1234     1.0  0.35575  0.75025  0.29878  1.0000
  H   H1235     1.0  0.09832  0.85722  0.43600  1.0000
  H   H1236     1.0  0.32570  0.70758  0.35394  1.0000
  H   H1237     1.0  0.18862  0.95372  0.38099  1.0000
  H   H1238     1.0  0.36446  0.76162  0.31809  1.0000
  H   H1239     1.0  0.17904  0.79709  0.32517  1.0000
  H   H1240     1.0  0.23719  0.95035  0.36686  1.0000
  C   C748      1.0  0.19535  0.91179  0.35810  1.0000
  C   C749      1.0  0.20487  0.81461  0.41935  1.0000
  H   H1241     1.0  0.24965  0.78858  0.41783  1.0000
  C   C750      1.0  0.01972  0.77777  0.29011  1.0000
  H   H1242     1.0  0.40645  0.70646  0.46912  1.0000
  H   H1243     1.0  0.21838  0.72376  0.27312  1.0000
  H   H1244     1.0  0.02301  0.91128  0.24949  1.0000
  C   C751      1.0  0.38747  0.70653  0.43236  1.0000
  H   H1245     1.0  0.49042  0.66995  0.29768  1.0000
  H   H1246     1.0  0.19792  0.83755  0.45015  1.0000
  C   C752      1.0  0.24709  0.80297  0.40893  1.0000
  H   H1247     1.0  0.20826  0.82305  0.40470  1.0000
  H   H1248     1.0  0.22521  0.78681  0.44210  1.0000
  C   C753      1.0  0.19192  0.79720  0.31379  1.0000
  Fe  Fe113     1.0  0.10203  0.81730  0.47413  1.0000
  H   H1249     1.0  0.21428  0.90643  0.33036  1.0000
  H   H1250     1.0  0.24113  0.84596  0.44873  1.0000
  H   H1251     1.0  0.04004  0.75031  0.45702  1.0000
  C   C754      1.0  0.01016  0.95503  0.31789  1.0000
  H   H1252     1.0  0.40336  0.69037  0.25341  1.0000
  H   H1253     1.0  0.05815  0.83713  0.29212  1.0000
  H   H1254     1.0  0.22430  0.96846  0.33760  1.0000
  H   H1255     1.0  0.17740  0.81373  0.43993  1.0000
  C   C755      1.0  0.32770  0.72042  0.30506  1.0000
  H   H1256     1.0  0.14695  0.83044  0.26643  1.0000
  H   H1257     1.0  0.20331  0.88567  0.34294  1.0000
  C   C756      1.0  0.44694  0.68508  0.45240  1.0000
  H   H1258     1.0  0.15979  0.95282  0.49322  1.0000
  H   H1259     1.0  0.16309  0.76379  0.26313  1.0000
  N   N49       1.0  0.16904  0.79602  0.28684  1.0000
  C   C757      1.0  0.17445  0.77403  0.28837  1.0000
  C   C758      1.0  0.18601  0.80499  0.29310  1.0000
  C   C759      1.0  0.16688  0.80305  0.26547  1.0000
  C   C760      1.0  0.14989  0.80019  0.29966  1.0000
  C   C761      1.0  0.16077  0.76201  0.27949  1.0000
  H   H1260     1.0  0.23088  0.91643  0.36739  1.0000
  H   H1261     1.0  0.01485  0.99307  0.26331  1.0000
  C   C762      1.0  0.14549  0.82085  0.30688  1.0000
  H   H1262     1.0  0.18958  0.77043  0.28121  1.0000
  H   H1263     1.0  0.18322  0.82114  0.29271  1.0000
  H   H1264     1.0  0.43173  0.68418  0.42682  1.0000
  H   H1265     1.0  0.26127  0.82140  0.25359  1.0000
  H   H1266     1.0  0.15484  0.79632  0.26022  1.0000
  H   H1267     1.0  0.13725  0.79751  0.29199  1.0000
  H   H1268     1.0  0.14946  0.78968  0.31332  1.0000
  H   H1269     1.0  0.04293  0.97004  0.27296  1.0000
  H   H1270     1.0  0.14495  0.76577  0.28451  1.0000
  H   H1271     1.0  0.07773  0.79214  0.28109  1.0000
  H   H1272     1.0  0.20569  0.97035  0.35792  1.0000
  H   H1273     1.0  0.32132  0.72960  0.29244  1.0000
  C   C763      1.0  0.01504  0.82354  0.34550  1.0000
  C   C764      1.0  0.14187  0.83428  0.45909  1.0000
  H   H1274     1.0  0.03442  0.82628  0.36724  1.0000
  N   N50       1.0  0.21918  0.81793  0.43346  1.0000
  H   H1275     1.0  0.17485  0.76773  0.30403  1.0000
  C   C765      1.0  0.16418  0.83471  0.48390  1.0000
  H   H1276     1.0  0.07631  0.81774  0.41387  1.0000
  C   C766      1.0  0.42816  0.68941  0.44167  1.0000
  C   C767      1.0  0.09664  0.85561  0.26076  1.0000
  H   H1277     1.0  0.16457  0.74614  0.28406  1.0000
  H   H1278     1.0  0.36632  0.68959  0.33645  1.0000
  C   C768      1.0  0.20774  0.94267  0.34300  1.0000
  H   H1279     1.0  0.47874  0.69678  0.27882  1.0000
  H   H1280     1.0  0.09081  0.90190  0.42436  1.0000
  H   H1281     1.0  0.13064  0.94516  0.47863  1.0000
  H   H1282     1.0  0.08192  0.87965  0.37829  1.0000
  H   H1283     1.0  0.05030  0.88149  0.39913  1.0000
  C   C769      1.0  0.28224  0.70951  0.36198  1.0000
  H   H1284     1.0  0.27870  0.71300  0.33103  1.0000
  C   C770      1.0  0.18273  0.82051  0.42520  1.0000
  C   C771      1.0  0.01497  0.97713  0.26213  1.0000
  H   H1285     1.0  0.21851  0.95411  0.38760  1.0000
  S   S220      1.0  0.12514  0.82231  0.44883  1.0000
  H   H1286     1.0  0.09215  0.89523  0.39200  1.0000
  H   H1287     1.0  0.30627  0.66905  0.38615  1.0000
  H   H1288     1.0  0.07059  0.81450  0.30346  1.0000
  H   H1289     1.0  0.17396  0.81552  0.41452  1.0000
  H   H1290     1.0  0.13177  0.85068  0.37342  1.0000
  H   H1291     1.0  0.05971  0.89584  0.41571  1.0000
  C   C772      1.0  0.08245  0.88319  0.39356  1.0000
  C   C773      1.0  0.09917  0.88830  0.43059  1.0000
  H   H1292     1.0  0.11489  0.88814  0.42453  1.0000
  H   H1293     1.0  0.09865  0.88914  0.44669  1.0000
  C   C774      1.0  0.06125  0.89171  0.40049  1.0000
  C   C775      1.0  0.11561  0.85294  0.37782  1.0000
  H   H1294     1.0  0.03600  0.80182  0.30899  1.0000
  H   H1295     1.0  0.03089  0.76643  0.29610  1.0000
  H   H1296     1.0  0.03229  0.83413  0.40330  1.0000
  H   H1297     1.0  0.23428  0.80132  0.45737  1.0000
  H   H1298     1.0  0.05734  0.90530  0.39072  1.0000
  C   C776      1.0  0.06362  0.78538  0.28262  1.0000
  C   C777      1.0  0.00937  0.78581  0.42333  1.0000
  N   N51       1.0  0.20173  0.93099  0.36231  1.0000
  H   H1299     1.0  0.07481  0.87043  0.43471  1.0000
  C   C778      1.0  0.99844  0.89093  0.40379  1.0000
  S   S221      1.0  0.07376  0.83712  0.47563  1.0000
  C   C779      1.0  0.28992  0.69691  0.37751  1.0000
  C   C780      1.0  0.08608  0.82885  0.41608  1.0000
  H   H1300     1.0  0.05169  0.79055  0.44369  1.0000
  H   H1301     1.0  0.25071  0.82031  0.43177  1.0000
  H   H1302     1.0  0.28782  0.70138  0.39224  1.0000
  H   H1303     1.0  0.34349  0.68896  0.32562  1.0000
  S   S222      1.0  0.08825  0.78940  0.48409  1.0000
  N   N52       1.0  0.09083  0.86548  0.40617  1.0000
  C   C781      1.0  0.09018  0.86958  0.42732  1.0000
  H   H1304     1.0  0.12046  0.87335  0.39732  1.0000
  H   H1305     1.0  0.10976  0.83866  0.37776  1.0000
  C   C782      1.0  0.15195  0.82461  0.47464  1.0000
  C   C783      1.0  0.16624  0.94887  0.36349  1.0000
  C   C784      1.0  0.28484  0.70354  0.34302  1.0000
  H   H1306     1.0  0.42543  0.70568  0.43880  1.0000
  C   C785      1.0  0.18452  0.94115  0.37437  1.0000
  H   H1307     1.0  0.44460  0.68365  0.29338  1.0000
  C   C786      1.0  0.03609  0.79163  0.44211  1.0000
  H   H1308     1.0  0.07712  0.84667  0.38984  1.0000
  H   H1309     1.0  0.06331  0.85234  0.41218  1.0000
  H   H1310     1.0  0.32147  0.73182  0.37529  1.0000
  H   H1311     1.0  0.16966  0.95959  0.35057  1.0000
  H   H1312     1.0  0.32217  0.83522  0.28860  1.0000
  C   C787      1.0  0.07866  0.84883  0.40537  1.0000
  C   C788      1.0  0.11209  0.86036  0.39839  1.0000
  C   C789      1.0  0.05623  0.82348  0.30216  1.0000
  H   H1313     1.0  0.17311  0.83402  0.26431  1.0000
  H   H1314     1.0  0.45248  0.66933  0.45314  1.0000
  H   H1315     1.0  0.36698  0.71710  0.31563  1.0000
  H   H1316     1.0  0.17950  0.93111  0.38748  1.0000
  H   H1317     1.0  0.10128  0.82343  0.41034  1.0000
  H   H1318     1.0  0.37137  0.70848  0.43093  1.0000
  H   H1319     1.0  0.00593  0.89889  0.41337  1.0000
  H   H1320     1.0  0.08332  0.76389  0.26686  1.0000
  H   H1321     1.0  0.11965  0.84911  0.40879  1.0000
  H   H1322     1.0  0.10932  0.86371  0.36632  1.0000
  C   C790      1.0  0.04057  0.81192  0.29579  1.0000
  C   C791      1.0  0.36294  0.72952  0.32462  1.0000
  H   H1323     1.0  0.06990  0.74834  0.48713  1.0000
  C   C792      1.0  0.05250  0.74257  0.46480  1.0000
  H   H1324     1.0  0.34285  0.71521  0.29923  1.0000
  C   C793      1.0  0.22648  0.84278  0.45631  1.0000
  H   H1325     1.0  0.20850  0.78911  0.47794  1.0000
  C   C794      1.0  0.02740  0.83354  0.35464  1.0000
  H   H1326     1.0  0.23736  0.80174  0.39746  1.0000
  H   H1327     1.0  0.37207  0.69873  0.47227  1.0000
  H   H1328     1.0  0.21970  0.85657  0.46230  1.0000
  H   H1329     1.0  0.15505  0.95655  0.37380  1.0000
  H   H1330     1.0  0.02415  0.85462  0.41682  1.0000
  H   H1331     1.0  0.15899  0.93693  0.35886  1.0000
  H   H1332     1.0  0.18184  0.91432  0.35031  1.0000
  H   H1333     1.0  0.02713  0.93512  0.28403  1.0000
  H   H1334     1.0  0.40981  0.68030  0.28775  1.0000
  H   H1335     1.0  0.04086  0.82747  0.25861  1.0000
  S   S223      1.0  0.11674  0.79071  0.25249  1.0000
  H   H1336     1.0  0.22381  0.89318  0.35231  1.0000
  C   C795      1.0  0.30624  0.83679  0.28640  1.0000
  H   H1337     1.0  0.19725  0.94144  0.33210  1.0000
  C   C796      1.0  0.30169  0.85243  0.26907  1.0000
  H   H1338     1.0  0.01155  0.78554  0.30234  1.0000
  H   H1339     1.0  0.01490  0.83101  0.42443  1.0000
  C   C797      1.0  0.40427  0.69059  0.47125  1.0000
  H   H1340     1.0  0.23979  0.93717  0.39038  1.0000
  H   H1341     1.0  0.06090  0.76986  0.25607  1.0000
  C   C798      1.0  0.48388  0.70133  0.29214  1.0000
  C   C799      1.0  0.39384  0.68474  0.43908  1.0000
  H   H1342     1.0  0.02739  0.82263  0.29323  1.0000
  N   N53       1.0  0.41008  0.68104  0.45243  1.0000
  C   C800      1.0  0.35750  0.78686  0.25674  1.0000
  C   C801      1.0  0.38287  0.68895  0.48069  1.0000
  H   H1343     1.0  0.49122  0.70956  0.33143  1.0000
  H   H1344     1.0  0.37241  0.78869  0.25024  1.0000
  N   N54       1.0  0.04027  0.94653  0.25541  1.0000
  C   C802      1.0  0.00278  0.84721  0.39794  1.0000
  H   H1345     1.0  0.19509  0.81071  0.46875  1.0000
  H   H1346     1.0  0.29648  0.68034  0.32508  1.0000
  C   C803      1.0  0.02668  0.91283  0.26447  1.0000
  H   H1347     1.0  0.37882  0.67374  0.48212  1.0000
  C   C804      1.0  0.02169  0.86205  0.33105  1.0000
  C   C805      1.0  0.06048  0.93857  0.26131  1.0000
  H   H1348     1.0  0.06179  0.75434  0.27913  1.0000
  H   H1349     1.0  0.00873  0.77010  0.28417  1.0000
  H   H1350     1.0  0.01253  0.80859  0.35110  1.0000
  H   H1351     1.0  0.19903  0.97367  0.33332  1.0000
  H   H1352     1.0  0.22811  0.83149  0.46908  1.0000
  H   H1353     1.0  0.04439  0.97732  0.24730  1.0000
  C   C806      1.0  0.02553  0.93460  0.26816  1.0000
  H   H1354     1.0  0.38120  0.74685  0.30269  1.0000
  H   H1355     1.0  0.01679  0.80430  0.27025  1.0000
  H   H1356     1.0  0.38574  0.66518  0.27456  1.0000
  H   H1357     1.0  0.49387  0.71269  0.28691  1.0000
  C   C807      1.0  0.01968  0.98801  0.31252  1.0000
  H   H1358     1.0  0.29737  0.84100  0.30015  1.0000
  H   H1359     1.0  0.45392  0.67188  0.27198  1.0000
  C   C808      1.0  0.42219  0.66993  0.28182  1.0000
  H   H1360     1.0  0.26790  0.83414  0.27241  1.0000
  C   C809      1.0  0.00955  0.85197  0.32173  1.0000
  H   H1361     1.0  0.00952  0.85612  0.38502  1.0000
  S   S224      1.0  0.00192  0.77471  0.40365  1.0000
  H   H1362     1.0  0.01562  0.90554  0.27514  1.0000
  H   H1363     1.0  0.00715  0.97098  0.27617  1.0000
  H   H1364     1.0  0.31170  0.86383  0.26966  1.0000
  H   H1365     1.0  0.29705  0.81513  0.25549  1.0000
  C   C810      1.0  0.30276  0.67256  0.35517  1.0000
  H   H1366     1.0  0.05314  0.76827  0.47938  1.0000
  H   H1367     1.0  0.00237  0.85923  0.30923  1.0000
  C   C811      1.0  0.21938  0.77782  0.25037  1.0000
  H   H1368     1.0  0.32900  0.82364  0.25509  1.0000
  H   H1369     1.0  0.43861  0.69528  0.26994  1.0000
  C   C812      1.0  0.03660  0.96786  0.25931  1.0000
  N   N55       1.0  0.41684  0.66164  0.26402  1.0000
  C   C813      1.0  0.20816  0.74574  0.25051  1.0000
  H   H1370     1.0  0.06610  0.74395  0.45441  1.0000
  H   H1371     1.0  0.01007  0.94073  0.26655  1.0000
  H   H1372     1.0  0.99992  0.83355  0.39214  1.0000
  C   C814      1.0  0.07774  0.95043  0.25235  1.0000
  N   N56       1.0  0.30437  0.84528  0.24896  1.0000
  H   H1373     1.0  0.06476  0.92337  0.25732  1.0000
  H   H1374     1.0  0.01708  0.74212  0.48317  1.0000
  C   C815      1.0  0.12848  0.95392  0.49142  1.0000
  H   H1375     1.0  0.12694  0.96954  0.48521  1.0000
  H   H1376     1.0  0.01047  0.88503  0.39323  1.0000
  H   H1377     1.0  0.06958  0.71295  0.49227  1.0000
  H   H1378     1.0  0.26220  0.84730  0.24895  1.0000
  C   C816      1.0  0.29127  0.82940  0.24790  1.0000
  C   C817      1.0  0.01936  0.75179  0.49438  1.0000
  H   H1379     1.0  0.33587  0.84741  0.24769  1.0000
  H   H1380     1.0  0.17591  0.96139  0.52545  1.0000
  Fe  Fe114     1.0  0.27442  0.85136  0.73015  1.0000
  H   H1381     1.0  0.15205  0.96662  0.64543  1.0000
  Fe  Fe115     1.0  0.25162  0.82024  0.71617  1.0000
  S   S225      1.0  0.22199  0.83616  0.72483  1.0000
  S   S226      1.0  0.25136  0.78981  0.70697  1.0000
  Fe  Fe116     1.0  0.23534  0.86330  0.71111  1.0000
  S   S227      1.0  0.21897  0.88574  0.68982  1.0000
  H   H1382     1.0  0.14863  0.93266  0.50595  1.0000
  S   S228      1.0  0.26461  0.84705  0.70065  1.0000
  C   C818      1.0  0.31173  0.66894  0.57503  1.0000
  H   H1383     1.0  0.30419  0.69193  0.61335  1.0000
  H   H1384     1.0  0.11394  0.86359  0.56077  1.0000
  H   H1385     1.0  0.21084  0.93641  0.59070  1.0000
  H   H1386     1.0  0.19222  0.66816  0.73946  1.0000
  S   S229      1.0  0.35673  0.68070  0.53230  1.0000
  H   H1387     1.0  0.10466  0.82564  0.58079  1.0000
  N   N57       1.0  0.20009  0.96386  0.62052  1.0000
  H   H1388     1.0  0.13515  0.99153  0.54511  1.0000
  Fe  Fe117     1.0  0.08154  0.94540  0.63526  1.0000
  S   S230      1.0  0.08809  0.93740  0.60418  1.0000
  S   S231      1.0  0.06222  0.97445  0.63960  1.0000
  Fe  Fe118     1.0  0.11310  0.91214  0.65050  1.0000
  S   S232      1.0  0.12138  0.90236  0.62035  1.0000
  S   S233      1.0  0.12765  0.89448  0.67632  1.0000
  Fe  Fe119     1.0  0.11970  0.93451  0.61002  1.0000
  S   S234      1.0  0.14228  0.94751  0.58761  1.0000
  Fe  Fe120     1.0  0.08886  0.90612  0.61766  1.0000
  S   S235      1.0  0.07414  0.88232  0.60705  1.0000
  S   S236      1.0  0.11374  0.94427  0.64027  1.0000
  S   S237      1.0  0.08014  0.91398  0.64864  1.0000
  H   H1389     1.0  0.06078  0.76950  0.53564  1.0000
  C   C819      1.0  0.04130  0.76007  0.51683  1.0000
  C   C820      1.0  0.03694  0.92441  0.58124  1.0000
  Fe  Fe121     1.0  0.09334  0.79583  0.51449  1.0000
  H   H1390     1.0  0.03404  0.97290  0.56770  1.0000
  S   S238      1.0  0.10479  0.77409  0.53937  1.0000
  C   C821      1.0  0.14446  0.89920  0.74234  1.0000
  S   S239      1.0  0.07733  0.87003  0.51677  1.0000
  C   C822      1.0  0.19218  0.89595  0.74039  1.0000
  H   H1391     1.0  0.13985  0.86982  0.50883  1.0000
  S   S240      1.0  0.06355  0.81358  0.51925  1.0000
  C   C823      1.0  0.20577  0.96688  0.59852  1.0000
  Fe  Fe122     1.0  0.24893  0.70921  0.59176  1.0000
  S   S241      1.0  0.21732  0.70355  0.59083  1.0000
  S   S242      1.0  0.27454  0.68523  0.58688  1.0000
  Fe  Fe123     1.0  0.23619  0.74775  0.61043  1.0000
  S   S243      1.0  0.20386  0.74472  0.61142  1.0000
  S   S244      1.0  0.24806  0.77488  0.61820  1.0000
  Fe  Fe124     1.0  0.21248  0.71274  0.62151  1.0000
  S   S245      1.0  0.19586  0.69615  0.64760  1.0000
  Fe  Fe125     1.0  0.21116  0.73596  0.58066  1.0000
  S   S246      1.0  0.19569  0.75089  0.55398  1.0000
  S   S247      1.0  0.24414  0.71676  0.62311  1.0000
  S   S248      1.0  0.24347  0.74070  0.57911  1.0000
  C   C824      1.0  0.13015  0.76831  0.54341  1.0000
  C   C825      1.0  0.13503  0.75789  0.56139  1.0000
  C   C826      1.0  0.15493  0.75262  0.56500  1.0000
  C   C827      1.0  0.17027  0.75749  0.55055  1.0000
  C   C828      1.0  0.16536  0.76800  0.53259  1.0000
  C   C829      1.0  0.14547  0.77352  0.52908  1.0000
  H   H1392     1.0  0.12335  0.75374  0.57257  1.0000
  H   H1393     1.0  0.15841  0.74452  0.57885  1.0000
  H   H1394     1.0  0.17706  0.77187  0.52130  1.0000
  H   H1395     1.0  0.14203  0.78148  0.51516  1.0000
  C   C830      1.0  0.07644  0.87872  0.58191  1.0000
  C   C831      1.0  0.07138  0.86111  0.57657  1.0000
  C   C832      1.0  0.07208  0.85808  0.55663  1.0000
  C   C833      1.0  0.07738  0.87288  0.54189  1.0000
  C   C834      1.0  0.08247  0.89052  0.54721  1.0000
  C   C835      1.0  0.08230  0.89334  0.56718  1.0000
  H   H1396     1.0  0.06678  0.84978  0.58792  1.0000
  H   H1397     1.0  0.06805  0.84449  0.55267  1.0000
  H   H1398     1.0  0.08662  0.90198  0.53582  1.0000
  H   H1399     1.0  0.08626  0.90693  0.57116  1.0000
  C   C836      1.0  0.33375  0.68168  0.54728  1.0000
  C   C837      1.0  0.31890  0.69703  0.54312  1.0000
  C   C838      1.0  0.30050  0.69827  0.55481  1.0000
  C   C839      1.0  0.29692  0.68427  0.57094  1.0000
  C   C840      1.0  0.14663  0.99327  0.53243  1.0000
  H   H1400     1.0  0.23272  0.70299  0.67379  1.0000
  H   H1401     1.0  0.32157  0.70791  0.53067  1.0000
  H   H1402     1.0  0.28905  0.70988  0.55124  1.0000
  H   H1403     1.0  0.00738  0.93996  0.62202  1.0000
  H   H1404     1.0  0.04705  0.94958  0.60610  1.0000
  C   C841      1.0  0.00186  0.97899  0.64165  1.0000
  C   C842      1.0  0.20689  0.97981  0.63058  1.0000
  H   H1405     1.0  0.10950  0.83627  0.54445  1.0000
  H   H1406     1.0  0.28945  0.76498  0.55764  1.0000
  H   H1407     1.0  0.10826  0.93149  0.54660  1.0000
  H   H1408     1.0  0.04040  0.93102  0.56580  1.0000
  H   H1409     1.0  0.20980  0.68661  0.69860  1.0000
  C   C843      1.0  0.25112  0.78563  0.68219  1.0000
  C   C844      1.0  0.24424  0.76835  0.67805  1.0000
  C   C845      1.0  0.24339  0.76475  0.65847  1.0000
  C   C846      1.0  0.24959  0.77838  0.64292  1.0000
  C   C847      1.0  0.25685  0.79548  0.64703  1.0000
  C   C848      1.0  0.25759  0.79912  0.66661  1.0000
  H   H1410     1.0  0.23930  0.75782  0.69005  1.0000
  H   H1411     1.0  0.23775  0.75155  0.65542  1.0000
  H   H1412     1.0  0.26176  0.80603  0.63504  1.0000
  H   H1413     1.0  0.26319  0.81234  0.66967  1.0000
  C   C849      1.0  0.19368  0.88735  0.68578  1.0000
  C   C850      1.0  0.18060  0.87514  0.69687  1.0000
  C   C851      1.0  0.16054  0.87730  0.69351  1.0000
  C   C852      1.0  0.15331  0.89158  0.67899  1.0000
  C   C853      1.0  0.16650  0.90340  0.66750  1.0000
  C   C854      1.0  0.18655  0.90132  0.67095  1.0000
  H   H1414     1.0  0.18592  0.86411  0.70807  1.0000
  H   H1415     1.0  0.15047  0.86791  0.70223  1.0000
  H   H1416     1.0  0.16115  0.91438  0.65621  1.0000
  H   H1417     1.0  0.19660  0.91065  0.66219  1.0000
  C   C855      1.0  0.16839  0.96459  0.64535  1.0000
  H   H1418     1.0  0.11357  0.96193  0.53005  1.0000
  H   H1419     1.0  0.13007  0.98613  0.51032  1.0000
  Fe  Fe126     1.0  0.07948  0.83964  0.50670  1.0000
  H   H1420     1.0  0.19814  0.98094  0.59207  1.0000
  C   C856      1.0  0.03163  0.91744  0.62550  1.0000
  C   C857      1.0  0.03697  0.98322  0.63753  1.0000
  H   H1421     1.0  0.20575  0.95476  0.57080  1.0000
  H   H1422     1.0  0.23693  0.94399  0.61147  1.0000
  C   C858      1.0  0.20760  0.94378  0.62957  1.0000
  H   H1423     1.0  0.11462  0.95006  0.50027  1.0000
  H   H1424     1.0  0.30622  0.73859  0.63433  1.0000
  C   C859      1.0  0.14103  0.97271  0.58965  1.0000
  H   H1425     1.0  0.14602  0.88044  0.55549  1.0000
  C   C860      1.0  0.06086  0.75751  0.52617  1.0000
  H   H1426     1.0  0.02930  0.90163  0.62811  1.0000
  C   C861      1.0  0.21381  0.96185  0.50826  1.0000
  H   H1427     1.0  0.10169  0.80707  0.56582  1.0000
  C   C862      1.0  0.02867  0.90484  0.57980  1.0000
  H   H1428     1.0  0.23671  0.69744  0.72881  1.0000
  C   C863      1.0  0.12423  0.93266  0.54220  1.0000
  H   H1429     1.0  0.31452  0.75610  0.56025  1.0000
  H   H1430     1.0  0.22742  0.66980  0.68690  1.0000
  C   C864      1.0  0.21810  0.96934  0.52536  1.0000
  H   H1431     1.0  0.12372  0.80538  0.57750  1.0000
  H   H1432     1.0  0.05691  0.95700  0.57030  1.0000
  N   N58       1.0  0.14544  0.95854  0.52195  1.0000
  S   S249      1.0  0.26358  0.82304  0.74459  1.0000
  H   H1433     1.0  0.25346  0.69371  0.68677  1.0000
  H   H1434     1.0  0.34691  0.85926  0.73884  1.0000
  C   C865      1.0  0.12731  0.95440  0.53583  1.0000
  H   H1435     1.0  0.17230  0.97641  0.65328  1.0000
  C   C866      1.0  0.04491  0.96642  0.57800  1.0000
  N   N59       1.0  0.02367  0.93877  0.59312  1.0000
  H   H1436     1.0  0.16151  0.99042  0.53760  1.0000
  H   H1437     1.0  0.16842  0.97629  0.57136  1.0000
  C   C867      1.0  0.30644  0.70649  0.61756  1.0000
  H   H1438     1.0  0.23395  0.71068  0.69742  1.0000
  H   H1439     1.0  0.07402  0.75851  0.51524  1.0000
  H   H1440     1.0  0.04710  0.91845  0.61917  1.0000
  H   H1441     1.0  0.06360  0.70029  0.51596  1.0000
  H   H1442     1.0  0.12746  0.96100  0.54978  1.0000
  C   C868      1.0  0.33005  0.66760  0.56331  1.0000
  C   C869      1.0  0.20170  0.95037  0.58673  1.0000
  H   H1443     1.0  0.18530  0.92814  0.54117  1.0000
  C   C870      1.0  0.21147  0.98881  0.52911  1.0000
  H   H1444     1.0  0.12823  0.92307  0.53027  1.0000
  C   C871      1.0  0.15635  0.98331  0.58047  1.0000
  H   H1445     1.0  0.18985  0.66543  0.71398  1.0000
  C   C872      1.0  0.22991  0.93735  0.62561  1.0000
  S   S250      1.0  0.10914  0.82221  0.50393  1.0000
  C   C873      1.0  0.01590  0.92895  0.61285  1.0000
  H   H1446     1.0  0.13244  0.92677  0.55499  1.0000
  H   H1447     1.0  0.18011  0.92836  0.51636  1.0000
  H   H1448     1.0  0.13127  0.88351  0.57829  1.0000
  N   N60       1.0  0.19755  0.82816  0.66433  1.0000
  C   C874      1.0  0.21508  0.83554  0.67138  1.0000
  C   C875      1.0  0.18481  0.82051  0.68242  1.0000
  C   C876      1.0  0.18645  0.84531  0.65301  1.0000
  C   C877      1.0  0.20525  0.81231  0.65123  1.0000
  C   C878      1.0  0.22879  0.84668  0.65552  1.0000
  C   C879      1.0  0.19430  0.80268  0.69512  1.0000
  C   C880      1.0  0.16426  0.84436  0.65184  1.0000
  C   C881      1.0  0.18992  0.80139  0.64351  1.0000
  H   H1449     1.0  0.21012  0.84559  0.68292  1.0000
  H   H1450     1.0  0.22466  0.82330  0.67853  1.0000
  H   H1451     1.0  0.17084  0.81603  0.67871  1.0000
  H   H1452     1.0  0.18010  0.83242  0.69213  1.0000
  H   H1453     1.0  0.18709  0.85916  0.65962  1.0000
  H   H1454     1.0  0.19357  0.84782  0.63761  1.0000
  H   H1455     1.0  0.21424  0.81838  0.63784  1.0000
  H   H1456     1.0  0.21589  0.80116  0.65843  1.0000
  H   H1457     1.0  0.23583  0.83736  0.64404  1.0000
  H   H1458     1.0  0.22110  0.86037  0.64863  1.0000
  H   H1459     1.0  0.24094  0.85119  0.66274  1.0000
  H   H1460     1.0  0.19856  0.78979  0.68673  1.0000
  H   H1461     1.0  0.20723  0.80614  0.70178  1.0000
  H   H1462     1.0  0.18334  0.79816  0.70759  1.0000
  H   H1463     1.0  0.15556  0.84601  0.66636  1.0000
  H   H1464     1.0  0.16117  0.83081  0.64624  1.0000
  H   H1465     1.0  0.15868  0.85697  0.64160  1.0000
  H   H1466     1.0  0.18476  0.80940  0.62975  1.0000
  H   H1467     1.0  0.17713  0.79848  0.65440  1.0000
  H   H1468     1.0  0.19693  0.78658  0.64023  1.0000
  H   H1469     1.0  0.19134  0.86525  0.74176  1.0000
  C   C882      1.0  0.17777  0.96579  0.62373  1.0000
  C   C883      1.0  0.22657  0.68576  0.73230  1.0000
  H   H1470     1.0  0.05183  0.97873  0.58251  1.0000
  H   H1471     1.0  0.18102  0.66708  0.67745  1.0000
  H   H1472     1.0  0.22676  0.96003  0.53568  1.0000
  H   H1473     1.0  0.16585  0.83836  0.56548  1.0000
  C   C884      1.0  0.14438  0.98045  0.51605  1.0000
  H   H1474     1.0  0.19942  0.93219  0.62527  1.0000
  C   C885      1.0  0.25256  0.66337  0.71661  1.0000
  H   H1475     1.0  0.02521  0.95610  0.64879  1.0000
  H   H1476     1.0  0.21906  0.94689  0.50559  1.0000
  H   H1477     1.0  0.23221  0.92125  0.62471  1.0000
  H   H1478     1.0  0.17209  0.95003  0.65355  1.0000
  C   C886      1.0  0.02171  0.97124  0.64310  1.0000
  H   H1479     1.0  0.99973  0.76232  0.51959  1.0000
  H   H1480     1.0  0.26190  0.67569  0.71536  1.0000
  H   H1481     1.0  0.11316  0.97422  0.60791  1.0000
  H   H1482     1.0  0.16142  0.95517  0.54779  1.0000
  H   H1483     1.0  0.18597  0.94774  0.58839  1.0000
  H   H1484     1.0  0.17166  0.95427  0.61700  1.0000
  C   C887      1.0  0.23733  0.69793  0.68871  1.0000
  H   H1485     1.0  0.06237  0.74364  0.53610  1.0000
  H   H1486     1.0  0.15298  0.86647  0.57812  1.0000
  H   H1487     1.0  0.12242  0.84993  0.58199  1.0000
  H   H1488     1.0  0.15605  0.98391  0.50377  1.0000
  H   H1489     1.0  0.22167  0.96856  0.59469  1.0000
  H   H1490     1.0  0.15741  0.87010  0.73641  1.0000
  N   N61       1.0  0.30553  0.74271  0.60255  1.0000
  C   C888      1.0  0.29865  0.74857  0.62296  1.0000
  C   C889      1.0  0.29906  0.72270  0.60184  1.0000
  C   C890      1.0  0.29511  0.75735  0.58808  1.0000
  C   C891      1.0  0.32767  0.74292  0.59876  1.0000
  C   C892      1.0  0.30207  0.76951  0.62657  1.0000
  H   H1491     1.0  0.02985  0.75770  0.52949  1.0000
  C   C893      1.0  0.29911  0.75389  0.56621  1.0000
  C   C894      1.0  0.33875  0.72983  0.58323  1.0000
  H   H1492     1.0  0.28258  0.74712  0.62675  1.0000
  H   H1493     1.0  0.32237  0.70638  0.61897  1.0000
  H   H1494     1.0  0.30362  0.71718  0.58742  1.0000
  H   H1495     1.0  0.28266  0.72350  0.60333  1.0000
  H   H1496     1.0  0.27883  0.75804  0.59200  1.0000
  H   H1497     1.0  0.29907  0.77241  0.58865  1.0000
  H   H1498     1.0  0.33149  0.75819  0.59435  1.0000
  H   H1499     1.0  0.33452  0.73785  0.61265  1.0000
  H   H1500     1.0  0.18307  0.89924  0.72790  1.0000
  H   H1501     1.0  0.31759  0.77259  0.62235  1.0000
  H   H1502     1.0  0.29859  0.77110  0.64256  1.0000
  C   C895      1.0  0.20525  0.67173  0.65499  1.0000
  H   H1503     1.0  0.29774  0.70795  0.63210  1.0000
  H   H1504     1.0  0.21146  0.69356  0.73152  1.0000
  H   H1505     1.0  0.17156  0.98010  0.61643  1.0000
  H   H1506     1.0  0.29536  0.73939  0.56344  1.0000
  H   H1507     1.0  0.00057  0.97794  0.58751  1.0000
  H   H1508     1.0  0.35173  0.73701  0.57578  1.0000
  H   H1509     1.0  0.33016  0.72713  0.57141  1.0000
  H   H1510     1.0  0.34499  0.71555  0.59047  1.0000
  H   H1511     1.0  0.20438  0.94267  0.64589  1.0000
  C   C896      1.0  0.12540  0.98209  0.60125  1.0000
  C   C897      1.0  0.17322  0.93092  0.53144  1.0000
  H   H1512     1.0  0.05158  0.92083  0.58697  1.0000
  H   H1513     1.0  0.22921  0.99330  0.60885  1.0000
  C   C898      1.0  0.06371  0.71515  0.50768  1.0000
  H   H1514     1.0  0.29194  0.78082  0.61889  1.0000
  H   H1515     1.0  0.23789  0.94057  0.63781  1.0000
  C   C899      1.0  0.16394  0.95236  0.53205  1.0000
  H   H1516     1.0  0.15322  0.79908  0.55718  1.0000
  N   N62       1.0  0.23094  0.67090  0.71755  1.0000
  H   H1517     1.0  0.03625  0.72356  0.52481  1.0000
  H   H1518     1.0  0.23119  0.67165  0.63400  1.0000
  C   C900      1.0  0.03516  0.95510  0.59662  1.0000
  C   C901      1.0  0.14651  0.94888  0.50324  1.0000
  H   H1519     1.0  0.17606  0.80381  0.56435  1.0000
  C   C902      1.0  0.22564  0.68066  0.69779  1.0000
  H   H1520     1.0  0.16260  0.92010  0.53670  1.0000
  H   H1521     1.0  0.12829  0.81668  0.54096  1.0000
  H   H1522     1.0  0.12615  0.87726  0.53076  1.0000
  H   H1523     1.0  0.02572  0.96599  0.60513  1.0000
  H   H1524     1.0  0.11918  0.85741  0.51908  1.0000
  H   H1525     1.0  0.07423  0.72284  0.51410  1.0000
  H   H1526     1.0  0.16970  0.81352  0.54042  1.0000
  N   N63       1.0  0.13729  0.84056  0.55449  1.0000
  C   C903      1.0  0.14586  0.84931  0.53456  1.0000
  C   C904      1.0  0.15375  0.82908  0.56502  1.0000
  C   C905      1.0  0.12753  0.85633  0.56688  1.0000
  C   C906      1.0  0.12201  0.82752  0.55142  1.0000
  C   C907      1.0  0.13176  0.86426  0.52296  1.0000
  C   C908      1.0  0.16355  0.81042  0.55600  1.0000
  C   C909      1.0  0.14044  0.87247  0.56963  1.0000
  C   C910      1.0  0.11270  0.81590  0.57013  1.0000
  H   H1527     1.0  0.15931  0.85652  0.53571  1.0000
  H   H1528     1.0  0.15100  0.83758  0.52480  1.0000
  H   H1529     1.0  0.14855  0.82462  0.58072  1.0000
  H   H1530     1.0  0.23951  0.97321  0.62530  1.0000
  C   C911      1.0  0.00640  0.94677  0.58174  1.0000
  H   H1531     1.0  0.20605  0.97572  0.64681  1.0000
  H   H1532     1.0  0.03856  0.89657  0.56891  1.0000
  H   H1533     1.0  0.03014  0.92286  0.64023  1.0000
  C   C912      1.0  0.22323  0.66340  0.64617  1.0000
  H   H1534     1.0  0.20774  0.89477  0.73362  1.0000
  H   H1535     1.0  0.01144  0.95130  0.56603  1.0000
  C   C913      1.0  0.22791  0.98568  0.62404  1.0000
  H   H1536     1.0  0.00511  0.91863  0.61098  1.0000
  H   H1537     1.0  0.02839  0.89534  0.59403  1.0000
  S   S251      1.0  0.24617  0.86982  0.73926  1.0000
  S   S252      1.0  0.30649  0.85546  0.73419  1.0000
  H   H1538     1.0  0.01382  0.90698  0.57463  1.0000
  C   C914      1.0  0.19632  0.99328  0.49834  1.0000
  H   H1539     1.0  0.14272  0.90013  0.72636  1.0000
  H   H1540     1.0  0.03852  0.77583  0.51097  1.0000
  H   H1541     1.0  0.17228  0.82711  0.49563  1.0000
  H   H1542     1.0  0.03383  0.71667  0.50134  1.0000
  C   C915      1.0  0.04242  0.72557  0.50904  1.0000
  N   N64       1.0  0.03976  0.74701  0.50107  1.0000
  H   H1543     1.0  0.00346  0.73571  0.52018  1.0000
  C   C916      1.0  0.00185  0.74977  0.51056  1.0000
  H   H1544     1.0  0.15398  0.91061  0.74392  1.0000
  H   H1545     1.0  0.19685  0.99367  0.62848  1.0000
  H   H1546     1.0  0.38129  0.69367  0.49574  1.0000
  C   C917      1.0  0.29533  0.71938  0.97913  1.0000
  H   H1547     1.0  0.24535  0.79433  0.82855  1.0000
  H   H1548     1.0  0.34521  0.97561  0.96604  1.0000
  Fe  Fe127     1.0  0.41491  0.92962  0.79772  1.0000
  S   S253      1.0  0.42133  0.91422  0.82718  1.0000
  H   H1549     1.0  0.18223  0.73000  0.95488  1.0000
  S   S254      1.0  0.38025  0.89294  0.82834  1.0000
  Fe  Fe128     1.0  0.38896  0.92121  0.83563  1.0000
  H   H1550     1.0  0.02290  0.71614  0.91946  1.0000
  Fe  Fe129     1.0  0.41208  0.88749  0.81673  1.0000
  S   S255      1.0  0.43036  0.85820  0.82040  1.0000
  S   S256      1.0  0.16446  0.66493  0.97072  1.0000
  S   S257      1.0  0.40830  0.90192  0.78595  1.0000
  Fe  Fe130     1.0  0.38810  0.76921  0.95323  1.0000
  S   S258      1.0  0.39180  0.79819  0.93552  1.0000
  Fe  Fe131     1.0  0.35459  0.76082  0.92894  1.0000
  S   S259      1.0  0.35567  0.78953  0.90978  1.0000
  S   S260      1.0  0.33440  0.73714  0.92707  1.0000
  Fe  Fe132     1.0  0.38862  0.78321  0.90897  1.0000
  S   S261      1.0  0.40937  0.78464  0.88086  1.0000
  Fe  Fe133     1.0  0.35863  0.80208  0.93782  1.0000
  S   S262      1.0  0.34134  0.82942  0.94769  1.0000
  S   S263      1.0  0.38762  0.75342  0.92643  1.0000
  S   S264      1.0  0.35490  0.77401  0.95726  1.0000
  H   H1551     1.0  0.13081  0.66807  0.94861  1.0000
  H   H1552     1.0  0.33378  0.80233  0.98257  1.0000
  H   H1553     1.0  0.32722  0.85480  0.79987  1.0000
  H   H1554     1.0  0.30572  0.90290  0.78318  1.0000
  C   C918      1.0  0.22843  0.67763  0.75400  1.0000
  H   H1555     1.0  0.44434  0.81801  0.82332  1.0000
  H   H1556     1.0  0.29833  0.77207  0.77946  1.0000
  H   H1557     1.0  0.43611  0.78950  0.84674  1.0000
  S   S265      1.0  0.38261  0.93750  0.80662  1.0000
  H   H1558     1.0  0.36293  0.87900  0.75918  1.0000
  Fe  Fe134     1.0  0.20146  0.70697  0.87346  1.0000
  S   S266      1.0  0.20260  0.70023  0.84234  1.0000
  S   S267      1.0  0.17894  0.69597  0.89807  1.0000
  Fe  Fe135     1.0  0.24094  0.72522  0.86627  1.0000
  S   S268      1.0  0.24522  0.71908  0.83455  1.0000
  S   S269      1.0  0.26067  0.74558  0.87674  1.0000
  Fe  Fe136     1.0  0.21321  0.73004  0.83395  1.0000
  S   S270      1.0  0.20465  0.74720  0.80556  1.0000
  Fe  Fe137     1.0  0.23444  0.68976  0.84499  1.0000
  C   C919      1.0  0.44787  0.78939  0.99007  1.0000
  S   S271      1.0  0.20914  0.73798  0.86504  1.0000
  S   S272      1.0  0.23303  0.69471  0.87696  1.0000
  N   N65       1.0  0.45535  0.74992  0.92379  1.0000
  H   H1559     1.0  0.29305  0.74186  0.94781  1.0000
  C   C920      1.0  0.20816  0.77218  0.79971  1.0000
  C   C921      1.0  0.21233  0.77936  0.77987  1.0000
  C   C922      1.0  0.21563  0.79907  0.77457  1.0000
  C   C923      1.0  0.21416  0.81192  0.78905  1.0000
  C   C924      1.0  0.20950  0.80491  0.80889  1.0000
  C   C925      1.0  0.20680  0.78498  0.81426  1.0000
  H   H1560     1.0  0.21337  0.76953  0.76856  1.0000
  H   H1561     1.0  0.47203  0.86974  0.80445  1.0000
  H   H1562     1.0  0.20843  0.81477  0.82016  1.0000
  H   H1563     1.0  0.20342  0.77956  0.82958  1.0000
  H   H1564     1.0  0.21937  0.80424  0.75925  1.0000
  H   H1565     1.0  0.25579  0.76691  0.76907  1.0000
  C   C926      1.0  0.26342  0.75420  0.77766  1.0000
  H   H1566     1.0  0.26867  0.74329  0.80742  1.0000
  H   H1567     1.0  0.16964  0.82355  0.77209  1.0000
  C   C927      1.0  0.12526  0.69364  0.87865  1.0000
  C   C928      1.0  0.14464  0.69825  0.87955  1.0000
  C   C929      1.0  0.15563  0.68890  0.89455  1.0000
  H   H1568     1.0  0.20250  0.68268  0.96307  1.0000
  H   H1569     1.0  0.37327  0.79684  0.85301  1.0000
  H   H1570     1.0  0.11658  0.70148  0.86747  1.0000
  H   H1571     1.0  0.15070  0.70961  0.86915  1.0000
  H   H1572     1.0  0.37591  0.80440  0.81796  1.0000
  H   H1573     1.0  0.31366  0.77139  0.81983  1.0000
  H   H1574     1.0  0.33829  0.86684  0.84876  1.0000
  C   C930      1.0  0.31467  0.73943  0.91205  1.0000
  C   C931      1.0  0.30784  0.75750  0.90234  1.0000
  C   C932      1.0  0.29137  0.75898  0.89158  1.0000
  C   C933      1.0  0.28161  0.74244  0.89020  1.0000
  C   C934      1.0  0.28846  0.72433  0.89987  1.0000
  C   C935      1.0  0.30483  0.72289  0.91082  1.0000
  H   H1575     1.0  0.31508  0.77039  0.90333  1.0000
  H   H1576     1.0  0.28611  0.77308  0.88429  1.0000
  H   H1577     1.0  0.28112  0.71148  0.89898  1.0000
  H   H1578     1.0  0.30993  0.70886  0.91836  1.0000
  C   C936      1.0  0.32793  0.83906  0.79769  1.0000
  H   H1579     1.0  0.26961  0.79229  0.77671  1.0000
  C   C937      1.0  0.31480  0.89324  0.77365  1.0000
  C   C938      1.0  0.42323  0.83866  0.83783  1.0000
  C   C939      1.0  0.40855  0.84105  0.85374  1.0000
  C   C940      1.0  0.40403  0.82470  0.86739  1.0000
  C   C941      1.0  0.41402  0.80602  0.86488  1.0000
  C   C942      1.0  0.42838  0.80383  0.84884  1.0000
  C   C943      1.0  0.43303  0.82001  0.83553  1.0000
  H   H1580     1.0  0.40098  0.85546  0.85572  1.0000
  H   H1581     1.0  0.39292  0.82653  0.87979  1.0000
  H   H1582     1.0  0.31787  0.98470  0.83371  1.0000
  H   H1583     1.0  0.22567  0.68998  0.76332  1.0000
  C   C944      1.0  0.38629  0.86920  0.95871  1.0000
  C   C945      1.0  0.38977  0.85836  0.94250  1.0000
  C   C946      1.0  0.37555  0.84676  0.93864  1.0000
  C   C947      1.0  0.35790  0.84589  0.95104  1.0000
  C   C948      1.0  0.35419  0.85712  0.96700  1.0000
  C   C949      1.0  0.36844  0.86872  0.97090  1.0000
  H   H1584     1.0  0.40346  0.85889  0.93293  1.0000
  H   H1585     1.0  0.37818  0.83860  0.92594  1.0000
  H   H1586     1.0  0.34055  0.85643  0.97665  1.0000
  H   H1587     1.0  0.28915  0.78240  0.96323  1.0000
  H   H1588     1.0  0.43688  0.71252  0.90317  1.0000
  H   H1589     1.0  0.44971  0.94968  0.82080  1.0000
  H   H1590     1.0  0.28972  0.88313  0.76289  1.0000
  H   H1591     1.0  0.45021  0.76803  0.89632  1.0000
  H   H1592     1.0  0.23839  0.67504  0.92141  1.0000
  H   H1593     1.0  0.36139  0.97391  0.81807  1.0000
  H   H1594     1.0  0.00862  0.68152  0.87560  1.0000
  H   H1595     1.0  0.34863  0.80462  0.84769  1.0000
  S   S273      1.0  0.43336  0.95401  0.78242  1.0000
  S   S274      1.0  0.37806  0.93682  0.86214  1.0000
  C   C950      1.0  0.16475  0.88961  0.77872  1.0000
  H   H1596     1.0  0.24739  0.76038  0.80512  1.0000
  H   H1597     1.0  0.25017  0.79439  0.79526  1.0000
  H   H1598     1.0  0.14284  0.90260  0.80036  1.0000
  H   H1599     1.0  0.38649  0.82227  0.82869  1.0000
  H   H1600     1.0  0.44273  0.89169  0.98338  1.0000
  H   H1601     1.0  0.31515  0.76238  0.98085  1.0000
  C   C951      1.0  0.25190  0.78006  0.83536  1.0000
  C   C952      1.0  0.12839  0.66917  0.90662  1.0000
  C   C953      1.0  0.27393  0.81177  0.79720  1.0000
  H   H1602     1.0  0.43684  0.79876  0.90957  1.0000
  H   H1603     1.0  0.33670  0.97079  0.84682  1.0000
  H   H1604     1.0  0.24187  0.76857  0.83540  1.0000
  H   H1605     1.0  0.46591  0.91612  0.82614  1.0000
  H   H1606     1.0  0.27795  0.75923  0.83300  1.0000
  H   H1607     1.0  0.37042  0.97839  0.91239  1.0000
  H   H1608     1.0  0.15578  0.66696  0.91968  1.0000
  C   C954      1.0  0.45284  0.96443  0.79138  1.0000
  H   H1609     1.0  0.39702  0.85057  0.78020  1.0000
  H   H1610     1.0  0.26190  0.82396  0.79547  1.0000
  C   C955      1.0  0.48582  0.97988  0.80344  1.0000
  H   H1611     1.0  0.13221  0.88962  0.78394  1.0000
  H   H1612     1.0  0.19419  0.72989  0.91031  1.0000
  H   H1613     1.0  0.28681  0.81550  0.78658  1.0000
  H   H1614     1.0  0.25274  0.78188  0.85106  1.0000
  H   H1615     1.0  0.37271  0.82510  0.78665  1.0000
  C   C956      1.0  0.17221  0.83729  0.76236  1.0000
  H   H1616     1.0  0.39139  0.85657  0.80491  1.0000
  C   C957      1.0  0.27686  0.71126  0.97368  1.0000
  S   S275      1.0  0.21922  0.83643  0.78258  1.0000
  H   H1617     1.0  0.40649  0.95312  0.83246  1.0000
  C   C958      1.0  0.47623  0.75450  0.92457  1.0000
  H   H1618     1.0  0.17779  0.66375  0.86653  1.0000
  N   N66       1.0  0.16796  0.87508  0.76360  1.0000
  C   C959      1.0  0.37269  0.97661  0.86433  1.0000
  C   C960      1.0  0.27285  0.77396  0.82564  1.0000
  H   H1619     1.0  0.27406  0.71611  0.95819  1.0000
  C   C961      1.0  0.34701  0.87974  0.76029  1.0000
  H   H1620     1.0  0.45162  0.86615  0.77807  1.0000
  C   C962      1.0  0.39993  0.98426  0.83139  1.0000
  H   H1621     1.0  0.17694  0.88702  0.78843  1.0000
  H   H1622     1.0  0.42867  0.76548  0.91313  1.0000
  C   C963      1.0  0.37214  0.81731  0.82654  1.0000
  H   H1623     1.0  0.27854  0.75058  0.77048  1.0000
  H   H1624     1.0  0.46278  0.73264  0.96685  1.0000
  H   H1625     1.0  0.20507  0.68812  0.92920  1.0000
  Fe  Fe138     1.0  0.23502  0.84109  0.75197  1.0000
  H   H1626     1.0  0.22762  0.73282  0.93342  1.0000
  C   C964      1.0  0.46487  0.87431  0.77484  1.0000
  H   H1627     1.0  0.17414  0.74362  0.92275  1.0000
  H   H1628     1.0  0.21727  0.66741  0.75965  1.0000
  H   H1629     1.0  0.23838  0.71622  0.95186  1.0000
  H   H1630     1.0  0.17840  0.85264  0.78610  1.0000
  H   H1631     1.0  0.02864  0.70757  0.89604  1.0000
  H   H1632     1.0  0.48190  0.76245  0.91029  1.0000
  C   C965      1.0  0.26653  0.79263  0.79291  1.0000
  C   C966      1.0  0.36338  0.80971  0.84735  1.0000
  C   C967      1.0  0.46387  0.97750  0.77848  1.0000
  C   C968      1.0  0.31200  0.77781  0.80442  1.0000
  N   N67       1.0  0.00825  0.69082  0.91603  1.0000
  C   C969      1.0  0.47647  0.84106  0.97904  1.0000
  H   H1633     1.0  0.03403  0.67920  0.88139  1.0000
  H   H1634     1.0  0.33125  0.82273  0.82600  1.0000
  H   H1635     1.0  0.32593  0.97019  0.79453  1.0000
  C   C970      1.0  0.44466  0.76719  0.91230  1.0000
  C   C971      1.0  0.22418  0.72457  0.94816  1.0000
  H   H1636     1.0  0.34404  0.81115  0.80599  1.0000
  H   H1637     1.0  0.42827  0.74777  0.94369  1.0000
  C   C972      1.0  0.47389  0.90130  0.82887  1.0000
  H   H1638     1.0  0.13894  0.87075  0.75668  1.0000
  H   H1639     1.0  0.46121  0.84285  0.97500  1.0000
  H   H1640     1.0  0.36906  0.85314  0.83362  1.0000
  H   H1641     1.0  0.28246  0.78402  0.83020  1.0000
  H   H1642     1.0  0.15302  0.85297  0.78312  1.0000
  H   H1643     1.0  0.32649  0.77448  0.79573  1.0000
  H   H1644     1.0  0.41019  0.98707  0.81839  1.0000
  Fe  Fe139     1.0  0.37636  0.90850  0.79811  1.0000
  H   H1645     1.0  0.32483  0.74215  0.96803  1.0000
  S   S276      1.0  0.40415  0.75720  0.98033  1.0000
  H   H1646     1.0  0.27756  0.81164  0.81243  1.0000
  H   H1647     1.0  0.43925  0.78867  0.93434  1.0000
  C   C973      1.0  0.26321  0.75756  0.79950  1.0000
  H   H1648     1.0  0.42694  0.79095  0.96858  1.0000
  H   H1649     1.0  0.46196  0.88570  0.76253  1.0000
  C   C974      1.0  0.39768  0.96495  0.83928  1.0000
  C   C975      1.0  0.35612  0.85171  0.82574  1.0000
  N   N68       1.0  0.27484  0.77364  0.80355  1.0000
  H   H1650     1.0  0.21791  0.70742  0.91626  1.0000
  C   C976      1.0  0.33553  0.89222  0.77283  1.0000
  N   N69       1.0  0.20892  0.71079  0.94721  1.0000
  C   C977      1.0  0.45816  0.95946  0.81055  1.0000
  S   S277      1.0  0.34610  0.90722  0.78737  1.0000
  C   C978      1.0  0.23627  0.68585  0.93242  1.0000
  N   N70       1.0  0.48400  0.89686  0.79195  1.0000
  C   C979      1.0  0.29613  0.76838  0.79575  1.0000
  H   H1651     1.0  0.36155  0.97376  0.87654  1.0000
  C   C980      1.0  0.34076  0.82565  0.81197  1.0000
  C   C981      1.0  0.31463  0.74637  0.98105  1.0000
  H   H1652     1.0  0.45385  0.88981  0.79982  1.0000
  N   N71       1.0  0.39301  0.93514  0.92362  1.0000
  C   C982      1.0  0.38942  0.91618  0.91627  1.0000
  C   C983      1.0  0.37862  0.93786  0.94169  1.0000
  C   C984      1.0  0.41381  0.93274  0.92928  1.0000
  C   C985      1.0  0.39018  0.95156  0.90728  1.0000
  C   C986      1.0  0.40495  0.90824  0.90019  1.0000
  C   C987      1.0  0.35660  0.93886  0.93860  1.0000
  C   C988      1.0  0.42047  0.94982  0.93848  1.0000
  C   C989      1.0  0.38622  0.97277  0.91309  1.0000
  H   H1653     1.0  0.38834  0.90421  0.92864  1.0000
  H   H1654     1.0  0.37500  0.91776  0.90999  1.0000
  H   H1655     1.0  0.38030  0.95123  0.94841  1.0000
  H   H1656     1.0  0.38167  0.92561  0.95338  1.0000
  H   H1657     1.0  0.41608  0.91932  0.93989  1.0000
  H   H1658     1.0  0.42472  0.93054  0.91621  1.0000
  H   H1659     1.0  0.40304  0.95105  0.89577  1.0000
  H   H1660     1.0  0.37725  0.94949  0.89974  1.0000
  H   H1661     1.0  0.39893  0.89655  0.89363  1.0000
  H   H1662     1.0  0.40864  0.91972  0.88804  1.0000
  H   H1663     1.0  0.41857  0.90138  0.90656  1.0000
  H   H1664     1.0  0.35255  0.92439  0.93590  1.0000
  H   H1665     1.0  0.34748  0.94292  0.95227  1.0000
  H   H1666     1.0  0.35249  0.95015  0.92648  1.0000
  H   H1667     1.0  0.42213  0.96281  0.92747  1.0000
  H   H1668     1.0  0.43532  0.94518  0.94339  1.0000
  H   H1669     1.0  0.41078  0.95390  0.95175  1.0000
  H   H1670     1.0  0.48793  0.72719  0.94191  1.0000
  H   H1671     1.0  0.43867  0.85933  0.99250  1.0000
  H   H1672     1.0  0.14552  0.87645  0.80359  1.0000
  H   H1673     1.0  0.31260  0.83491  0.79990  1.0000
  H   H1674     1.0  0.46317  0.73497  0.89761  1.0000
  H   H1675     1.0  0.46154  0.92140  0.79426  1.0000
  C   C990      1.0  0.38005  0.98953  0.78256  1.0000
  H   H1676     1.0  0.36176  0.81635  0.98319  1.0000
  C   C991      1.0  0.45116  0.72932  0.95817  1.0000
  C   C992      1.0  0.49198  0.73698  0.92848  1.0000
  H   H1677     1.0  0.36311  0.82081  0.85780  1.0000
  H   H1678     1.0  0.36571  0.87699  0.98352  1.0000
  H   H1679     1.0  0.28561  0.77733  0.93912  1.0000
  C   C993      1.0  0.42318  0.76660  0.99082  1.0000
  H   H1680     1.0  0.35146  0.96435  0.78824  1.0000
  H   H1681     1.0  0.32385  0.85664  0.83354  1.0000
  C   C994      1.0  0.02582  0.70245  0.91201  1.0000
  H   H1682     1.0  0.47238  0.93738  0.75846  1.0000
  H   H1683     1.0  0.47903  0.96235  0.83102  1.0000
  C   C995      1.0  0.31712  0.86972  0.74943  1.0000
  H   H1684     1.0  0.30929  0.77108  0.94756  1.0000
  C   C996      1.0  0.11693  0.67926  0.89235  1.0000
  H   H1685     1.0  0.26475  0.74303  0.99486  1.0000
  C   C997      1.0  0.18947  0.73670  0.92411  1.0000
  C   C998      1.0  0.37093  0.83798  0.79532  1.0000
  H   H1686     1.0  0.30908  0.79394  0.80379  1.0000
  H   H1687     1.0  0.21104  0.67077  0.81834  1.0000
  H   H1688     1.0  0.18792  0.83541  0.75625  1.0000
  H   H1689     1.0  0.33650  0.84107  0.85213  1.0000
  S   S278      1.0  0.09192  0.67494  0.89194  1.0000
  C   C999      1.0  0.38352  0.96103  0.85523  1.0000
  N   N72       1.0  0.35965  0.83334  0.81529  1.0000
  C   C1000     1.0  0.47562  0.91743  0.78514  1.0000
  H   H1690     1.0  0.24334  0.67021  0.75628  1.0000
  C   C1001     1.0  0.43208  0.78312  0.98190  1.0000
  C   C1002     1.0  0.47469  0.96688  0.81640  1.0000
  Fe  Fe140     1.0  0.39286  0.90118  0.98827  1.0000
  C   C1003     1.0  0.21904  0.73953  0.96333  1.0000
  C   C1004     1.0  0.45539  0.73229  0.91274  1.0000
  H   H1691     1.0  0.46510  0.90193  0.97437  1.0000
  H   H1692     1.0  0.32919  0.96109  0.82644  1.0000
  H   H1693     1.0  0.17870  0.71089  0.94100  1.0000
  C   C1005     1.0  0.49047  0.89702  0.81219  1.0000
  C   C1006     1.0  0.43490  0.72622  0.91051  1.0000
  H   H1694     1.0  0.45486  0.80193  0.98273  1.0000
  H   H1695     1.0  0.24867  0.69511  0.92890  1.0000
  C   C1007     1.0  0.01237  0.67168  0.90699  1.0000
  H   H1696     1.0  0.19860  0.74869  0.92508  1.0000
  C   C1008     1.0  0.14512  0.88936  0.79227  1.0000
  C   C1009     1.0  0.33786  0.86861  0.74869  1.0000
  C   C1010     1.0  0.21615  0.69830  0.93067  1.0000
  C   C1011     1.0  0.16773  0.85483  0.77480  1.0000
  C   C1012     1.0  0.44447  0.74742  0.94417  1.0000
  H   H1697     1.0  0.36266  0.85006  0.78648  1.0000
  H   H1698     1.0  0.46380  0.71906  0.91961  1.0000
  H   H1699     1.0  0.46008  0.98137  0.76357  1.0000
  C   C1013     1.0  0.15219  0.87785  0.74965  1.0000
  S   S279      1.0  0.40445  0.88316  0.96365  1.0000
  H   H1700     1.0  0.30798  0.71416  0.96856  1.0000
  H   H1701     1.0  0.29821  0.71166  0.99386  1.0000
  H   H1702     1.0  0.46097  0.79189  0.91690  1.0000
  H   H1703     1.0  0.48563  0.85082  0.96869  1.0000
  H   H1704     1.0  0.42635  0.73741  0.90098  1.0000
  H   H1705     1.0  0.47738  0.86353  0.77016  1.0000
  H   H1706     1.0  0.22065  0.69374  0.97287  1.0000
  H   H1707     1.0  0.35477  0.86514  0.81497  1.0000
  C   C1014     1.0  0.39162  0.84467  0.79539  1.0000
  H   H1708     1.0  0.00532  0.69880  0.94609  1.0000
  H   H1709     1.0  0.30027  0.75222  0.79836  1.0000
  H   H1710     1.0  0.48518  0.92860  0.78788  1.0000
  C   C1015     1.0  0.33762  0.85383  0.84085  1.0000
  H   H1711     1.0  0.39459  0.98267  0.90206  1.0000
  C   C1016     1.0  0.18925  0.72161  0.94264  1.0000
  H   H1712     1.0  0.44567  0.76023  0.95212  1.0000
  C   C1017     1.0  0.35369  0.98690  0.95817  1.0000
  H   H1713     1.0  0.33361  0.83727  0.78211  1.0000
  C   C1018     1.0  0.45896  0.88803  0.98057  1.0000
  S   S280      1.0  0.41012  0.92548  0.99221  1.0000
  H   H1714     1.0  0.01471  0.67428  0.94382  1.0000
  C   C1019     1.0  0.37256  0.80679  0.99178  1.0000
  C   C1020     1.0  0.29320  0.77164  0.95238  1.0000
  C   C1021     1.0  0.20648  0.69711  0.96613  1.0000
  H   H1715     1.0  0.45619  0.71599  0.95080  1.0000
  H   H1716     1.0  0.42621  0.72302  0.92498  1.0000
  H   H1717     1.0  0.34887  0.98844  0.75665  1.0000
  H   H1718     1.0  0.45533  0.91909  0.76242  1.0000
  H   H1719     1.0  0.47666  0.76458  0.93599  1.0000
  C   C1022     1.0  0.14746  0.67423  0.90795  1.0000
  H   H1720     1.0  0.16548  0.90491  0.77194  1.0000
  S   S281      1.0  0.38250  0.97404  0.98379  1.0000
  H   H1721     1.0  0.05709  0.70172  0.91521  1.0000
  H   H1722     1.0  0.20496  0.74878  0.96118  1.0000
  N   N73       1.0  0.29413  0.74140  0.97923  1.0000
  H   H1723     1.0  0.37687  0.79361  0.98372  1.0000
  C   C1023     1.0  0.34833  0.98502  0.81865  1.0000
  C   C1024     1.0  0.28718  0.75096  0.95994  1.0000
  H   H1724     1.0  0.26551  0.77709  0.99001  1.0000
  H   H1725     1.0  0.27945  0.69496  0.97499  1.0000
  H   H1726     1.0  0.40257  0.83226  0.79990  1.0000
  H   H1727     1.0  0.20754  0.66316  0.89162  1.0000
  H   H1728     1.0  0.43830  0.72529  0.96871  1.0000
  H   H1729     1.0  0.05032  0.67863  0.91099  1.0000
  H   H1730     1.0  0.19980  0.87268  0.76285  1.0000
  C   C1025     1.0  0.39064  0.81841  0.98982  1.0000
  C   C1026     1.0  0.47081  0.92167  0.76358  1.0000
  H   H1731     1.0  0.27081  0.75177  0.96054  1.0000
  H   H1732     1.0  0.39639  0.82066  0.97399  1.0000
  C   C1027     1.0  0.30565  0.88203  0.76214  1.0000
  S   S282      1.0  0.36307  0.91846  0.99258  1.0000
  C   C1028     1.0  0.01961  0.67309  0.88477  1.0000
  H   H1733     1.0  0.23733  0.67747  0.94710  1.0000
  H   H1734     1.0  0.46217  0.87779  0.96916  1.0000
  C   C1029     1.0  0.46841  0.88279  0.79373  1.0000
  C   C1030     1.0  0.48018  0.98517  0.78442  1.0000
  H   H1735     1.0  0.12943  0.90319  0.74965  1.0000
  H   H1736     1.0  0.39035  0.97481  0.92762  1.0000
  H   H1737     1.0  0.21863  0.73216  0.97859  1.0000
  H   H1738     1.0  0.46328  0.89006  0.83142  1.0000
  C   C1031     1.0  0.33184  0.97494  0.83189  1.0000
  H   H1739     1.0  0.48091  0.91345  0.75300  1.0000
  H   H1740     1.0  0.19048  0.90836  0.74947  1.0000
  C   C1032     1.0  0.44572  0.78763  0.91892  1.0000
  H   H1741     1.0  0.25504  0.74150  0.77695  1.0000
  H   H1742     1.0  0.37803  0.97929  0.77190  1.0000
  H   H1743     1.0  0.04406  0.68759  0.93495  1.0000
  H   H1744     1.0  0.23081  0.74955  0.96158  1.0000
  H   H1745     1.0  0.49532  0.72834  0.91564  1.0000
  H   H1746     1.0  0.26346  0.71499  0.98377  1.0000
  H   H1747     1.0  0.48058  0.90099  0.84285  1.0000
  C   C1033     1.0  0.04526  0.69176  0.91880  1.0000
  H   H1748     1.0  0.48200  0.82556  0.97691  1.0000
  C   C1034     1.0  0.00373  0.68613  0.93803  1.0000
  C   C1035     1.0  0.37221  0.98908  0.96374  1.0000
  C   C1036     1.0  0.19034  0.70354  0.98247  1.0000
  C   C1037     1.0  0.18822  0.87627  0.75251  1.0000
  H   H1749     1.0  0.17536  0.70324  0.97797  1.0000
  H   H1750     1.0  0.99895  0.66372  0.90907  1.0000
  H   H1751     1.0  0.38652  0.83329  0.99459  1.0000
  C   C1038     1.0  0.33946  0.97668  0.78741  1.0000
  H   H1752     1.0  0.16255  0.83835  0.75038  1.0000
  H   H1753     1.0  0.33389  0.96869  0.75913  1.0000
  H   H1754     1.0  0.38584  0.98106  0.79571  1.0000
  H   H1755     1.0  0.19156  0.71820  0.98680  1.0000
  C   C1039     1.0  0.33608  0.98221  0.76555  1.0000
  N   N74       1.0  0.34366  0.99323  0.79822  1.0000
  H   H1756     1.0  0.32255  0.99253  0.76389  1.0000
  H   H1757     1.0  0.02354  0.66156  0.91468  1.0000
  S   S283      1.0  0.24930  0.66157  0.83333  1.0000
  Fe  Fe141     1.0  0.66332  0.02475  0.13173  1.0000
  S   S284      1.0  0.64181  0.03138  0.15795  1.0000
  N   N75       1.0  0.82222  0.29045  0.16672  1.0000
  Fe  Fe142     1.0  0.65222  0.06397  0.10792  1.0000
  S   S285      1.0  0.62940  0.07322  0.13211  1.0000
  S   S286      1.0  0.66153  0.08087  0.07853  1.0000
  Fe  Fe143     1.0  0.65301  0.06147  0.15220  1.0000
  S   S287      1.0  0.66151  0.08038  0.17446  1.0000
  Fe  Fe144     1.0  0.62051  0.04218  0.13530  1.0000
  S   S288      1.0  0.58927  0.03461  0.13209  1.0000
  S   S289      1.0  0.67595  0.05351  0.12769  1.0000
  S   S290      1.0  0.64191  0.03426  0.10941  1.0000
  Fe  Fe145     1.0  0.63310  0.18248  0.02519  1.0000
  S   S291      1.0  0.62259  0.21410  0.01618  1.0000
  S   S292      1.0  0.62253  0.16709  0.05484  1.0000
  H   H1758     1.0  0.65332  0.11758  0.01449  1.0000
  H   H1759     1.0  0.52731  0.21702  0.01397  1.0000
  H   H1760     1.0  0.65555  0.99696  0.08316  1.0000
  C   C1040     1.0  0.84117  0.27300  0.19583  1.0000
  C   C1041     1.0  0.83295  0.32349  0.14903  1.0000
  H   H1761     1.0  0.84611  0.29808  0.00296  1.0000
  C   C1042     1.0  0.67476  0.10174  0.99561  1.0000
  C   C1043     1.0  0.56982  0.16815  0.99940  1.0000
  Fe  Fe146     1.0  0.76403  0.11561  0.20453  1.0000
  S   S293      1.0  0.76318  0.14860  0.19930  1.0000
  S   S294      1.0  0.74936  0.09748  0.18551  1.0000
  H   H1762     1.0  0.75566  0.25152  0.15337  1.0000
  H   H1763     1.0  0.68234  0.09345  0.00788  1.0000
  H   H1764     1.0  0.79600  0.27270  0.19569  1.0000
  H   H1765     1.0  0.69762  0.16185  0.09677  1.0000
  Fe  Fe147     1.0  0.79611  0.14359  0.19926  1.0000
  S   S295      1.0  0.81656  0.16468  0.18223  1.0000
  S   S296      1.0  0.79756  0.11053  0.20251  1.0000
  H   H1766     1.0  0.84690  0.32294  0.15583  1.0000
  Fe  Fe148     1.0  0.77548  0.27399  0.09364  1.0000
  S   S297      1.0  0.80734  0.26256  0.09460  1.0000
  S   S298      1.0  0.76098  0.29031  0.11913  1.0000
  Fe  Fe149     1.0  0.77196  0.25703  0.05463  1.0000
  S   S299      1.0  0.80413  0.24521  0.05282  1.0000
  S   S300      1.0  0.75686  0.25135  0.02800  1.0000
  Fe  Fe150     1.0  0.79789  0.23526  0.08515  1.0000
  S   S301      1.0  0.80451  0.20312  0.09555  1.0000
  Fe  Fe151     1.0  0.81046  0.27373  0.06234  1.0000
  S   S302      1.0  0.82996  0.29720  0.04779  1.0000
  S   S303      1.0  0.76562  0.24583  0.08659  1.0000
  S   S304      1.0  0.77867  0.28637  0.06185  1.0000
  H   H1767     1.0  0.53202  0.17535  0.03660  1.0000
  H   H1768     1.0  0.75320  0.31457  0.15087  1.0000
  S   S305      1.0  0.92317  0.29908  0.02776  1.0000
  H   H1769     1.0  0.99088  0.28839  0.02144  1.0000
  S   S306      1.0  0.68197  0.99587  0.12975  1.0000
  H   H1770     1.0  0.69019  0.03349  0.06192  1.0000
  H   H1771     1.0  0.73303  0.32587  0.08614  1.0000
  H   H1772     1.0  0.66135  0.07324  0.02359  1.0000
  C   C1044     1.0  0.76492  0.32034  0.14066  1.0000
  H   H1773     1.0  0.94579  0.23513  0.02795  1.0000
  Fe  Fe152     1.0  0.93762  0.32634  0.01406  1.0000
  C   C1045     1.0  0.77175  0.31112  0.12365  1.0000
  H   H1774     1.0  0.61794  0.07046  0.04050  1.0000
  S   S307      1.0  0.67081  0.24262  0.00646  1.0000
  H   H1775     1.0  0.75908  0.32095  0.08132  1.0000
  C   C1046     1.0  0.52821  0.15368  0.01743  1.0000
  C   C1047     1.0  0.65508  0.00572  0.06850  1.0000
  C   C1048     1.0  0.85602  0.29749  0.04393  1.0000
  C   C1049     1.0  0.86918  0.28077  0.04797  1.0000
  C   C1050     1.0  0.88970  0.28152  0.04312  1.0000
  C   C1051     1.0  0.89728  0.29899  0.03439  1.0000
  C   C1052     1.0  0.88412  0.31579  0.03083  1.0000
  C   C1053     1.0  0.86363  0.31499  0.03548  1.0000
  H   H1776     1.0  0.86354  0.26718  0.05444  1.0000
  H   H1777     1.0  0.89972  0.26845  0.04607  1.0000
  H   H1778     1.0  0.78784  0.27435  0.15759  1.0000
  H   H1779     1.0  0.73653  0.21661  0.02777  1.0000
  C   C1054     1.0  0.81145  0.17620  0.15879  1.0000
  C   C1055     1.0  0.80063  0.16752  0.14687  1.0000
  C   C1056     1.0  0.79800  0.17632  0.12770  1.0000
  C   C1057     1.0  0.80556  0.19417  0.12058  1.0000
  C   C1058     1.0  0.81552  0.20339  0.13288  1.0000
  C   C1059     1.0  0.81872  0.19425  0.15184  1.0000
  H   H1780     1.0  0.79508  0.15357  0.15207  1.0000
  H   H1781     1.0  0.79051  0.16901  0.11815  1.0000
  H   H1782     1.0  0.82172  0.21694  0.12736  1.0000
  H   H1783     1.0  0.82723  0.20093  0.16097  1.0000
  H   H1784     1.0  0.55702  0.02078  0.11642  1.0000
  H   H1785     1.0  0.70513  0.00463  0.02608  1.0000
  C   C1060     1.0  0.78681  0.31876  0.11045  1.0000
  H   H1786     1.0  0.51492  0.15171  0.02813  1.0000
  C   C1061     1.0  0.79376  0.28880  0.19559  1.0000
  H   H1787     1.0  0.69896  0.03077  0.02680  1.0000
  H   H1788     1.0  0.62279  0.13000  0.02344  1.0000
  H   H1789     1.0  0.80161  0.25358  0.14736  1.0000
  C   C1062     1.0  0.69378  0.24382  0.01580  1.0000
  C   C1063     1.0  0.70714  0.22723  0.02001  1.0000
  C   C1064     1.0  0.72600  0.22941  0.02542  1.0000
  C   C1065     1.0  0.73158  0.24812  0.02705  1.0000
  C   C1066     1.0  0.71799  0.26455  0.02325  1.0000
  H   H1790     1.0  0.75108  0.21571  0.22557  1.0000
  N   N76       1.0  0.55322  0.17999  0.01070  1.0000
  C   C1067     1.0  0.83951  0.28947  0.17865  1.0000
  H   H1791     1.0  0.82784  0.27295  0.20653  1.0000
  H   H1792     1.0  0.83943  0.29520  0.13818  1.0000
  H   H1793     1.0  0.61429  0.11085  0.99763  1.0000
  C   C1068     1.0  0.68604  0.08486  0.17756  1.0000
  C   C1069     1.0  0.70265  0.07593  0.16687  1.0000
  C   C1070     1.0  0.72178  0.08007  0.16951  1.0000
  C   C1071     1.0  0.72469  0.09313  0.18289  1.0000
  C   C1072     1.0  0.70808  0.10221  0.19348  1.0000
  C   C1073     1.0  0.68891  0.09809  0.19081  1.0000
  H   H1794     1.0  0.70083  0.06566  0.15670  1.0000
  H   H1795     1.0  0.73447  0.07293  0.16124  1.0000
  H   H1796     1.0  0.71002  0.11227  0.20384  1.0000
  H   H1797     1.0  0.67622  0.10510  0.19918  1.0000
  C   C1074     1.0  0.65175  0.10554  0.07350  1.0000
  C   C1075     1.0  0.66037  0.11709  0.05725  1.0000
  C   C1076     1.0  0.65172  0.13613  0.05159  1.0000
  C   C1077     1.0  0.63453  0.14383  0.06233  1.0000
  C   C1078     1.0  0.62639  0.13259  0.07905  1.0000
  C   C1079     1.0  0.63493  0.11347  0.08460  1.0000
  H   H1798     1.0  0.67350  0.11110  0.04871  1.0000
  H   H1799     1.0  0.65820  0.14475  0.03878  1.0000
  H   H1800     1.0  0.61312  0.13850  0.08746  1.0000
  H   H1801     1.0  0.62812  0.10469  0.09710  1.0000
  H   H1802     1.0  0.68796  0.14990  0.07923  1.0000
  H   H1803     1.0  0.73253  0.23591  0.22288  1.0000
  C   C1080     1.0  0.52276  0.20543  0.00615  1.0000
  H   H1804     1.0  0.51267  0.19638  0.01617  1.0000
  C   C1081     1.0  0.80224  0.26912  0.14976  1.0000
  H   H1805     1.0  0.79910  0.25920  0.01351  1.0000
  N   N77       1.0  0.75801  0.21301  0.18294  1.0000
  C   C1082     1.0  0.77275  0.19926  0.19389  1.0000
  C   C1083     1.0  0.74184  0.20133  0.17910  1.0000
  C   C1084     1.0  0.74908  0.22936  0.19495  1.0000
  C   C1085     1.0  0.76843  0.22186  0.16398  1.0000
  C   C1086     1.0  0.78991  0.20862  0.20048  1.0000
  C   C1087     1.0  0.74707  0.18802  0.16229  1.0000
  C   C1088     1.0  0.73981  0.22280  0.21595  1.0000
  C   C1089     1.0  0.54065  0.19286  0.99663  1.0000
  H   H1806     1.0  0.76539  0.19117  0.20723  1.0000
  H   H1807     1.0  0.77958  0.18763  0.18469  1.0000
  H   H1808     1.0  0.72820  0.21103  0.17585  1.0000
  H   H1809     1.0  0.73713  0.19159  0.19257  1.0000
  H   H1810     1.0  0.76018  0.23954  0.19624  1.0000
  H   H1811     1.0  0.73724  0.23866  0.18735  1.0000
  H   H1812     1.0  0.81769  0.25961  0.17499  1.0000
  H   H1813     1.0  0.62304  0.01073  0.07118  1.0000
  H   H1814     1.0  0.76105  0.23467  0.13481  1.0000
  H   H1815     1.0  0.79942  0.19692  0.20849  1.0000
  C   C1090     1.0  0.57927  0.00097  0.15680  1.0000
  H   H1816     1.0  0.76094  0.17828  0.16393  1.0000
  H   H1817     1.0  0.84419  0.09588  0.23351  1.0000
  H   H1818     1.0  0.74830  0.19672  0.14761  1.0000
  C   C1091     1.0  0.98247  0.22415  0.00346  1.0000
  C   C1092     1.0  0.65294  0.10857  0.00220  1.0000
  C   C1093     1.0  0.80371  0.30027  0.17712  1.0000
  H   H1819     1.0  0.78470  0.21978  0.21078  1.0000
  H   H1820     1.0  0.78195  0.30887  0.23968  1.0000
  H   H1821     1.0  0.77762  0.29029  0.00648  1.0000
  H   H1822     1.0  0.63399  0.05258  0.02682  1.0000
  H   H1823     1.0  0.70599  0.13650  0.09348  1.0000
  C   C1094     1.0  0.85200  0.28321  0.99908  1.0000
  C   C1095     1.0  0.57743  0.18355  0.03599  1.0000
  H   H1824     1.0  0.86380  0.27768  0.00868  1.0000
  H   H1825     1.0  0.52236  0.15996  0.00348  1.0000
  H   H1826     1.0  0.84501  0.25834  0.19046  1.0000
  H   H1827     1.0  0.73982  0.23287  0.15204  1.0000
  C   C1096     1.0  0.80889  0.29445  0.99701  1.0000
  H   H1828     1.0  0.80408  0.27732  0.13490  1.0000
  H   H1829     1.0  0.83437  0.02374  0.22578  1.0000
  C   C1097     1.0  0.69087  0.00099  0.06608  1.0000
  H   H1830     1.0  0.66334  0.00993  0.02629  1.0000
  H   H1831     1.0  0.78335  0.18355  0.23903  1.0000
  H   H1832     1.0  0.57056  0.17394  0.04836  1.0000
  H   H1833     1.0  0.63983  0.99766  0.13274  1.0000
  H   H1834     1.0  0.72221  0.27908  0.02377  1.0000
  H   H1835     1.0  0.77674  0.21035  0.15525  1.0000
  C   C1098     1.0  0.69348  0.01694  0.02406  1.0000
  H   H1836     1.0  0.63377  0.01067  0.04611  1.0000
  C   C1099     1.0  0.81967  0.27026  0.16171  1.0000
  S   S308      1.0  0.79554  0.14464  0.23177  1.0000
  H   H1837     1.0  0.53623  0.13896  0.01551  1.0000
  H   H1838     1.0  0.81437  0.30529  0.13858  1.0000
  H   H1839     1.0  0.77752  0.29267  0.19632  1.0000
  H   H1840     1.0  0.63945  0.05797  0.05017  1.0000
  H   H1841     1.0  0.79916  0.22892  0.99735  1.0000
  H   H1842     1.0  0.57688  0.15611  0.00936  1.0000
  H   H1843     1.0  0.87938  0.08485  0.23794  1.0000
  H   H1844     1.0  0.61639  0.06182  0.00243  1.0000
  H   H1845     1.0  0.78221  0.31495  0.99855  1.0000
  H   H1846     1.0  0.60786  0.09154  0.01577  1.0000
  N   N78       1.0  0.63949  0.09255  0.00818  1.0000
  N   N79       1.0  0.97268  0.26144  0.00289  1.0000
  H   H1847     1.0  0.79230  0.30491  0.16682  1.0000
  H   H1848     1.0  0.79230  0.31168  0.09736  1.0000
  C   C1100     1.0  0.54139  0.16682  0.02550  1.0000
  H   H1849     1.0  0.70742  0.02101  0.07810  1.0000
  C   C1101     1.0  0.82398  0.03723  0.22637  1.0000
  H   H1850     1.0  0.78012  0.23055  0.16703  1.0000
  H   H1851     1.0  0.59104  0.00311  0.16522  1.0000
  C   C1102     1.0  0.82712  0.30284  0.14745  1.0000
  H   H1852     1.0  0.82322  0.23171  0.00294  1.0000
  C   C1103     1.0  0.99411  0.26497  0.00170  1.0000
  H   H1853     1.0  0.84385  0.25449  0.99839  1.0000
  H   H1854     1.0  0.66708  0.02924  0.03983  1.0000
  H   H1855     1.0  0.79878  0.29289  0.20918  1.0000
  H   H1856     1.0  0.73512  0.17843  0.16246  1.0000
  H   H1857     1.0  0.72835  0.21275  0.21592  1.0000
  C   C1104     1.0  0.75539  0.23605  0.15049  1.0000
  H   H1858     1.0  0.93844  0.25327  0.04458  1.0000
  H   H1859     1.0  0.58358  0.19508  0.04267  1.0000
  H   H1860     1.0  0.65434  0.02133  0.07134  1.0000
  H   H1861     1.0  0.83150  0.26656  0.01858  1.0000
  C   C1105     1.0  0.61497  0.11670  0.02766  1.0000
  H   H1862     1.0  0.96000  0.29204  0.99892  1.0000
  H   H1863     1.0  0.83185  0.04910  0.21756  1.0000
  Fe  Fe153     1.0  0.76282  0.14767  0.23214  1.0000
  C   C1106     1.0  0.69928  0.26241  0.01775  1.0000
  H   H1864     1.0  0.83338  0.26403  0.15320  1.0000
  S   S309      1.0  0.66485  0.18538  0.01396  1.0000
  C   C1107     1.0  0.67331  0.01426  0.03628  1.0000
  H   H1865     1.0  0.68184  0.02334  0.08662  1.0000
  N   N80       1.0  0.67987  0.12681  0.12643  1.0000
  C   C1108     1.0  0.66369  0.12952  0.14316  1.0000
  C   C1109     1.0  0.69912  0.12857  0.13436  1.0000
  C   C1110     1.0  0.68011  0.10633  0.12076  1.0000
  C   C1111     1.0  0.67540  0.14201  0.10936  1.0000
  C   C1112     1.0  0.64284  0.12577  0.13928  1.0000
  C   C1113     1.0  0.70048  0.14805  0.14278  1.0000
  C   C1114     1.0  0.69614  0.10006  0.10438  1.0000
  C   C1115     1.0  0.69298  0.14755  0.09422  1.0000
  H   H1866     1.0  0.66737  0.11983  0.15668  1.0000
  H   H1867     1.0  0.66218  0.14475  0.14735  1.0000
  H   H1868     1.0  0.71201  0.12656  0.12323  1.0000
  H   H1869     1.0  0.70200  0.11652  0.14636  1.0000
  H   H1870     1.0  0.68169  0.09536  0.13391  1.0000
  H   H1871     1.0  0.66590  0.10429  0.11538  1.0000
  H   H1872     1.0  0.66411  0.13729  0.10103  1.0000
  H   H1873     1.0  0.66859  0.15605  0.11494  1.0000
  H   H1874     1.0  0.63841  0.13352  0.12515  1.0000
  H   H1875     1.0  0.64171  0.10984  0.13975  1.0000
  H   H1876     1.0  0.63195  0.13106  0.15129  1.0000
  H   H1877     1.0  0.69559  0.16102  0.13272  1.0000
  H   H1878     1.0  0.69180  0.14853  0.15746  1.0000
  H   H1879     1.0  0.71609  0.14903  0.14506  1.0000
  H   H1880     1.0  0.69527  0.08445  0.10250  1.0000
  H   H1881     1.0  0.71131  0.10088  0.10794  1.0000
  H   H1882     1.0  0.69348  0.10840  0.08995  1.0000
  S   S310      1.0  0.76082  0.11507  0.23765  1.0000
  H   H1883     1.0  0.70314  0.21280  0.01869  1.0000
  H   H1884     1.0  0.81061  0.29581  0.01269  1.0000
  S   S311      1.0  0.82297  0.32394  0.21790  1.0000
  H   H1885     1.0  0.70507  0.99680  0.05741  1.0000
  C   C1116     1.0  0.56006  0.01089  0.12941  1.0000
  C   C1117     1.0  0.64618  0.08070  0.02654  1.0000
  H   H1886     1.0  0.85344  0.27541  0.20418  1.0000
  S   S312      1.0  0.62505  0.17239  0.99775  1.0000
  C   C1118     1.0  0.69248  0.02097  0.07341  1.0000
  H   H1887     1.0  0.81080  0.03529  0.21913  1.0000
  C   C1119     1.0  0.57571  0.01385  0.13992  1.0000
  C   C1120     1.0  0.56239  0.19351  0.02191  1.0000
  H   H1888     1.0  0.80666  0.31436  0.18199  1.0000
  H   H1889     1.0  0.69134  0.01874  0.00813  1.0000
  H   H1890     1.0  0.85372  0.28758  0.16897  1.0000
  H   H1891     1.0  0.79965  0.21483  0.18783  1.0000
  C   C1121     1.0  0.63341  0.06458  0.03627  1.0000
  H   H1892     1.0  0.75822  0.32019  0.23486  1.0000
  C   C1122     1.0  0.83605  0.26874  0.00240  1.0000
  C   C1123     1.0  0.94427  0.25113  0.02910  1.0000
  H   H1893     1.0  0.64719  0.09048  0.03794  1.0000
  Fe  Fe154     1.0  0.79416  0.11217  0.23534  1.0000
  H   H1894     1.0  0.83960  0.30355  0.18501  1.0000
  H   H1895     1.0  0.57007  0.20458  0.01154  1.0000
  H   H1896     1.0  0.55094  0.20210  0.03119  1.0000
  H   H1897     1.0  0.59017  0.17517  0.02823  1.0000
  H   H1898     1.0  0.55138  0.15660  0.03459  1.0000
  H   H1899     1.0  0.68915  0.27535  0.01455  1.0000
  N   N81       1.0  0.67337  0.00019  0.05492  1.0000
  H   H1900     1.0  0.97818  0.22159  0.01954  1.0000
  Fe  Fe155     1.0  0.65428  0.21640  0.00334  1.0000
  C   C1124     1.0  0.80396  0.25939  0.99749  1.0000
  C   C1125     1.0  0.96428  0.25981  0.02429  1.0000
  C   C1126     1.0  0.54818  0.99537  0.13556  1.0000
  H   H1901     1.0  0.97475  0.25080  0.03381  1.0000
  H   H1902     1.0  0.61883  0.10954  0.04222  1.0000
  H   H1903     1.0  0.93294  0.25848  0.01970  1.0000
  C   C1127     1.0  0.63507  0.00356  0.06130  1.0000
  H   H1904     1.0  0.59898  0.12193  0.02958  1.0000
  H   H1905     1.0  0.96214  0.27451  0.02987  1.0000
  C   C1128     1.0  0.61870  0.10242  0.01161  1.0000
  H   H1906     1.0  0.77192  0.32686  0.04141  1.0000
  H   H1907     1.0  0.81737  0.28873  0.24354  1.0000
  C   C1129     1.0  0.82320  0.31876  0.24359  1.0000
  C   C1130     1.0  0.99797  0.28527  0.00663  1.0000
  H   H1908     1.0  0.97893  0.21126  0.99680  1.0000
  H   H1909     1.0  0.98509  0.14163  0.43964  1.0000
  H   H1910     1.0  0.90239  0.16272  0.38529  1.0000
  Fe  Fe156     1.0  0.91444  0.16386  0.46528  1.0000
  S   S313      1.0  0.92569  0.19307  0.45487  1.0000
  C   C1131     1.0  0.71456  0.30314  0.41886  1.0000
  Fe  Fe157     1.0  0.94118  0.14223  0.43451  1.0000
  S   S314      1.0  0.95426  0.16979  0.42162  1.0000
  S   S315      1.0  0.94984  0.11100  0.42729  1.0000
  Fe  Fe158     1.0  0.95590  0.17549  0.45318  1.0000
  H   H1911     1.0  0.67795  0.28576  0.47574  1.0000
  Fe  Fe159     1.0  0.92288  0.18448  0.42455  1.0000
  S   S316      1.0  0.91032  0.20254  0.39773  1.0000
  S   S317      1.0  0.94433  0.14709  0.46553  1.0000
  S   S318      1.0  0.91010  0.15630  0.43542  1.0000
  Fe  Fe160     1.0  0.93542  0.06474  0.33165  1.0000
  S   S319      1.0  0.94503  0.05311  0.30221  1.0000
  S   S320      1.0  0.94734  0.09178  0.33959  1.0000
  Fe  Fe161     1.0  0.90398  0.03717  0.34192  1.0000
  S   S321      1.0  0.91090  0.02380  0.31351  1.0000
  H   H1912     1.0  0.84022  0.00433  0.25274  1.0000
  Fe  Fe162     1.0  0.94281  0.02298  0.31893  1.0000
  C   C1132     1.0  0.99780  0.12751  0.47706  1.0000
  Fe  Fe163     1.0  0.91230  0.05474  0.29960  1.0000
  S   S322      1.0  0.93545  0.03468  0.34852  1.0000
  S   S323      1.0  0.90305  0.06817  0.32781  1.0000
  Fe  Fe164     1.0  0.79016  0.24008  0.31584  1.0000
  S   S324      1.0  0.77663  0.23442  0.34744  1.0000
  S   S325      1.0  0.79658  0.22124  0.29049  1.0000
  Fe  Fe165     1.0  0.80520  0.27788  0.32271  1.0000
  S   S326      1.0  0.79340  0.27484  0.35453  1.0000
  S   S327      1.0  0.82001  0.30501  0.31065  1.0000
  Fe  Fe166     1.0  0.80531  0.24301  0.35535  1.0000
  S   S328      1.0  0.82026  0.22803  0.38230  1.0000
  Fe  Fe167     1.0  0.76568  0.26696  0.34425  1.0000
  S   S329      1.0  0.73982  0.28706  0.35787  1.0000
  S   S330      1.0  0.81927  0.24681  0.32418  1.0000
  S   S331      1.0  0.77725  0.27173  0.31210  1.0000
  H   H1913     1.0  0.79637  0.07479  0.42601  1.0000
  C   C1133     1.0  0.81968  0.29993  0.25251  1.0000
  H   H1914     1.0  0.84742  0.02542  0.39898  1.0000
  C   C1134     1.0  0.83603  0.27918  0.38764  1.0000
  C   C1135     1.0  0.83707  0.01429  0.26457  1.0000
  H   H1915     1.0  0.78794  0.02157  0.25722  1.0000
  H   H1916     1.0  0.85038  0.25646  0.35040  1.0000
  C   C1136     1.0  0.84394  0.03529  0.41083  1.0000
  H   H1917     1.0  0.83730  0.00418  0.27848  1.0000
  H   H1918     1.0  0.86810  0.12003  0.41790  1.0000
  H   H1919     1.0  0.84004  0.20033  0.49110  1.0000
  C   C1137     1.0  0.82167  0.30998  0.28481  1.0000
  C   C1138     1.0  0.81855  0.29565  0.27309  1.0000
  S   S332      1.0  0.64558  0.30332  0.36654  1.0000
  S   S333      1.0  0.89904  0.06655  0.27103  1.0000
  C   C1139     1.0  0.88663  0.26538  0.35858  1.0000
  H   H1920     1.0  0.56896  0.31218  0.45674  1.0000
  H   H1921     1.0  0.81544  0.28120  0.27987  1.0000
  C   C1140     1.0  0.76813  0.31637  0.24666  1.0000
  H   H1922     1.0  0.65338  0.28392  0.45011  1.0000
  C   C1141     1.0  0.79021  0.04479  0.28634  1.0000
  C   C1142     1.0  0.71370  0.29160  0.35841  1.0000
  C   C1143     1.0  0.70199  0.27844  0.35267  1.0000
  C   C1144     1.0  0.68117  0.28236  0.35487  1.0000
  C   C1145     1.0  0.67185  0.29937  0.36291  1.0000
  C   C1146     1.0  0.68365  0.31261  0.36831  1.0000
  C   C1147     1.0  0.70436  0.30883  0.36592  1.0000
  H   H1923     1.0  0.70893  0.26510  0.34689  1.0000
  H   H1924     1.0  0.67223  0.27200  0.35061  1.0000
  H   H1925     1.0  0.87504  0.26076  0.32244  1.0000
  H   H1926     1.0  0.65539  0.30915  0.44224  1.0000
  S   S334      1.0  0.62066  0.32252  0.41645  1.0000
  H   H1927     1.0  0.83205  0.16601  0.31979  1.0000
  H   H1928     1.0  0.55085  0.30302  0.48944  1.0000
  H   H1929     1.0  0.81100  0.12303  0.48116  1.0000
  H   H1930     1.0  0.85794  0.25458  0.38442  1.0000
  S   S335      1.0  0.80823  0.09348  0.26103  1.0000
  C   C1148     1.0  0.80832  0.00045  0.44198  1.0000
  C   C1149     1.0  0.85715  0.11632  0.46361  1.0000
  H   H1931     1.0  0.84683  0.05271  0.37464  1.0000
  C   C1150     1.0  0.86409  0.03822  0.41738  1.0000
  C   C1151     1.0  0.87686  0.14176  0.48131  1.0000
  C   C1152     1.0  0.86875  0.14818  0.46364  1.0000
  C   C1153     1.0  0.85872  0.13555  0.45489  1.0000
  C   C1154     1.0  0.83682  0.99922  0.33346  1.0000
  H   H1932     1.0  0.87030  0.16291  0.45664  1.0000
  H   H1933     1.0  0.85225  0.14073  0.44139  1.0000
  C   C1155     1.0  0.88494  0.20707  0.39355  1.0000
  C   C1156     1.0  0.86974  0.20715  0.40906  1.0000
  C   C1157     1.0  0.85000  0.21299  0.40523  1.0000
  C   C1158     1.0  0.84511  0.21866  0.38588  1.0000
  C   C1159     1.0  0.86020  0.21760  0.37029  1.0000
  C   C1160     1.0  0.87998  0.21199  0.37414  1.0000
  H   H1934     1.0  0.87327  0.20338  0.42407  1.0000
  H   H1935     1.0  0.83848  0.21361  0.41742  1.0000
  H   H1936     1.0  0.85669  0.22141  0.35529  1.0000
  H   H1937     1.0  0.89159  0.21171  0.36201  1.0000
  C   C1161     1.0  0.94965  0.10568  0.40283  1.0000
  C   C1162     1.0  0.94878  0.08624  0.39911  1.0000
  C   C1163     1.0  0.94801  0.08170  0.37980  1.0000
  C   C1164     1.0  0.94855  0.09656  0.36405  1.0000
  C   C1165     1.0  0.94997  0.11590  0.36775  1.0000
  C   C1166     1.0  0.95036  0.12048  0.38708  1.0000
  H   H1938     1.0  0.94840  0.07468  0.41123  1.0000
  H   H1939     1.0  0.94711  0.06673  0.37706  1.0000
  H   H1940     1.0  0.95052  0.12743  0.35561  1.0000
  H   H1941     1.0  0.95115  0.13549  0.38976  1.0000
  C   C1167     1.0  0.75834  0.18584  0.26090  1.0000
  S   S336      1.0  0.84532  0.10030  0.45218  1.0000
  C   C1168     1.0  0.78837  0.20108  0.26141  1.0000
  C   C1169     1.0  0.78070  0.20911  0.27887  1.0000
  C   C1170     1.0  0.76152  0.20596  0.28711  1.0000
  C   C1171     1.0  0.75034  0.19437  0.27807  1.0000
  H   H1942     1.0  0.85601  0.06801  0.38891  1.0000
  H   H1943     1.0  0.99576  0.01156  0.31165  1.0000
  H   H1944     1.0  0.75550  0.21203  0.30063  1.0000
  H   H1945     1.0  0.73565  0.19163  0.28464  1.0000
  C   C1172     1.0  0.85937  0.07383  0.28503  1.0000
  H   H1946     1.0  0.82721  0.05801  0.43512  1.0000
  H   H1947     1.0  0.86349  0.06746  0.29932  1.0000
  H   H1948     1.0  0.82824  0.07814  0.29484  1.0000
  H   H1949     1.0  0.81109  0.09218  0.43234  1.0000
  H   H1950     1.0  0.73803  0.32259  0.27768  1.0000
  H   H1951     1.0  0.66336  0.25955  0.42219  1.0000
  C   C1173     1.0  0.82760  0.15426  0.27787  1.0000
  H   H1952     1.0  0.82585  0.27635  0.37726  1.0000
  C   C1174     1.0  0.86097  0.02241  0.33273  1.0000
  H   H1953     1.0  0.80430  0.04079  0.41448  1.0000
  H   H1954     1.0  0.86965  0.03340  0.32460  1.0000
  H   H1955     1.0  0.68106  0.26082  0.44962  1.0000
  H   H1956     1.0  0.83721  0.08320  0.35925  1.0000
  H   H1957     1.0  0.79693  0.03153  0.38235  1.0000
  H   H1958     1.0  0.85829  0.10390  0.40433  1.0000
  C   C1175     1.0  0.87390  0.07537  0.26896  1.0000
  H   H1959     1.0  0.98335  0.13427  0.40809  1.0000
  H   H1960     1.0  0.85178  0.14902  0.39594  1.0000
  H   H1961     1.0  0.84095  0.13101  0.38468  1.0000
  C   C1176     1.0  0.86509  0.11002  0.48139  1.0000
  H   H1962     1.0  0.88063  0.15984  0.40229  1.0000
  H   H1963     1.0  0.90647  0.07500  0.41352  1.0000
  C   C1177     1.0  0.81228  0.03344  0.38476  1.0000
  H   H1964     1.0  0.92763  0.09418  0.47480  1.0000
  C   C1178     1.0  0.99478  0.18038  0.48587  1.0000
  H   H1965     1.0  0.68676  0.32025  0.42585  1.0000
  C   C1179     1.0  0.87450  0.12287  0.49050  1.0000
  H   H1966     1.0  0.82736  0.05389  0.25040  1.0000
  H   H1967     1.0  0.89489  0.27043  0.34427  1.0000
  H   H1968     1.0  0.86836  0.01607  0.26605  1.0000
  C   C1180     1.0  0.82841  0.06693  0.42045  1.0000
  C   C1181     1.0  0.77721  0.18965  0.25241  1.0000
  S   S337      1.0  0.80271  0.02239  0.45404  1.0000
  H   H1969     1.0  0.89591  0.25675  0.38828  1.0000
  H   H1970     1.0  0.77881  0.03469  0.28625  1.0000
  H   H1971     1.0  0.83970  0.28083  0.34674  1.0000
  Fe  Fe168     1.0  0.83513  0.07587  0.47432  1.0000
  C   C1182     1.0  0.69208  0.27053  0.44187  1.0000
  C   C1183     1.0  0.70502  0.25816  0.42677  1.0000
  H   H1972     1.0  0.86605  0.27496  0.39333  1.0000
  C   C1184     1.0  0.83791  0.12803  0.31528  1.0000
  C   C1185     1.0  0.84812  0.01347  0.32307  1.0000
  H   H1973     1.0  0.88262  0.30181  0.34843  1.0000
  C   C1186     1.0  0.66808  0.29806  0.46919  1.0000
  H   H1974     1.0  0.78836  0.01072  0.42006  1.0000
  H   H1975     1.0  0.83591  0.02669  0.42338  1.0000
  H   H1976     1.0  0.87271  0.30336  0.37315  1.0000
  H   H1977     1.0  0.71802  0.25049  0.43375  1.0000
  C   C1187     1.0  0.81164  0.04773  0.40050  1.0000
  C   C1188     1.0  0.86945  0.29872  0.35902  1.0000
  H   H1978     1.0  0.91629  0.11524  0.48584  1.0000
  H   H1979     1.0  0.64409  0.27981  0.42030  1.0000
  H   H1980     1.0  0.81521  0.08076  0.37469  1.0000
  C   C1189     1.0  0.69476  0.30616  0.43179  1.0000
  H   H1981     1.0  0.91563  0.25953  0.36922  1.0000
  C   C1190     1.0  0.83940  0.07992  0.28243  1.0000
  N   N82       1.0  0.68160  0.28982  0.43385  1.0000
  S   S338      1.0  0.74486  0.17022  0.25038  1.0000
  H   H1982     1.0  0.85299  0.03650  0.27495  1.0000
  H   H1983     1.0  0.99160  0.08153  0.42936  1.0000
  H   H1984     1.0  0.91153  0.12982  0.38507  1.0000
  H   H1985     1.0  0.84880  0.13728  0.30689  1.0000
  H   H1986     1.0  0.83073  0.27160  0.40217  1.0000
  H   H1987     1.0  0.85237  0.27298  0.31494  1.0000
  H   H1988     1.0  0.87058  0.28731  0.32074  1.0000
  H   H1989     1.0  0.77346  0.31718  0.29307  1.0000
  N   N83       1.0  0.81716  0.02613  0.26369  1.0000
  H   H1990     1.0  0.89090  0.12351  0.33696  1.0000
  Fe  Fe169     1.0  0.81551  0.03787  0.47689  1.0000
  H   H1991     1.0  0.98537  0.13790  0.47219  1.0000
  H   H1992     1.0  0.75145  0.31078  0.30668  1.0000
  H   H1993     1.0  0.90452  0.10521  0.35185  1.0000
  H   H1994     1.0  0.84744  0.01720  0.30746  1.0000
  H   H1995     1.0  0.90909  0.09679  0.38331  1.0000
  H   H1996     1.0  0.95183  0.10923  0.49043  1.0000
  S   S339      1.0  0.80376  0.06997  0.47528  1.0000
  H   H1997     1.0  0.82145  0.04534  0.28512  1.0000
  H   H1998     1.0  0.83786  0.31117  0.36010  1.0000
  C   C1191     1.0  0.66385  0.29532  0.44815  1.0000
  H   H1999     1.0  0.81316  0.02285  0.29572  1.0000
  H   H2000     1.0  0.83032  0.14918  0.48467  1.0000
  H   H2001     1.0  0.89935  0.12998  0.40872  1.0000
  H   H2002     1.0  0.82132  0.16710  0.26822  1.0000
  C   C1192     1.0  0.86379  0.27341  0.32500  1.0000
  H   H2003     1.0  0.84856  0.14573  0.25323  1.0000
  H   H2004     1.0  0.86895  0.10945  0.36514  1.0000
  S   S340      1.0  0.98622  0.17998  0.46229  1.0000
  C   C1193     1.0  0.83779  0.13876  0.26449  1.0000
  H   H2005     1.0  0.81980  0.03896  0.37034  1.0000
  H   H2006     1.0  0.83496  0.29500  0.38954  1.0000
  H   H2007     1.0  0.71097  0.26646  0.41303  1.0000
  H   H2008     1.0  0.79252  0.00082  0.29013  1.0000
  H   H2009     1.0  0.99667  0.10231  0.41260  1.0000
  H   H2010     1.0  0.90164  0.28116  0.37767  1.0000
  H   H2011     1.0  0.80110  0.06050  0.39618  1.0000
  H   H2012     1.0  0.78805  0.05023  0.30109  1.0000
  H   H2013     1.0  0.67686  0.32563  0.37466  1.0000
  C   C1194     1.0  0.85748  0.27085  0.38198  1.0000
  H   H2014     1.0  0.78758  0.05781  0.27551  1.0000
  H   H2015     1.0  0.81235  0.18483  0.32423  1.0000
  C   C1195     1.0  0.83374  0.08786  0.26385  1.0000
  C   C1196     1.0  0.83111  0.08171  0.37502  1.0000
  C   C1197     1.0  0.81536  0.14995  0.49290  1.0000
  H   H2016     1.0  0.90650  0.13101  0.35302  1.0000
  H   H2017     1.0  0.80318  0.20347  0.25494  1.0000
  H   H2018     1.0  0.88079  0.15808  0.37621  1.0000
  H   H2019     1.0  0.83324  0.09512  0.38160  1.0000
  H   H2020     1.0  0.82571  0.18524  0.30047  1.0000
  H   H2021     1.0  0.84151  0.07509  0.42018  1.0000
  C   C1198     1.0  0.67410  0.28892  0.41425  1.0000
  C   C1199     1.0  0.85083  0.00331  0.36333  1.0000
  H   H2022     1.0  0.68623  0.28560  0.40263  1.0000
  C   C1200     1.0  0.81780  0.04289  0.24748  1.0000
  C   C1201     1.0  0.85421  0.27178  0.34657  1.0000
  H   H2023     1.0  0.87129  0.02367  0.42298  1.0000
  C   C1202     1.0  0.55733  0.32238  0.46293  1.0000
  C   C1203     1.0  0.81138  0.03444  0.28314  1.0000
  H   H2024     1.0  0.70161  0.27298  0.45319  1.0000
  S   S341      1.0  0.88009  0.02664  0.36454  1.0000
  H   H2025     1.0  0.81921  0.01863  0.38977  1.0000
  H   H2026     1.0  0.80834  0.09131  0.40704  1.0000
  S   S342      1.0  0.84722  0.04428  0.47403  1.0000
  N   N84       1.0  0.86663  0.27711  0.36144  1.0000
  H   H2027     1.0  0.83452  0.13237  0.33046  1.0000
  C   C1204     1.0  0.65905  0.27399  0.41414  1.0000
  C   C1205     1.0  0.80998  0.08212  0.42115  1.0000
  C   C1206     1.0  0.85231  0.31326  0.35160  1.0000
  H   H2028     1.0  0.88402  0.08788  0.42314  1.0000
  C   C1207     1.0  0.84192  0.06333  0.38563  1.0000
  H   H2029     1.0  0.87428  0.04407  0.40488  1.0000
  H   H2030     1.0  0.86265  0.04763  0.42955  1.0000
  H   H2031     1.0  0.76189  0.30561  0.25835  1.0000
  H   H2032     1.0  0.83973  0.15984  0.28411  1.0000
  N   N85       1.0  0.83125  0.05373  0.40407  1.0000
  H   H2033     1.0  0.84560  0.11287  0.31606  1.0000
  H   H2034     1.0  0.88643  0.08630  0.38637  1.0000
  H   H2035     1.0  0.88497  0.24965  0.35777  1.0000
  C   C1208     1.0  0.90057  0.26597  0.37449  1.0000
  C   C1209     1.0  0.86273  0.01693  0.35276  1.0000
  N   N86       1.0  0.81188  0.14731  0.29361  1.0000
  C   C1210     1.0  0.79477  0.14344  0.28319  1.0000
  H   H2036     1.0  0.67415  0.31220  0.46962  1.0000
  C   C1211     1.0  0.80444  0.16320  0.30686  1.0000
  H   H2037     1.0  0.71325  0.31916  0.37032  1.0000
  C   C1212     1.0  0.77563  0.13892  0.29634  1.0000
  H   H2038     1.0  0.65395  0.29870  0.47896  1.0000
  H   H2039     1.0  0.85099  0.31241  0.33580  1.0000
  H   H2040     1.0  0.99628  0.15577  0.40275  1.0000
  H   H2041     1.0  0.79059  0.15621  0.27252  1.0000
  H   H2042     1.0  0.79885  0.13086  0.27435  1.0000
  C   C1213     1.0  0.81980  0.17520  0.31308  1.0000
  H   H2043     1.0  0.90691  0.09917  0.41986  1.0000
  H   H2044     1.0  0.79371  0.17431  0.29960  1.0000
  H   H2045     1.0  0.79608  0.15700  0.32064  1.0000
  C   C1214     1.0  0.54690  0.31715  0.48144  1.0000
  H   H2046     1.0  0.66689  0.30358  0.40875  1.0000
  H   H2047     1.0  0.76449  0.13635  0.28667  1.0000
  H   H2048     1.0  0.77785  0.12539  0.30662  1.0000
  H   H2049     1.0  0.76902  0.15145  0.30450  1.0000
  H   H2050     1.0  0.86956  0.13498  0.36436  1.0000
  H   H2051     1.0  0.82055  0.11584  0.29638  1.0000
  H   H2052     1.0  0.65782  0.27155  0.39866  1.0000
  H   H2053     1.0  0.83564  0.13324  0.41037  1.0000
  H   H2054     1.0  0.84623  0.12649  0.27289  1.0000
  H   H2055     1.0  0.80726  0.12435  0.31750  1.0000
  H   H2056     1.0  0.85205  0.99901  0.37883  1.0000
  C   C1215     1.0  0.81879  0.12844  0.30541  1.0000
  H   H2057     1.0  0.69694  0.24630  0.42307  1.0000
  N   N87       1.0  0.88333  0.11768  0.38876  1.0000
  C   C1216     1.0  0.89431  0.09741  0.39191  1.0000
  C   C1217     1.0  0.87843  0.12074  0.36771  1.0000
  C   C1218     1.0  0.86468  0.11819  0.40286  1.0000
  C   C1219     1.0  0.89654  0.13230  0.39298  1.0000
  C   C1220     1.0  0.89794  0.08974  0.41341  1.0000
  C   C1221     1.0  0.89627  0.12004  0.35174  1.0000
  C   C1222     1.0  0.84754  0.13390  0.39788  1.0000
  C   C1223     1.0  0.88933  0.15431  0.38901  1.0000
  H   H2058     1.0  0.61588  0.32422  0.49139  1.0000
  S   S343      1.0  0.89181  0.15650  0.49063  1.0000
  H   H2059     1.0  0.71277  0.30018  0.40378  1.0000
  H   H2060     1.0  0.80533  0.15862  0.48266  1.0000
  C   C1224     1.0  0.80240  0.01298  0.25969  1.0000
  C   C1225     1.0  0.86825  0.08358  0.25046  1.0000
  H   H2061     1.0  0.85781  0.03457  0.24878  1.0000
  H   H2062     1.0  0.98551  0.10829  0.44892  1.0000
  H   H2063     1.0  0.69887  0.30877  0.44632  1.0000
  H   H2064     1.0  0.72472  0.29131  0.42580  1.0000
  C   C1226     1.0  0.75869  0.32356  0.29893  1.0000
  H   H2065     1.0  0.84022  0.17904  0.47883  1.0000
  C   C1227     1.0  0.85489  0.02626  0.26350  1.0000
  C   C1228     1.0  0.92323  0.10005  0.48924  1.0000
  H   H2066     1.0  0.82733  0.13277  0.25635  1.0000
  C   C1229     1.0  0.84831  0.08990  0.24792  1.0000
  C   C1230     1.0  0.79885  0.99882  0.42522  1.0000
  H   H2067     1.0  0.86476  0.09499  0.48774  1.0000
  C   C1231     1.0  0.99729  0.14033  0.40970  1.0000
  H   H2068     1.0  0.99281  0.11274  0.48138  1.0000
  H   H2069     1.0  0.72192  0.31683  0.41734  1.0000
  C   C1232     1.0  0.83867  0.18431  0.49359  1.0000
  C   C1233     1.0  0.83766  0.99473  0.35376  1.0000
  H   H2070     1.0  0.80306  0.05147  0.24693  1.0000
  C   C1234     1.0  0.79863  0.99576  0.27572  1.0000
  H   H2071     1.0  0.80727  0.00632  0.24571  1.0000
  Fe  Fe170     1.0  0.96276  0.07828  0.60044  1.0000
  S   S344      1.0  0.97191  0.06633  0.63021  1.0000
  Fe  Fe171     1.0  0.92242  0.06404  0.60840  1.0000
  S   S345      1.0  0.92819  0.05049  0.63895  1.0000
  S   S346      1.0  0.89278  0.06903  0.59603  1.0000
  Fe  Fe172     1.0  0.94123  0.07837  0.64179  1.0000
  S   S347      1.0  0.93550  0.09249  0.67067  1.0000
  Fe  Fe173     1.0  0.95850  0.03947  0.62505  1.0000
  H   H2072     1.0  0.67024  0.20608  0.63455  1.0000
  S   S348      1.0  0.93349  0.09254  0.61236  1.0000
  S   S349      1.0  0.95135  0.05079  0.59423  1.0000
  H   H2073     1.0  0.78507  0.18849  0.53115  1.0000
  H   H2074     1.0  0.97720  0.01466  0.67496  1.0000
  H   H2075     1.0  0.95067  0.07366  0.70972  1.0000
  Fe  Fe174     1.0  0.80332  0.06796  0.50814  1.0000
  S   S350      1.0  0.83393  0.07614  0.50698  1.0000
  S   S351      1.0  0.77839  0.08486  0.52618  1.0000
  H   H2076     1.0  0.69533  0.29546  0.55803  1.0000
  H   H2077     1.0  0.83724  0.00606  0.55462  1.0000
  Fe  Fe175     1.0  0.84329  0.04393  0.50718  1.0000
  S   S352      1.0  0.86718  0.02923  0.52589  1.0000
  S   S353      1.0  0.51749  0.32160  0.51203  1.0000
  S   S354      1.0  0.81219  0.03521  0.51039  1.0000
  Fe  Fe176     1.0  0.88989  0.23446  0.73126  1.0000
  H   H2078     1.0  0.95746  0.03101  0.66606  1.0000
  H   H2079     1.0  0.57834  0.29346  0.64797  1.0000
  Fe  Fe177     1.0  0.85264  0.22856  0.71273  1.0000
  S   S355      1.0  0.85711  0.19584  0.71846  1.0000
  S   S356      1.0  0.82330  0.24014  0.70203  1.0000
  C   C1235     1.0  0.94218  0.06113  0.71554  1.0000
  Fe  Fe178     1.0  0.88888  0.19889  0.70721  1.0000
  S   S357      1.0  0.90364  0.18200  0.68141  1.0000
  H   H2080     1.0  0.95931  0.15210  0.65367  1.0000
  S   S358      1.0  0.88397  0.23193  0.69996  1.0000
  Fe  Fe179     1.0  0.77499  0.17053  0.59848  1.0000
  S   S359      1.0  0.78053  0.20047  0.58332  1.0000
  S   S360      1.0  0.79308  0.14348  0.58676  1.0000
  Fe  Fe180     1.0  0.75278  0.18812  0.63525  1.0000
  S   S361      1.0  0.75692  0.21911  0.62267  1.0000
  S   S362      1.0  0.74081  0.18441  0.66752  1.0000
  Fe  Fe181     1.0  0.74911  0.21001  0.59463  1.0000
  S   S363      1.0  0.72758  0.22932  0.57601  1.0000
  Fe  Fe182     1.0  0.78774  0.20708  0.61267  1.0000
  S   S364      1.0  0.81527  0.22073  0.61585  1.0000
  S   S365      1.0  0.74268  0.17940  0.60781  1.0000
  S   S366      1.0  0.78437  0.17681  0.62720  1.0000
  Fe  Fe183     1.0  0.63717  0.18075  0.72283  1.0000
  S   S367      1.0  0.60449  0.17998  0.73078  1.0000
  S   S368      1.0  0.65138  0.17007  0.69411  1.0000
  C   C1236     1.0  0.83550  0.15792  0.54143  1.0000
  H   H2081     1.0  0.79492  0.02248  0.59580  1.0000
  C   C1237     1.0  0.57051  0.28611  0.74167  1.0000
  H   H2082     1.0  0.53090  0.26881  0.60470  1.0000
  H   H2083     1.0  0.66050  0.23833  0.64497  1.0000
  H   H2084     1.0  0.69454  0.24650  0.60233  1.0000
  H   H2085     1.0  0.92261  0.12958  0.55201  1.0000
  C   C1238     1.0  0.71615  0.17967  0.67489  1.0000
  C   C1239     1.0  0.70495  0.17243  0.66222  1.0000
  C   C1240     1.0  0.68515  0.16932  0.66836  1.0000
  C   C1241     1.0  0.67644  0.17347  0.68715  1.0000
  C   C1242     1.0  0.68769  0.18060  0.69987  1.0000
  C   C1243     1.0  0.70754  0.18353  0.69380  1.0000
  H   H2086     1.0  0.71159  0.16910  0.64777  1.0000
  H   H2087     1.0  0.67654  0.16369  0.65852  1.0000
  H   H2088     1.0  0.68111  0.18380  0.71439  1.0000
  H   H2089     1.0  0.71616  0.18905  0.70370  1.0000
  C   C1244     1.0  0.72484  0.25521  0.57580  1.0000
  C   C1245     1.0  0.73618  0.26464  0.58660  1.0000
  C   C1246     1.0  0.68362  0.24915  0.61526  1.0000
  C   C1247     1.0  0.71016  0.26648  0.56543  1.0000
  H   H2090     1.0  0.74758  0.25618  0.59457  1.0000
  C   C1248     1.0  0.82063  0.06288  0.58492  1.0000
  H   H2091     1.0  0.70125  0.25928  0.55711  1.0000
  C   C1249     1.0  0.82106  0.23499  0.67802  1.0000
  C   C1250     1.0  0.80273  0.23119  0.67311  1.0000
  C   C1251     1.0  0.80076  0.22692  0.65401  1.0000
  C   C1252     1.0  0.81697  0.22712  0.63957  1.0000
  C   C1253     1.0  0.83518  0.23140  0.64439  1.0000
  C   C1254     1.0  0.83734  0.23487  0.66369  1.0000
  H   H2092     1.0  0.79008  0.23134  0.68413  1.0000
  H   H2093     1.0  0.78670  0.22353  0.65046  1.0000
  H   H2094     1.0  0.84775  0.23165  0.63329  1.0000
  H   H2095     1.0  0.85149  0.23793  0.66737  1.0000
  C   C1255     1.0  0.78837  0.12755  0.56986  1.0000
  C   C1256     1.0  0.80421  0.11491  0.56205  1.0000
  C   C1257     1.0  0.80147  0.10230  0.54818  1.0000
  C   C1258     1.0  0.78269  0.10167  0.54244  1.0000
  C   C1259     1.0  0.76678  0.11413  0.55044  1.0000
  C   C1260     1.0  0.76962  0.12716  0.56394  1.0000
  H   H2096     1.0  0.81876  0.11504  0.56659  1.0000
  H   H2097     1.0  0.81385  0.09283  0.54222  1.0000
  H   H2098     1.0  0.75216  0.11368  0.54619  1.0000
  H   H2099     1.0  0.75727  0.13672  0.56993  1.0000
  H   H2100     1.0  0.84962  0.04980  0.59460  1.0000
  H   H2101     1.0  0.96613  0.18439  0.50225  1.0000
  H   H2102     1.0  0.76570  0.06474  0.56816  1.0000
  H   H2103     1.0  0.83069  0.05572  0.61442  1.0000
  C   C1261     1.0  0.92549  0.11715  0.67346  1.0000
  C   C1262     1.0  0.92232  0.13097  0.65721  1.0000
  C   C1263     1.0  0.91551  0.15066  0.66001  1.0000
  C   C1264     1.0  0.91145  0.15676  0.67905  1.0000
  C   C1265     1.0  0.91410  0.14282  0.69531  1.0000
  C   C1266     1.0  0.92124  0.12317  0.69250  1.0000
  H   H2104     1.0  0.92540  0.12655  0.64249  1.0000
  H   H2105     1.0  0.91337  0.16129  0.64732  1.0000
  H   H2106     1.0  0.91105  0.14726  0.71004  1.0000
  H   H2107     1.0  0.92359  0.11263  0.70520  1.0000
  C   C1267     1.0  0.88819  0.05902  0.57475  1.0000
  C   C1268     1.0  0.89714  0.04061  0.57014  1.0000
  C   C1269     1.0  0.89099  0.03189  0.55470  1.0000
  C   C1270     1.0  0.87610  0.04160  0.54361  1.0000
  C   C1271     1.0  0.86788  0.06042  0.54767  1.0000
  C   C1272     1.0  0.87383  0.06903  0.56321  1.0000
  H   H2108     1.0  0.90814  0.03272  0.57901  1.0000
  H   H2109     1.0  0.89745  0.01733  0.55167  1.0000
  H   H2110     1.0  0.85649  0.06813  0.53929  1.0000
  H   H2111     1.0  0.86688  0.08330  0.56666  1.0000
  C   C1273     1.0  0.71799  0.29633  0.57693  1.0000
  H   H2112     1.0  0.79012  0.03781  0.56359  1.0000
  C   C1274     1.0  0.71866  0.24168  0.65643  1.0000
  C   C1275     1.0  0.98190  0.18297  0.50299  1.0000
  H   H2113     1.0  0.97811  0.09884  0.65248  1.0000
  H   H2114     1.0  0.84497  0.14600  0.51379  1.0000
  H   H2115     1.0  0.51796  0.26182  0.62786  1.0000
  Fe  Fe184     1.0  0.60415  0.21123  0.73735  1.0000
  H   H2116     1.0  0.96849  0.12216  0.62576  1.0000
  S   S369      1.0  0.63639  0.21242  0.72727  1.0000
  C   C1276     1.0  0.92564  0.13757  0.53726  1.0000
  C   C1277     1.0  0.56056  0.26710  0.71127  1.0000
  H   H2117     1.0  0.58491  0.31639  0.51685  1.0000
  H   H2118     1.0  0.85112  0.17749  0.50185  1.0000
  S   S370      1.0  0.97167  0.00783  0.63341  1.0000
  H   H2119     1.0  0.99609  0.03836  0.66093  1.0000
  H   H2120     1.0  0.91393  0.15011  0.53587  1.0000
  H   H2121     1.0  0.94559  0.18464  0.64099  1.0000
  C   C1278     1.0  0.83083  0.14889  0.52326  1.0000
  H   H2122     1.0  0.80383  0.18214  0.73005  1.0000
  C   C1279     1.0  0.81844  0.18096  0.50515  1.0000
  H   H2123     1.0  0.50139  0.29616  0.70530  1.0000
  C   C1280     1.0  0.53438  0.30983  0.59061  1.0000
  C   C1281     1.0  0.58108  0.29709  0.66265  1.0000
  H   H2124     1.0  0.75134  0.18666  0.74385  1.0000
  H   H2125     1.0  0.93638  0.05186  0.68819  1.0000
  H   H2126     1.0  0.55702  0.27399  0.61971  1.0000
  H   H2127     1.0  0.96361  0.18582  0.62003  1.0000
  H   H2128     1.0  0.61187  0.29888  0.65202  1.0000
  C   C1282     1.0  0.96262  0.02258  0.67969  1.0000
  C   C1283     1.0  0.99719  0.04500  0.67464  1.0000
  H   H2129     1.0  0.96524  0.11986  0.51638  1.0000
  C   C1284     1.0  0.57788  0.26634  0.74001  1.0000
  H   H2130     1.0  0.66999  0.27658  0.60126  1.0000
  H   H2131     1.0  0.79682  0.04214  0.60953  1.0000
  N   N88       1.0  0.81285  0.04449  0.58048  1.0000
  H   H2132     1.0  0.91217  0.09082  0.49750  1.0000
  C   C1285     1.0  0.82862  0.03337  0.56759  1.0000
  C   C1286     1.0  0.80553  0.03239  0.59909  1.0000
  H   H2133     1.0  0.94613  0.05478  0.73032  1.0000
  C   C1287     1.0  0.82394  0.01320  0.56291  1.0000
  H   H2134     1.0  0.97917  0.05171  0.72501  1.0000
  H   H2135     1.0  0.80069  0.05970  0.55440  1.0000
  H   H2136     1.0  0.83181  0.04227  0.55315  1.0000
  C   C1288     1.0  0.53822  0.15486  0.74085  1.0000
  H   H2137     1.0  0.55637  0.25970  0.69965  1.0000
  H   H2138     1.0  0.79417  0.12777  0.50231  1.0000
  H   H2139     1.0  0.54371  0.20994  0.71679  1.0000
  H   H2140     1.0  0.73163  0.24988  0.65657  1.0000
  H   H2141     1.0  0.72450  0.22602  0.65660  1.0000
  H   H2142     1.0  0.70891  0.24420  0.67017  1.0000
  H   H2143     1.0  0.69141  0.21786  0.67091  1.0000
  C   C1289     1.0  0.83677  0.06017  0.59908  1.0000
  H   H2144     1.0  0.68017  0.21091  0.60892  1.0000
  C   C1290     1.0  0.54565  0.19419  0.72265  1.0000
  C   C1291     1.0  0.97400  0.02458  0.71182  1.0000
  H   H2145     1.0  0.85569  0.13796  0.69221  1.0000
  H   H2146     1.0  0.69049  0.19050  0.62407  1.0000
  C   C1292     1.0  0.68387  0.20599  0.62414  1.0000
  C   C1293     1.0  0.85540  0.15400  0.69199  1.0000
  C   C1294     1.0  0.62560  0.32200  0.67384  1.0000
  C   C1295     1.0  0.67800  0.27155  0.61440  1.0000
  H   H2147     1.0  0.70332  0.26527  0.64001  1.0000
  C   C1296     1.0  0.69905  0.21834  0.63015  1.0000
  H   H2148     1.0  0.83663  0.01967  0.60406  1.0000
  H   H2149     1.0  0.70557  0.20988  0.64291  1.0000
  N   N89       1.0  0.50978  0.29168  0.61595  1.0000
  C   C1297     1.0  0.73275  0.28510  0.58717  1.0000
  H   H2150     1.0  0.91331  0.08901  0.52979  1.0000
  H   H2151     1.0  0.66822  0.27581  0.62756  1.0000
  H   H2152     1.0  0.66665  0.21298  0.66836  1.0000
  H   H2153     1.0  0.67018  0.24285  0.61233  1.0000
  N   N90       1.0  0.60626  0.31325  0.67886  1.0000
  C   C1298     1.0  0.92592  0.09100  0.55622  1.0000
  C   C1299     1.0  0.55350  0.28693  0.71273  1.0000
  H   H2154     1.0  0.79410  0.21792  0.72666  1.0000
  C   C1300     1.0  0.96335  0.15679  0.63777  1.0000
  H   H2155     1.0  0.97748  0.08432  0.51300  1.0000
  H   H2156     1.0  0.71975  0.24981  0.62508  1.0000
  H   H2157     1.0  0.69134  0.27957  0.61236  1.0000
  H   H2158     1.0  0.67071  0.23172  0.68232  1.0000
  N   N91       1.0  0.93837  0.10562  0.52075  1.0000
  C   C1301     1.0  0.97658  0.05219  0.68444  1.0000
  C   C1302     1.0  0.70673  0.28696  0.56600  1.0000
  C   C1303     1.0  0.67637  0.22469  0.66874  1.0000
  H   H2159     1.0  0.97067  0.18539  0.64475  1.0000
  C   C1304     1.0  0.79577  0.05074  0.56831  1.0000
  H   H2160     1.0  0.54391  0.29460  0.70232  1.0000
  H   H2161     1.0  0.61595  0.27124  0.67464  1.0000
  H   H2162     1.0  0.97277  0.13692  0.59423  1.0000
  H   H2163     1.0  0.84154  0.15975  0.70041  1.0000
  C   C1305     1.0  0.77060  0.24091  0.72902  1.0000
  H   H2164     1.0  0.55178  0.15623  0.73033  1.0000
  H   H2165     1.0  0.67270  0.25491  0.65589  1.0000
  H   H2166     1.0  0.97925  0.18725  0.53389  1.0000
  H   H2167     1.0  0.54681  0.29836  0.59306  1.0000
  C   C1306     1.0  0.94397  0.04527  0.70128  1.0000
  H   H2168     1.0  0.71156  0.21841  0.61818  1.0000
  C   C1307     1.0  0.92845  0.08964  0.53381  1.0000
  H   H2169     1.0  0.78074  0.25135  0.72104  1.0000
  H   H2170     1.0  0.75329  0.29900  0.54589  1.0000
  H   H2171     1.0  0.50601  0.28713  0.58591  1.0000
  H   H2172     1.0  0.92648  0.06740  0.71760  1.0000
  C   C1308     1.0  0.97543  0.15240  0.59464  1.0000
  H   H2173     1.0  0.90960  0.12245  0.51984  1.0000
  C   C1309     1.0  0.80967  0.12869  0.49578  1.0000
  C   C1310     1.0  0.92528  0.12488  0.52033  1.0000
  H   H2174     1.0  0.99432  0.11760  0.62303  1.0000
  H   H2175     1.0  0.85137  0.15396  0.54343  1.0000
  H   H2176     1.0  0.92933  0.13459  0.50665  1.0000
  H   H2177     1.0  0.79340  0.14375  0.53024  1.0000
  H   H2178     1.0  0.95719  0.11377  0.54132  1.0000
  H   H2179     1.0  0.82047  0.02378  0.62583  1.0000
  H   H2180     1.0  0.78023  0.07728  0.58103  1.0000
  H   H2181     1.0  0.74159  0.29225  0.59560  1.0000
  H   H2182     1.0  0.88078  0.11780  0.50412  1.0000
  C   C1311     1.0  0.78815  0.17325  0.53814  1.0000
  H   H2183     1.0  0.54353  0.18552  0.71059  1.0000
  S   S371      1.0  0.85804  0.23407  0.74298  1.0000
  N   N92       1.0  0.98337  0.14694  0.63078  1.0000
  C   C1312     1.0  0.57269  0.25668  0.72494  1.0000
  H   H2184     1.0  0.91140  0.09899  0.56091  1.0000
  C   C1313     1.0  0.55819  0.29646  0.72812  1.0000
  C   C1314     1.0  0.98189  0.12514  0.63214  1.0000
  H   H2185     1.0  0.81797  0.00379  0.61248  1.0000
  H   H2186     1.0  0.79877  0.17283  0.54907  1.0000
  C   C1315     1.0  0.97324  0.08971  0.52762  1.0000
  H   H2187     1.0  0.96767  0.07783  0.53845  1.0000
  H   H2188     1.0  0.77459  0.17631  0.71867  1.0000
  H   H2189     1.0  0.84305  0.03101  0.57367  1.0000
  C   C1316     1.0  0.57237  0.31998  0.52810  1.0000
  H   H2190     1.0  0.63673  0.31181  0.66594  1.0000
  C   C1317     1.0  0.76882  0.19206  0.71644  1.0000
  N   N93       1.0  0.84488  0.16081  0.65634  1.0000
  C   C1318     1.0  0.84254  0.17854  0.64132  1.0000
  C   C1319     1.0  0.82449  0.15687  0.66571  1.0000
  C   C1320     1.0  0.85389  0.14371  0.64530  1.0000
  C   C1321     1.0  0.85816  0.16495  0.67104  1.0000
  C   C1322     1.0  0.86157  0.18428  0.62868  1.0000
  C   C1323     1.0  0.81194  0.17442  0.67465  1.0000
  C   C1324     1.0  0.85757  0.12373  0.65760  1.0000
  H   H2191     1.0  0.83163  0.17669  0.63103  1.0000
  H   H2192     1.0  0.83650  0.19168  0.64875  1.0000
  H   H2193     1.0  0.82504  0.14446  0.67755  1.0000
  H   H2194     1.0  0.81582  0.15217  0.65469  1.0000
  H   H2195     1.0  0.84453  0.14170  0.63363  1.0000
  H   H2196     1.0  0.86862  0.14651  0.63753  1.0000
  H   H2197     1.0  0.87389  0.16170  0.66527  1.0000
  H   H2198     1.0  0.85657  0.18088  0.67313  1.0000
  H   H2199     1.0  0.86665  0.17403  0.61742  1.0000
  H   H2200     1.0  0.85830  0.19894  0.62040  1.0000
  H   H2201     1.0  0.87361  0.18544  0.63778  1.0000
  H   H2202     1.0  0.79940  0.16907  0.68481  1.0000
  H   H2203     1.0  0.80540  0.18479  0.66294  1.0000
  H   H2204     1.0  0.86203  0.11227  0.64739  1.0000
  H   H2205     1.0  0.84427  0.11928  0.66705  1.0000
  H   H2206     1.0  0.87015  0.12355  0.66641  1.0000
  H   H2207     1.0  0.52523  0.31656  0.62022  1.0000
  H   H2208     1.0  0.77406  0.16924  0.54654  1.0000
  H   H2209     1.0  0.75065  0.32279  0.51693  1.0000
  C   C1325     1.0  0.79473  0.15873  0.52262  1.0000
  H   H2210     1.0  0.75779  0.19376  0.70557  1.0000
  C   C1326     1.0  0.59980  0.30791  0.66017  1.0000
  S   S372      1.0  0.57943  0.23130  0.72341  1.0000
  H   H2211     1.0  0.82695  0.13390  0.52891  1.0000
  C   C1327     1.0  0.54318  0.27734  0.62944  1.0000
  H   H2212     1.0  0.93780  0.09760  0.56171  1.0000
  S   S373      1.0  0.97982  0.09631  0.57655  1.0000
  H   H2213     1.0  0.78313  0.16126  0.51226  1.0000
  C   C1328     1.0  0.96105  0.17944  0.63558  1.0000
  H   H2214     1.0  0.56787  0.30655  0.66811  1.0000
  H   H2215     1.0  0.99278  0.22905  0.59680  1.0000
  C   C1329     1.0  0.98098  0.11422  0.65312  1.0000
  H   H2216     1.0  0.82655  0.07121  0.57098  1.0000
  H   H2217     1.0  0.99332  0.14829  0.65951  1.0000
  H   H2218     1.0  0.56104  0.19071  0.72636  1.0000
  H   H2219     1.0  0.98699  0.09339  0.53272  1.0000
  H   H2220     1.0  0.54337  0.29221  0.63377  1.0000
  H   H2221     1.0  0.51579  0.19054  0.73489  1.0000
  H   H2222     1.0  0.93598  0.07480  0.53130  1.0000
  H   H2223     1.0  0.98213  0.15767  0.57968  1.0000
  H   H2224     1.0  0.82663  0.15206  0.55498  1.0000
  C   C1330     1.0  0.99697  0.99885  0.63485  1.0000
  H   H2225     1.0  0.96116  0.16152  0.59739  1.0000
  H   H2226     1.0  0.77111  0.05438  0.59215  1.0000
  C   C1331     1.0  0.52503  0.27429  0.61910  1.0000
  H   H2227     1.0  0.82032  0.00316  0.57632  1.0000
  H   H2228     1.0  0.63214  0.32404  0.68743  1.0000
  H   H2229     1.0  0.92646  0.07592  0.56401  1.0000
  H   H2230     1.0  0.52581  0.15534  0.73164  1.0000
  H   H2231     1.0  0.82053  0.18261  0.68297  1.0000
  H   H2232     1.0  0.51383  0.28243  0.65867  1.0000
  C   C1332     1.0  0.70826  0.24964  0.63800  1.0000
  C   C1333     1.0  0.95829  0.10826  0.52670  1.0000
  N   N94       1.0  0.81499  0.15982  0.51144  1.0000
  H   H2233     1.0  0.81194  0.01456  0.55323  1.0000
  C   C1334     1.0  0.67471  0.24013  0.65054  1.0000
  C   C1335     1.0  0.94179  0.09965  0.50004  1.0000
  H   H2234     1.0  0.93985  0.14404  0.53620  1.0000
  C   C1336     1.0  0.51860  0.31060  0.60858  1.0000
  C   C1337     1.0  0.62244  0.27761  0.68612  1.0000
  H   H2235     1.0  0.93474  0.03386  0.70894  1.0000
  H   H2236     1.0  0.59473  0.29025  0.69993  1.0000
  H   H2237     1.0  0.86771  0.15658  0.70018  1.0000
  C   C1338     1.0  0.82120  0.01935  0.61072  1.0000
  H   H2238     1.0  0.83346  0.17410  0.54014  1.0000
  H   H2239     1.0  0.98269  0.02920  0.74023  1.0000
  N   N95       1.0  0.69133  0.23908  0.63403  1.0000
  H   H2240     1.0  0.62386  0.26585  0.69861  1.0000
  H   H2241     1.0  0.96886  0.12082  0.66321  1.0000
  S   S374      1.0  0.89719  0.20155  0.73753  1.0000
  H   H2242     1.0  0.84254  0.07453  0.59927  1.0000
  H   H2243     1.0  0.78072  0.20072  0.70918  1.0000
  H   H2244     1.0  0.80872  0.07300  0.59179  1.0000
  H   H2245     1.0  0.54409  0.26688  0.64300  1.0000
  C   C1339     1.0  0.77741  0.06241  0.57833  1.0000
  C   C1340     1.0  0.60916  0.29542  0.69368  1.0000
  H   H2246     1.0  0.95160  0.15213  0.63006  1.0000
  C   C1341     1.0  0.75875  0.19928  0.73594  1.0000
  C   C1342     1.0  0.80557  0.18498  0.74519  1.0000
  H   H2247     1.0  0.63753  0.28123  0.68051  1.0000
  H   H2248     1.0  0.61583  0.29911  0.70656  1.0000
  C   C1343     1.0  0.98942  0.18462  0.52096  1.0000
  H   H2249     1.0  0.76092  0.24900  0.74012  1.0000
  S   S375      1.0  0.71433  0.32201  0.57805  1.0000
  C   C1344     1.0  0.53035  0.19031  0.74066  1.0000
  H   H2250     1.0  0.51557  0.30846  0.65116  1.0000
  H   H2251     1.0  0.54069  0.32414  0.58785  1.0000
  C   C1345     1.0  0.50585  0.29655  0.65317  1.0000
  H   H2252     1.0  0.98542  0.01307  0.70626  1.0000
  N   N96       1.0  0.96452  0.03630  0.69476  1.0000
  H   H2253     1.0  0.54652  0.12335  0.74085  1.0000
  H   H2254     1.0  0.99519  0.11353  0.65948  1.0000
  H   H2255     1.0  0.57669  0.32072  0.69275  1.0000
  H   H2256     1.0  0.81697  0.18972  0.51783  1.0000
  H   H2257     1.0  0.96843  0.06107  0.67279  1.0000
  H   H2258     1.0  0.57004  0.30653  0.53833  1.0000
  H   H2259     1.0  0.97887  0.06301  0.69435  1.0000
  C   C1346     1.0  0.98459  0.03603  0.72473  1.0000
  H   H2260     1.0  0.81543  0.19674  0.74462  1.0000
  H   H2261     1.0  0.52805  0.30782  0.57699  1.0000
  C   C1347     1.0  0.98982  0.15432  0.60975  1.0000
  H   H2262     1.0  0.87854  0.28625  0.74210  1.0000
  H   H2263     1.0  0.58250  0.28312  0.67241  1.0000
  H   H2264     1.0  0.55862  0.32341  0.52097  1.0000
  H   H2265     1.0  0.96289  0.01651  0.72175  1.0000
  H   H2266     1.0  0.74608  0.21034  0.73246  1.0000
  H   H2267     1.0  0.99285  0.16994  0.60841  1.0000
  H   H2268     1.0  0.93293  0.01266  0.68694  1.0000
  C   C1348     1.0  0.94866  0.00647  0.68621  1.0000
  H   H2269     1.0  0.76180  0.23676  0.71795  1.0000
  H   H2270     1.0  0.81975  0.11865  0.50476  1.0000
  H   H2271     1.0  0.94931  0.08445  0.49989  1.0000
  C   C1349     1.0  0.78307  0.22301  0.73859  1.0000
  H   H2272     1.0  0.50673  0.32234  0.60444  1.0000
  S   S376      1.0  0.54832  0.32092  0.73138  1.0000
  H   H2273     1.0  0.51669  0.27096  0.72383  1.0000
  H   H2274     1.0  0.95186  0.99801  0.70043  1.0000
  C   C1350     1.0  0.75884  0.31356  0.54553  1.0000
  H   H2275     1.0  0.59662  0.32130  0.64986  1.0000
  H   H2276     1.0  0.75671  0.31722  0.56094  1.0000
  H   H2277     1.0  0.95072  0.99591  0.67493  1.0000
  H   H2278     1.0  0.77475  0.31160  0.54011  1.0000
  S   S377      1.0  0.91006  0.25310  0.74399  1.0000
  H   H2279     1.0  0.59815  0.32500  0.71845  1.0000
  H   H2280     1.0  0.51467  0.28800  0.74141  1.0000
  H   H2281     1.0  0.50591  0.23433  0.73217  1.0000
  C   C1351     1.0  0.51037  0.27340  0.73912  1.0000
  H   H2282     1.0  0.73118  0.32718  0.53593  1.0000
  H   H2283     1.0  0.53408  0.24992  0.74461  1.0000
  H   H2284     1.0  0.80681  0.18820  0.49586  1.0000
  N   N97       1.0  0.69689  0.27974  0.94703  1.0000
  H   H2285     1.0  0.68772  0.22280  0.95715  1.0000
  C   C1352     1.0  0.51764  0.09144  0.87057  1.0000
  H   H2286     1.0  0.61724  0.01347  0.85537  1.0000
  Fe  Fe185     1.0  0.74345  0.22968  0.88880  1.0000
  S   S378      1.0  0.76567  0.20511  0.87891  1.0000
  Fe  Fe186     1.0  0.86475  0.20149  0.74795  1.0000
  Fe  Fe187     1.0  0.71193  0.21685  0.86521  1.0000
  S   S379      1.0  0.73222  0.19180  0.85387  1.0000
  S   S380      1.0  0.67975  0.21961  0.85951  1.0000
  Fe  Fe188     1.0  0.74076  0.18572  0.88480  1.0000
  S   S381      1.0  0.74103  0.15753  0.90610  1.0000
  Fe  Fe189     1.0  0.75498  0.21351  0.84897  1.0000
  S   S382      1.0  0.77202  0.22239  0.81945  1.0000
  S   S383      1.0  0.71925  0.20986  0.89637  1.0000
  S   S384      1.0  0.73390  0.23916  0.85860  1.0000
  Fe  Fe190     1.0  0.64956  0.03953  0.90848  1.0000
  S   S385      1.0  0.67861  0.02862  0.92032  1.0000
  S   S386      1.0  0.63850  0.02472  0.88487  1.0000
  Fe  Fe191     1.0  0.64219  0.07297  0.93406  1.0000
  S   S387      1.0  0.67010  0.06419  0.94839  1.0000
  S   S388      1.0  0.62221  0.10031  0.93978  1.0000
  Fe  Fe192     1.0  0.68380  0.06077  0.91746  1.0000
  S   S389      1.0  0.70978  0.07511  0.90012  1.0000
  Fe  Fe193     1.0  0.66192  0.03331  0.95010  1.0000
  S   S390      1.0  0.65927  0.01581  0.98058  1.0000
  S   S391      1.0  0.65610  0.07082  0.90332  1.0000
  S   S392      1.0  0.63274  0.04269  0.93808  1.0000
  Fe  Fe194     1.0  0.52079  0.01563  0.81208  1.0000
  S   S393      1.0  0.50758  0.03016  0.83892  1.0000
  C   C1353     1.0  0.76642  0.29556  0.93251  1.0000
  Fe  Fe195     1.0  0.54920  0.04845  0.79988  1.0000
  S   S394      1.0  0.53708  0.06424  0.82585  1.0000
  H   H2287     1.0  0.59987  0.07843  0.87941  1.0000
  Fe  Fe196     1.0  0.53848  0.03483  0.84335  1.0000
  S   S395      1.0  0.54717  0.03433  0.87416  1.0000
  H   H2288     1.0  0.92155  0.32482  0.91207  1.0000
  H   H2289     1.0  0.54982  0.20308  0.98682  1.0000
  S   S396      1.0  0.55233  0.01860  0.81786  1.0000
  S   S397      1.0  0.51941  0.04369  0.79131  1.0000
  H   H2290     1.0  0.50407  0.16623  0.76027  1.0000
  S   S398      1.0  0.60915  0.20232  0.76918  1.0000
  S   S399      1.0  0.66686  0.21201  0.77082  1.0000
  H   H2291     1.0  0.89797  0.25531  0.79155  1.0000
  H   H2292     1.0  0.96266  0.32435  0.90331  1.0000
  H   H2293     1.0  0.91383  0.25414  0.82128  1.0000
  H   H2294     1.0  0.62727  0.05887  0.97795  1.0000
  H   H2295     1.0  0.88416  0.27105  0.80774  1.0000
  H   H2296     1.0  0.64729  0.11893  0.98992  1.0000
  C   C1354     1.0  0.54099  0.13395  0.75172  1.0000
  C   C1355     1.0  0.64000  0.14915  0.95600  1.0000
  H   H2297     1.0  0.54506  0.19968  0.77770  1.0000
  C   C1356     1.0  0.52140  0.12263  0.80678  1.0000
  H   H2298     1.0  0.52683  0.12923  0.75925  1.0000
  Fe  Fe197     1.0  0.51509  0.16975  0.84934  1.0000
  H   H2299     1.0  0.53380  0.12545  0.79607  1.0000
  C   C1357     1.0  0.70338  0.26533  0.93206  1.0000
  C   C1358     1.0  0.51078  0.10674  0.80560  1.0000
  H   H2300     1.0  0.51514  0.07582  0.90735  1.0000
  C   C1359     1.0  0.57406  0.11833  0.79488  1.0000
  C   C1360     1.0  0.56886  0.09932  0.79406  1.0000
  H   H2301     1.0  0.56681  0.12692  0.80638  1.0000
  H   H2302     1.0  0.55774  0.09356  0.80487  1.0000
  C   C1361     1.0  0.61302  0.02716  0.88237  1.0000
  C   C1362     1.0  0.59915  0.03601  0.89610  1.0000
  C   C1363     1.0  0.57896  0.03792  0.89356  1.0000
  C   C1364     1.0  0.57255  0.03141  0.87707  1.0000
  C   C1365     1.0  0.58643  0.02267  0.86326  1.0000
  C   C1366     1.0  0.60658  0.02033  0.86606  1.0000
  H   H2303     1.0  0.60396  0.04148  0.90863  1.0000
  H   H2304     1.0  0.56828  0.04473  0.90426  1.0000
  H   H2305     1.0  0.61422  0.00627  0.92758  1.0000
  H   H2306     1.0  0.69442  0.24943  0.90989  1.0000
  C   C1367     1.0  0.67609  0.21661  0.83507  1.0000
  C   C1368     1.0  0.69182  0.21708  0.82017  1.0000
  C   C1369     1.0  0.68868  0.21537  0.80066  1.0000
  C   C1370     1.0  0.66992  0.21272  0.79589  1.0000
  C   C1371     1.0  0.65421  0.21166  0.81088  1.0000
  C   C1372     1.0  0.65726  0.21381  0.83041  1.0000
  H   H2307     1.0  0.70634  0.21932  0.82356  1.0000
  H   H2308     1.0  0.70083  0.21633  0.78913  1.0000
  H   H2309     1.0  0.63967  0.20985  0.80726  1.0000
  H   H2310     1.0  0.64502  0.21360  0.84186  1.0000
  C   C1373     1.0  0.72995  0.13596  0.90371  1.0000
  C   C1374     1.0  0.73015  0.12878  0.88548  1.0000
  C   C1375     1.0  0.72322  0.11048  0.88449  1.0000
  C   C1376     1.0  0.71558  0.09934  0.90162  1.0000
  C   C1377     1.0  0.71468  0.10689  0.91974  1.0000
  C   C1378     1.0  0.72207  0.12494  0.92079  1.0000
  H   H2311     1.0  0.73649  0.13687  0.87223  1.0000
  H   H2312     1.0  0.72433  0.10463  0.87044  1.0000
  H   H2313     1.0  0.70928  0.09830  0.93308  1.0000
  H   H2314     1.0  0.72199  0.13022  0.93499  1.0000
  C   C1379     1.0  0.83056  0.19575  0.78914  1.0000
  C   C1380     1.0  0.82228  0.18612  0.80685  1.0000
  C   C1381     1.0  0.80449  0.19419  0.81672  1.0000
  C   C1382     1.0  0.79501  0.21201  0.80891  1.0000
  C   C1383     1.0  0.80355  0.22179  0.79149  1.0000
  C   C1384     1.0  0.82110  0.21363  0.78158  1.0000
  H   H2315     1.0  0.82950  0.17226  0.81283  1.0000
  H   H2316     1.0  0.79798  0.18652  0.83014  1.0000
  H   H2317     1.0  0.79636  0.23562  0.78541  1.0000
  H   H2318     1.0  0.82699  0.22106  0.76787  1.0000
  H   H2319     1.0  0.62039  0.18100  0.84094  1.0000
  H   H2320     1.0  0.51056  0.10529  0.87613  1.0000
  C   C1385     1.0  0.88799  0.25528  0.80560  1.0000
  H   H2321     1.0  0.79580  0.27335  0.96014  1.0000
  H   H2322     1.0  0.58528  0.18256  0.87184  1.0000
  H   H2323     1.0  0.88819  0.22498  0.77171  1.0000
  H   H2324     1.0  0.70394  0.21138  0.93856  1.0000
  S   S400      1.0  0.84651  0.32590  0.96382  1.0000
  H   H2325     1.0  0.60282  0.18356  0.94618  1.0000
  H   H2326     1.0  0.58944  0.13861  0.85776  1.0000
  H   H2327     1.0  0.67408  0.31137  0.96350  1.0000
  S   S401      1.0  0.57317  0.06308  0.77907  1.0000
  C   C1386     1.0  0.63684  0.11818  0.94401  1.0000
  C   C1387     1.0  0.65740  0.11430  0.94187  1.0000
  C   C1388     1.0  0.66910  0.12691  0.94843  1.0000
  H   H2328     1.0  0.66439  0.10174  0.93497  1.0000
  H   H2329     1.0  0.68491  0.12326  0.94785  1.0000
  H   H2330     1.0  0.53771  0.21515  0.92740  1.0000
  C   C1389     1.0  0.68898  0.29903  0.93655  1.0000
  C   C1390     1.0  0.50540  0.06437  0.90605  1.0000
  S   S402      1.0  0.58888  0.21465  0.97224  1.0000
  H   H2331     1.0  0.56323  0.20080  0.75650  1.0000
  H   H2332     1.0  0.96024  0.27334  0.96092  1.0000
  C   C1391     1.0  0.59765  0.11511  0.76620  1.0000
  H   H2333     1.0  0.55295  0.14895  0.98546  1.0000
  H   H2334     1.0  0.98361  0.28015  0.96593  1.0000
  H   H2335     1.0  0.65374  0.26021  0.96599  1.0000
  C   C1392     1.0  0.81158  0.23817  0.99347  1.0000
  C   C1393     1.0  0.50017  0.13077  0.83594  1.0000
  C   C1394     1.0  0.56931  0.20424  0.81730  1.0000
  H   H2336     1.0  0.67597  0.29764  0.92894  1.0000
  C   C1395     1.0  0.68725  0.25918  0.92103  1.0000
  H   H2337     1.0  0.96332  0.29816  0.96483  1.0000
  H   H2338     1.0  0.75811  0.18897  0.78847  1.0000
  H   H2339     1.0  0.53473  0.18438  0.98640  1.0000
  H   H2340     1.0  0.50639  0.19849  0.77463  1.0000
  C   C1396     1.0  0.61341  0.99720  0.95895  1.0000
  H   H2341     1.0  0.74669  0.22605  0.76057  1.0000
  H   H2342     1.0  0.76702  0.22281  0.77479  1.0000
  H   H2343     1.0  0.71107  0.29386  0.96735  1.0000
  H   H2344     1.0  0.77353  0.19978  0.93893  1.0000
  H   H2345     1.0  0.62652  0.00413  0.96138  1.0000
  H   H2346     1.0  0.60903  0.04592  0.82011  1.0000
  S   S403      1.0  0.99503  0.32670  0.96059  1.0000
  H   H2347     1.0  0.97762  0.24438  0.97796  1.0000
  H   H2348     1.0  0.58708  0.25843  0.75073  1.0000
  H   H2349     1.0  0.76594  0.21035  0.99014  1.0000
  C   C1397     1.0  0.75848  0.21494  0.76602  1.0000
  H   H2350     1.0  0.49945  0.28771  0.77455  1.0000
  C   C1398     1.0  0.61524  0.08157  0.87442  1.0000
  H   H2351     1.0  0.80570  0.29665  0.95232  1.0000
  H   H2352     1.0  0.56959  0.18850  0.77945  1.0000
  H   H2353     1.0  0.75790  0.18147  0.97933  1.0000
  H   H2354     1.0  0.57816  0.14952  0.97578  1.0000
  H   H2355     1.0  0.57140  0.21363  0.80306  1.0000
  H   H2356     1.0  0.62425  0.16374  0.81307  1.0000
  C   C1399     1.0  0.61827  0.15559  0.82703  1.0000
  H   H2357     1.0  0.99209  0.30606  0.76937  1.0000
  H   H2358     1.0  0.70016  0.30422  0.92446  1.0000
  H   H2359     1.0  0.52877  0.20332  0.74898  1.0000
  H   H2360     1.0  0.79200  0.22844  0.74892  1.0000
  H   H2361     1.0  0.83474  0.26228  0.96568  1.0000
  C   C1400     1.0  0.57525  0.14809  0.85859  1.0000
  S   S404      1.0  0.85268  0.18527  0.77673  1.0000
  H   H2362     1.0  0.94509  0.27544  0.99297  1.0000
  H   H2363     1.0  0.57419  0.29334  0.75367  1.0000
  C   C1401     1.0  0.51691  0.16801  0.76820  1.0000
  H   H2364     1.0  0.60042  0.00802  0.96216  1.0000
  H   H2365     1.0  0.71335  0.17249  0.95547  1.0000
  H   H2366     1.0  0.85938  0.28426  0.98380  1.0000
  H   H2367     1.0  0.56647  0.16540  0.75561  1.0000
  Fe  Fe198     1.0  0.65575  0.17846  0.98553  1.0000
  H   H2368     1.0  0.51303  0.24684  0.76182  1.0000
  H   H2369     1.0  0.68952  0.19691  0.95760  1.0000
  H   H2370     1.0  0.99302  0.29710  0.99534  1.0000
  C   C1402     1.0  0.58309  0.19160  0.85760  1.0000
  C   C1403     1.0  0.51007  0.18371  0.78235  1.0000
  H   H2371     1.0  0.71993  0.22299  0.96607  1.0000
  H   H2372     1.0  0.73876  0.20802  0.79248  1.0000
  C   C1404     1.0  0.96085  0.27818  0.99193  1.0000
  N   N98       1.0  0.66742  0.16494  0.88983  1.0000
  C   C1405     1.0  0.66980  0.17695  0.90623  1.0000
  C   C1406     1.0  0.64921  0.17417  0.88058  1.0000
  C   C1407     1.0  0.68555  0.16593  0.87503  1.0000
  C   C1408     1.0  0.66558  0.14412  0.89877  1.0000
  C   C1409     1.0  0.68902  0.17178  0.91609  1.0000
  C   C1410     1.0  0.62962  0.17411  0.89428  1.0000
  C   C1411     1.0  0.68355  0.16221  0.85372  1.0000
  C   C1412     1.0  0.66116  0.12935  0.88518  1.0000
  H   H2373     1.0  0.66910  0.19289  0.90074  1.0000
  H   H2374     1.0  0.65768  0.17544  0.91843  1.0000
  H   H2375     1.0  0.64693  0.16705  0.86757  1.0000
  H   H2376     1.0  0.65102  0.18973  0.87472  1.0000
  H   H2377     1.0  0.69098  0.18064  0.87374  1.0000
  H   H2378     1.0  0.69795  0.15544  0.88014  1.0000
  H   H2379     1.0  0.67949  0.13758  0.90489  1.0000
  H   H2380     1.0  0.65438  0.14364  0.91182  1.0000
  H   H2381     1.0  0.68918  0.18182  0.92747  1.0000
  H   H2382     1.0  0.69031  0.15668  0.92364  1.0000
  H   H2383     1.0  0.70215  0.17380  0.90545  1.0000
  H   H2384     1.0  0.62642  0.15906  0.90038  1.0000
  H   H2385     1.0  0.62924  0.18342  0.90643  1.0000
  H   H2386     1.0  0.69838  0.16200  0.84517  1.0000
  H   H2387     1.0  0.67408  0.17431  0.84625  1.0000
  H   H2388     1.0  0.67809  0.14798  0.85277  1.0000
  H   H2389     1.0  0.67511  0.12214  0.87805  1.0000
  H   H2390     1.0  0.65142  0.13573  0.87387  1.0000
  H   H2391     1.0  0.65302  0.11780  0.89422  1.0000
  C   C1413     1.0  0.86067  0.25494  0.78588  1.0000
  C   C1414     1.0  0.85179  0.27656  0.78616  1.0000
  H   H2392     1.0  0.87188  0.25469  0.77278  1.0000
  H   H2393     1.0  0.84885  0.24644  0.78263  1.0000
  H   H2394     1.0  0.90595  0.22214  0.78946  1.0000
  H   H2395     1.0  0.67918  0.27176  0.91278  1.0000
  H   H2396     1.0  0.83889  0.27829  0.79740  1.0000
  H   H2397     1.0  0.84643  0.28180  0.77161  1.0000
  C   C1415     1.0  0.89014  0.29025  0.74971  1.0000
  N   N99       1.0  0.61192  0.08199  0.83728  1.0000
  C   C1416     1.0  0.61263  0.09573  0.81849  1.0000
  C   C1417     1.0  0.59128  0.07601  0.84201  1.0000
  C   C1418     1.0  0.62616  0.06381  0.83504  1.0000
  C   C1419     1.0  0.61758  0.09247  0.85345  1.0000
  C   C1420     1.0  0.63318  0.10151  0.80977  1.0000
  C   C1421     1.0  0.57500  0.09235  0.84788  1.0000
  H   H2398     1.0  0.53070  0.08567  0.87841  1.0000
  H   H2399     1.0  0.76026  0.21848  0.96550  1.0000
  H   H2400     1.0  0.60634  0.08944  0.80677  1.0000
  H   H2401     1.0  0.60326  0.10974  0.82068  1.0000
  H   H2402     1.0  0.59078  0.06370  0.85402  1.0000
  H   H2403     1.0  0.58646  0.07018  0.82913  1.0000
  H   H2404     1.0  0.64174  0.06732  0.83335  1.0000
  H   H2405     1.0  0.62492  0.05336  0.84861  1.0000
  H   H2406     1.0  0.61134  0.16198  0.85745  1.0000
  H   H2407     1.0  0.60891  0.10712  0.85390  1.0000
  H   H2408     1.0  0.64329  0.08872  0.80517  1.0000
  H   H2409     1.0  0.63144  0.11191  0.79626  1.0000
  H   H2410     1.0  0.64008  0.10920  0.81997  1.0000
  H   H2411     1.0  0.57716  0.09812  0.86173  1.0000
  H   H2412     1.0  0.57354  0.10463  0.83606  1.0000
  H   H2413     1.0  0.56701  0.19660  0.85873  1.0000
  H   H2414     1.0  0.62525  0.06071  0.80336  1.0000
  C   C1422     1.0  0.82517  0.27575  0.96956  1.0000
  C   C1423     1.0  0.59404  0.20993  0.85745  1.0000
  C   C1424     1.0  0.55185  0.20817  0.93144  1.0000
  H   H2415     1.0  0.89291  0.20207  0.78613  1.0000
  H   H2416     1.0  0.60083  0.20210  0.81916  1.0000
  H   H2417     1.0  0.82596  0.24364  0.83635  1.0000
  Fe  Fe199     1.0  0.50787  0.05786  0.81857  1.0000
  C   C1425     1.0  0.57458  0.16455  0.84134  1.0000
  N   N100      1.0  0.58915  0.17945  0.84060  1.0000
  S   S405      1.0  0.51521  0.15731  0.88089  1.0000
  C   C1426     1.0  0.90379  0.31481  0.76588  1.0000
  C   C1427     1.0  0.89144  0.21824  0.78653  1.0000
  C   C1428     1.0  0.58908  0.19198  0.82110  1.0000
  N   N101      1.0  0.53481  0.17149  0.75373  1.0000
  H   H2418     1.0  0.50891  0.05214  0.93610  1.0000
  H   H2419     1.0  0.61728  0.18053  0.88572  1.0000
  H   H2420     1.0  0.57600  0.15761  0.82735  1.0000
  H   H2421     1.0  0.58856  0.21707  0.87102  1.0000
  H   H2422     1.0  0.71061  0.25137  0.93896  1.0000
  S   S406      1.0  0.75201  0.24611  0.91319  1.0000
  C   C1429     1.0  0.60981  0.16975  0.84246  1.0000
  H   H2423     1.0  0.60004  0.08720  0.75421  1.0000
  C   C1430     1.0  0.83523  0.24055  0.82244  1.0000
  C   C1431     1.0  0.68239  0.27148  0.96328  1.0000
  H   H2424     1.0  0.56406  0.21423  0.82875  1.0000
  H   H2425     1.0  0.59107  0.22102  0.84480  1.0000
  H   H2426     1.0  0.71462  0.27136  0.92065  1.0000
  C   C1432     1.0  0.76351  0.18815  0.93960  1.0000
  C   C1433     1.0  0.90030  0.24645  0.82253  1.0000
  H   H2427     1.0  0.81655  0.30651  0.98829  1.0000
  C   C1434     1.0  0.73814  0.15457  0.96529  1.0000
  C   C1435     1.0  0.71503  0.28347  0.95595  1.0000
  H   H2428     1.0  0.61226  0.13948  0.95133  1.0000
  N   N102      1.0  0.86973  0.24558  0.80412  1.0000
  C   C1436     1.0  0.87466  0.22389  0.80249  1.0000
  H   H2429     1.0  0.89220  0.24874  0.83716  1.0000
  H   H2430     1.0  0.70760  0.20607  0.98343  1.0000
  H   H2431     1.0  0.93487  0.27240  0.76451  1.0000
  H   H2432     1.0  0.55189  0.16134  0.77835  1.0000
  C   C1437     1.0  0.75394  0.21260  0.98032  1.0000
  C   C1438     1.0  0.52171  0.25804  0.75325  1.0000
  C   C1439     1.0  0.57825  0.08780  0.77956  1.0000
  H   H2433     1.0  0.87844  0.21581  0.81678  1.0000
  H   H2434     1.0  0.86156  0.21736  0.79906  1.0000
  H   H2435     1.0  0.65387  0.06823  0.99250  1.0000
  H   H2436     1.0  0.74563  0.15416  0.95010  1.0000
  C   C1440     1.0  0.57907  0.20606  0.95222  1.0000
  H   H2437     1.0  0.74276  0.31789  0.89392  1.0000
  C   C1441     1.0  0.58870  0.19056  0.94213  1.0000
  H   H2438     1.0  0.76573  0.18316  0.92462  1.0000
  C   C1442     1.0  0.80935  0.28050  0.95518  1.0000
  H   H2439     1.0  0.90527  0.23065  0.82189  1.0000
  H   H2440     1.0  0.58163  0.01754  0.85054  1.0000
  H   H2441     1.0  0.67689  0.25044  0.93107  1.0000
  C   C1443     1.0  0.50303  0.07586  0.87155  1.0000
  H   H2442     1.0  0.56340  0.13862  0.85780  1.0000
  Fe  Fe200     1.0  0.64158  0.20085  0.75857  1.0000
  H   H2443     1.0  0.86284  0.28634  0.78834  1.0000
  H   H2444     1.0  0.64441  0.08875  0.97700  1.0000
  S   S407      1.0  0.67492  0.15814  0.96671  1.0000
  H   H2445     1.0  0.57230  0.15401  0.87309  1.0000
  C   C1444     1.0  0.59261  0.09591  0.76554  1.0000
  C   C1445     1.0  0.97140  0.24293  0.99373  1.0000
  H   H2446     1.0  0.77072  0.26418  0.94022  1.0000
  H   H2447     1.0  0.79006  0.26298  0.99049  1.0000
  C   C1446     1.0  0.74771  0.20000  0.78079  1.0000
  C   C1447     1.0  0.51622  0.13453  0.82206  1.0000
  C   C1448     1.0  0.69822  0.20966  0.95435  1.0000
  H   H2448     1.0  0.56096  0.16989  0.96933  1.0000
  S   S408      1.0  0.52424  0.19875  0.85383  1.0000
  H   H2449     1.0  0.51955  0.15415  0.77794  1.0000
  N   N103      1.0  0.77171  0.20665  0.74909  1.0000
  H   H2450     1.0  0.87293  0.32023  0.81904  1.0000
  Fe  Fe201     1.0  0.61172  0.17096  0.76171  1.0000
  H   H2451     1.0  0.73327  0.19143  0.93299  1.0000
  C   C1449     1.0  0.56064  0.21483  0.94666  1.0000
  C   C1450     1.0  0.92031  0.30129  0.76901  1.0000
  C   C1451     1.0  0.88866  0.30908  0.75633  1.0000
  H   H2452     1.0  0.52868  0.26555  0.76363  1.0000
  H   H2453     1.0  0.74085  0.28306  0.88874  1.0000
  C   C1452     1.0  0.56149  0.19273  0.92131  1.0000
  H   H2454     1.0  0.77254  0.29906  0.94523  1.0000
  S   S409      1.0  0.55145  0.18391  0.90156  1.0000
  C   C1453     1.0  0.85555  0.24816  0.82237  1.0000
  C   C1454     1.0  0.66036  0.14403  0.95609  1.0000
  C   C1455     1.0  0.58853  0.12632  0.78109  1.0000
  H   H2455     1.0  0.60893  0.12099  0.75549  1.0000
  C   C1456     1.0  0.62813  0.13598  0.95044  1.0000
  H   H2456     1.0  0.55305  0.22692  0.95419  1.0000
  H   H2457     1.0  0.63333  0.09540  0.85059  1.0000
  Fe  Fe202     1.0  0.52281  0.18712  0.88616  1.0000
  H   H2458     1.0  0.55203  0.13264  0.76243  1.0000
  C   C1457     1.0  0.72335  0.17304  0.96695  1.0000
  C   C1458     1.0  0.75585  0.27111  0.91399  1.0000
  H   H2459     1.0  0.83654  0.22442  0.82205  1.0000
  S   S410      1.0  0.99180  0.32522  0.80751  1.0000
  H   H2460     1.0  0.85301  0.26384  0.82525  1.0000
  C   C1459     1.0  0.55761  0.19137  0.76969  1.0000
  S   S411      1.0  0.59532  0.14974  0.78416  1.0000
  H   H2461     1.0  0.55921  0.17184  0.84256  1.0000
  C   C1460     1.0  0.57999  0.18402  0.92677  1.0000
  H   H2462     1.0  0.86192  0.24022  0.83561  1.0000
  S   S412      1.0  0.53000  0.15379  0.82417  1.0000
  N   N104      1.0  0.73177  0.19254  0.96446  1.0000
  C   C1461     1.0  0.76510  0.27584  0.92973  1.0000
  H   H2463     1.0  0.63337  0.16313  0.96032  1.0000
  C   C1462     1.0  0.74822  0.28641  0.90081  1.0000
  H   H2464     1.0  0.59283  0.18264  0.80877  1.0000
  H   H2465     1.0  0.58759  0.17200  0.91917  1.0000
  H   H2466     1.0  0.73483  0.25574  0.95565  1.0000
  C   C1463     1.0  0.56480  0.15867  0.98164  1.0000
  H   H2467     1.0  0.55767  0.19473  0.81601  1.0000
  H   H2468     1.0  0.82697  0.24787  0.81021  1.0000
  C   C1464     1.0  0.96743  0.28243  0.96967  1.0000
  H   H2469     1.0  0.73732  0.19258  0.77379  1.0000
  H   H2470     1.0  0.62507  0.06765  0.87562  1.0000
  H   H2471     1.0  0.81507  0.27467  0.94098  1.0000
  H   H2472     1.0  0.51537  0.05148  0.90115  1.0000
  H   H2473     1.0  0.58173  0.17751  0.99331  1.0000
  N   N105      1.0  0.81819  0.27464  0.99127  1.0000
  Fe  Fe203     1.0  0.61710  0.20412  0.98726  1.0000
  C   C1465     1.0  0.62348  0.05202  0.81799  1.0000
  H   H2474     1.0  0.61018  0.20627  0.85767  1.0000
  H   H2475     1.0  0.71706  0.25682  0.97744  1.0000
  C   C1466     1.0  0.74929  0.30616  0.90380  1.0000
  H   H2476     1.0  0.83511  0.28748  0.96539  1.0000
  C   C1467     1.0  0.74171  0.19673  0.94380  1.0000
  C   C1468     1.0  0.71472  0.20818  0.96797  1.0000
  H   H2477     1.0  0.60733  0.14628  0.82368  1.0000
  H   H2478     1.0  0.61943  0.09092  0.88501  1.0000
  H   H2479     1.0  0.67648  0.09301  0.98286  1.0000
  H   H2480     1.0  0.63025  0.14514  0.83300  1.0000
  C   C1469     1.0  0.66036  0.27382  0.95955  1.0000
  H   H2481     1.0  0.73725  0.18948  0.99510  1.0000
  H   H2482     1.0  0.63501  0.03927  0.81771  1.0000
  H   H2483     1.0  0.74274  0.22386  0.98645  1.0000
  S   S413      1.0  0.64767  0.20961  0.97359  1.0000
  C   C1470     1.0  0.74524  0.19296  0.98020  1.0000
  H   H2484     1.0  0.76846  0.17537  0.94973  1.0000
  H   H2485     1.0  0.74149  0.21286  0.93978  1.0000
  H   H2486     1.0  0.56063  0.08606  0.85049  1.0000
  H   H2487     1.0  0.93209  0.30539  0.77631  1.0000
  H   H2488     1.0  0.64838  0.00124  0.92001  1.0000
  C   C1471     1.0  0.90688  0.27690  0.75246  1.0000
  H   H2489     1.0  0.65741  0.27623  0.94397  1.0000
  C   C1472     1.0  0.75849  0.31087  0.91963  1.0000
  H   H2490     1.0  0.51528  0.09713  0.79416  1.0000
  C   C1473     1.0  0.55286  0.17144  0.76439  1.0000
  H   H2491     1.0  0.51412  0.21316  0.99430  1.0000
  H   H2492     1.0  0.72557  0.29069  0.94455  1.0000
  C   C1474     1.0  0.72663  0.26538  0.96634  1.0000
  H   H2493     1.0  0.72979  0.14149  0.96825  1.0000
  H   H2494     1.0  0.74900  0.15275  0.97623  1.0000
  H   H2495     1.0  0.51166  0.06222  0.86674  1.0000
  H   H2496     1.0  0.78255  0.29844  0.98045  1.0000
  H   H2497     1.0  0.73791  0.27045  0.97434  1.0000
  C   C1475     1.0  0.64119  0.07987  0.99142  1.0000
  H   H2498     1.0  0.52334  0.09522  0.85492  1.0000
  H   H2499     1.0  0.84123  0.32613  0.81324  1.0000
  H   H2500     1.0  0.68680  0.25558  0.96717  1.0000
  H   H2501     1.0  0.71415  0.17099  0.98142  1.0000
  H   H2502     1.0  0.78984  0.19324  0.77196  1.0000
  C   C1476     1.0  0.62290  0.06976  0.98875  1.0000
  H   H2503     1.0  0.77840  0.17626  0.76099  1.0000
  C   C1477     1.0  0.68311  0.31593  0.94961  1.0000
  H   H2504     1.0  0.65199  0.28569  0.96766  1.0000
  H   H2505     1.0  0.68287  0.27846  0.97701  1.0000
  H   H2506     1.0  0.69637  0.32214  0.95304  1.0000
  H   H2507     1.0  0.81341  0.17151  0.75245  1.0000
  C   C1478     1.0  0.78571  0.19003  0.75758  1.0000
  H   H2508     1.0  0.52097  0.18413  0.79289  1.0000
  S   S414      1.0  0.64456  0.16902  0.75334  1.0000
  H   H2509     1.0  0.87585  0.31940  0.75372  1.0000
  H   H2510     1.0  0.83098  0.32054  0.83789  1.0000
  C   C1479     1.0  0.92185  0.28254  0.76228  1.0000
  H   H2511     1.0  0.61135  0.08060  0.98250  1.0000
  H   H2512     1.0  0.80607  0.32484  0.81438  1.0000
  H   H2513     1.0  0.88953  0.32568  0.83529  1.0000
  H   H2514     1.0  0.87706  0.32327  0.98940  1.0000
  H   H2515     1.0  0.68267  0.11495  0.99074  1.0000
  H   H2516     1.0  0.81682  0.23707  0.97772  1.0000
  H   H2517     1.0  0.95573  0.24032  0.99345  1.0000
  C   C1480     1.0  0.78656  0.29956  0.99534  1.0000
  S   S415      1.0  0.93930  0.61267  0.05477  1.0000
  Fe  Fe204     1.0  0.83135  0.52458  0.05097  1.0000
  S   S416      1.0  0.80018  0.52409  0.04411  1.0000
  S   S417      1.0  0.85393  0.54372  0.03447  1.0000
  Fe  Fe205     1.0  0.82850  0.48880  0.08058  1.0000
  S   S418      1.0  0.79740  0.48492  0.07608  1.0000
  S   S419      1.0  0.84601  0.47040  0.10263  1.0000
  Fe  Fe206     1.0  0.80754  0.49122  0.04360  1.0000
  S   S420      1.0  0.80514  0.47702  0.01541  1.0000
  Fe  Fe207     1.0  0.79284  0.51783  0.07714  1.0000
  S   S421      1.0  0.76759  0.53400  0.09561  1.0000
  S   S422      1.0  0.83915  0.49242  0.04860  1.0000
  S   S423      1.0  0.82336  0.52095  0.08358  1.0000
  H   H2518     1.0  0.68659  0.61586  0.21377  1.0000
  S   S424      1.0  0.76489  0.60511  0.20503  1.0000
  H   H2519     1.0  0.89620  0.59542  0.03823  1.0000
  S   S425      1.0  0.72816  0.57851  0.22115  1.0000
  Fe  Fe208     1.0  0.75906  0.57363  0.20543  1.0000
  S   S426      1.0  0.77461  0.55282  0.18331  1.0000
  Fe  Fe209     1.0  0.73515  0.60950  0.22291  1.0000
  H   H2520     1.0  0.87008  0.37539  0.02248  1.0000
  C   C1481     1.0  0.87273  0.63176  0.13562  1.0000
  C   C1482     1.0  0.99027  0.46969  0.18893  1.0000
  Fe  Fe210     1.0  0.93575  0.49788  0.12410  1.0000
  S   S427      1.0  0.94977  0.48520  0.15134  1.0000
  S   S428      1.0  0.91002  0.52113  0.12268  1.0000
  Fe  Fe211     1.0  0.95976  0.46899  0.09813  1.0000
  S   S429      1.0  0.97592  0.45416  0.12326  1.0000
  S   S430      1.0  0.96205  0.46139  0.06667  1.0000
  Fe  Fe212     1.0  0.94615  0.45602  0.14126  1.0000
  S   S431      1.0  0.93555  0.42879  0.15969  1.0000
  Fe  Fe213     1.0  0.97828  0.48483  0.13094  1.0000
  C   C1483     1.0  0.75904  0.36914  0.03633  1.0000
  S   S432      1.0  0.93012  0.46893  0.11560  1.0000
  S   S433      1.0  0.96417  0.49942  0.10434  1.0000
  Fe  Fe214     1.0  0.81473  0.35503  0.20463  1.0000
  S   S434      1.0  0.78463  0.35943  0.19409  1.0000
  Fe  Fe215     1.0  0.82467  0.39626  0.18760  1.0000
  S   S435      1.0  0.79509  0.40346  0.17574  1.0000
  S   S436      1.0  0.84326  0.42213  0.18221  1.0000
  Fe  Fe216     1.0  0.78224  0.38933  0.20478  1.0000
  C   C1484     1.0  0.96808  0.40166  0.07213  1.0000
  Fe  Fe217     1.0  0.80005  0.37308  0.16604  1.0000
  C   C1485     1.0  0.97125  0.44276  0.18584  1.0000
  S   S437      1.0  0.83047  0.36691  0.17581  1.0000
  S   S438      1.0  0.80639  0.60391  0.23911  1.0000
  S   S439      1.0  0.96762  0.59405  0.10085  1.0000
  C   C1486     1.0  0.86903  0.42312  0.17577  1.0000
  C   C1487     1.0  0.87589  0.44159  0.17019  1.0000
  C   C1488     1.0  0.89612  0.44338  0.16482  1.0000
  C   C1489     1.0  0.90987  0.42674  0.16550  1.0000
  C   C1490     1.0  0.90311  0.40822  0.17134  1.0000
  C   C1491     1.0  0.88275  0.40636  0.17626  1.0000
  H   H2521     1.0  0.86547  0.45464  0.17012  1.0000
  H   H2522     1.0  0.90116  0.45769  0.16064  1.0000
  H   H2523     1.0  0.91363  0.39524  0.17202  1.0000
  H   H2524     1.0  0.87771  0.39205  0.18068  1.0000
  C   C1492     1.0  0.96275  0.43666  0.06198  1.0000
  C   C1493     1.0  0.95904  0.43240  0.04334  1.0000
  C   C1494     1.0  0.95975  0.41281  0.03915  1.0000
  C   C1495     1.0  0.96448  0.39736  0.05351  1.0000
  C   C1496     1.0  0.96708  0.42120  0.07642  1.0000
  H   H2525     1.0  0.95573  0.44430  0.03208  1.0000
  H   H2526     1.0  0.95703  0.40966  0.02473  1.0000
  H   H2527     1.0  0.97008  0.42428  0.09077  1.0000
  H   H2528     1.0  0.84758  0.65290  0.08923  1.0000
  H   H2529     1.0  0.74003  0.33765  0.05267  1.0000
  C   C1497     1.0  0.83251  0.63528  0.11209  1.0000
  H   H2530     1.0  0.79781  0.48380  0.12135  1.0000
  S   S440      1.0  0.62544  0.46648  0.23156  1.0000
  C   C1498     1.0  0.75581  0.51069  0.22121  1.0000
  Fe  Fe218     1.0  0.90929  0.62592  0.06715  1.0000
  H   H2531     1.0  0.82349  0.54147  0.00977  1.0000
  H   H2532     1.0  0.75207  0.52564  0.21391  1.0000
  C   C1499     1.0  0.61946  0.58660  0.22842  1.0000
  H   H2533     1.0  0.75755  0.49963  0.21052  1.0000
  C   C1500     1.0  0.84039  0.65505  0.10433  1.0000
  H   H2534     1.0  0.97187  0.38977  0.08326  1.0000
  H   H2535     1.0  0.77123  0.37774  0.02983  1.0000
  C   C1501     1.0  0.86339  0.48492  0.10835  1.0000
  C   C1502     1.0  0.87147  0.48073  0.12628  1.0000
  C   C1503     1.0  0.88528  0.49239  0.13098  1.0000
  C   C1504     1.0  0.89095  0.50829  0.11779  1.0000
  C   C1505     1.0  0.88267  0.51267  0.09996  1.0000
  C   C1506     1.0  0.86910  0.50082  0.09513  1.0000
  H   H2536     1.0  0.86717  0.46839  0.13641  1.0000
  H   H2537     1.0  0.89178  0.48896  0.14472  1.0000
  H   H2538     1.0  0.88707  0.52486  0.08964  1.0000
  H   H2539     1.0  0.86341  0.50381  0.08096  1.0000
  C   C1507     1.0  0.76996  0.54005  0.11964  1.0000
  C   C1508     1.0  0.78616  0.53215  0.12966  1.0000
  C   C1509     1.0  0.78727  0.53643  0.14901  1.0000
  C   C1510     1.0  0.77236  0.54882  0.15860  1.0000
  C   C1511     1.0  0.75624  0.55694  0.14855  1.0000
  C   C1512     1.0  0.75500  0.55245  0.12921  1.0000
  H   H2540     1.0  0.79762  0.52240  0.12262  1.0000
  H   H2541     1.0  0.79972  0.52997  0.15668  1.0000
  H   H2542     1.0  0.74458  0.56643  0.15572  1.0000
  H   H2543     1.0  0.74234  0.55858  0.12165  1.0000
  H   H2544     1.0  0.61277  0.58144  0.21627  1.0000
  H   H2545     1.0  0.96751  0.53044  0.04846  1.0000
  C   C1513     1.0  0.79718  0.34277  0.03256  1.0000
  C   C1514     1.0  0.87267  0.59507  0.06190  1.0000
  C   C1515     1.0  0.88363  0.58815  0.04519  1.0000
  C   C1516     1.0  0.87787  0.57222  0.03706  1.0000
  C   C1517     1.0  0.86131  0.56295  0.04574  1.0000
  C   C1518     1.0  0.85058  0.56964  0.06269  1.0000
  C   C1519     1.0  0.85612  0.58580  0.07059  1.0000
  H   H2546     1.0  0.88612  0.56720  0.02386  1.0000
  H   H2547     1.0  0.83769  0.56273  0.06936  1.0000
  H   H2548     1.0  0.84741  0.59129  0.08332  1.0000
  C   C1520     1.0  0.93884  0.55899  0.08058  1.0000
  H   H2549     1.0  0.80314  0.58831  0.16735  1.0000
  H   H2550     1.0  0.85433  0.35588  0.00725  1.0000
  N   N106      1.0  0.90140  0.42156  0.09393  1.0000
  C   C1521     1.0  0.89324  0.44279  0.08949  1.0000
  C   C1522     1.0  0.88441  0.41059  0.10358  1.0000
  C   C1523     1.0  0.90954  0.41378  0.07462  1.0000
  C   C1524     1.0  0.91745  0.42106  0.10728  1.0000
  C   C1525     1.0  0.90659  0.45591  0.07525  1.0000
  C   C1526     1.0  0.87455  0.41737  0.12334  1.0000
  C   C1527     1.0  0.91243  0.39131  0.07417  1.0000
  C   C1528     1.0  0.92643  0.40077  0.11598  1.0000
  H   H2551     1.0  0.87894  0.44389  0.08302  1.0000
  H   H2552     1.0  0.88987  0.45007  0.10327  1.0000
  H   H2553     1.0  0.88875  0.39463  0.10647  1.0000
  H   H2554     1.0  0.87267  0.41179  0.09346  1.0000
  H   H2555     1.0  0.89961  0.41941  0.06303  1.0000
  H   H2556     1.0  0.92407  0.41926  0.06924  1.0000
  H   H2557     1.0  0.93009  0.42847  0.09940  1.0000
  H   H2558     1.0  0.91254  0.42998  0.11981  1.0000
  H   H2559     1.0  0.90749  0.45231  0.05985  1.0000
  H   H2560     1.0  0.90020  0.47148  0.07536  1.0000
  H   H2561     1.0  0.92166  0.45495  0.07963  1.0000
  H   H2562     1.0  0.88527  0.41619  0.13434  1.0000
  H   H2563     1.0  0.86715  0.43257  0.12159  1.0000
  H   H2564     1.0  0.86295  0.40773  0.12956  1.0000
  H   H2565     1.0  0.89812  0.38496  0.07604  1.0000
  H   H2566     1.0  0.92212  0.38363  0.08501  1.0000
  H   H2567     1.0  0.91981  0.38803  0.05945  1.0000
  H   H2568     1.0  0.93964  0.39535  0.10639  1.0000
  H   H2569     1.0  0.91603  0.38948  0.11892  1.0000
  H   H2570     1.0  0.93118  0.40209  0.13060  1.0000
  H   H2571     1.0  0.83934  0.38815  0.03580  1.0000
  C   C1529     1.0  0.93437  0.55946  0.04578  1.0000
  H   H2572     1.0  0.77649  0.41341  0.02737  1.0000
  H   H2573     1.0  0.81606  0.44410  0.11982  1.0000
  H   H2574     1.0  0.91813  0.56303  0.04854  1.0000
  C   C1530     1.0  0.96922  0.63658  0.17942  1.0000
  H   H2575     1.0  0.83098  0.50803  0.00657  1.0000
  C   C1531     1.0  0.68034  0.63096  0.21424  1.0000
  H   H2576     1.0  0.71623  0.48801  0.19136  1.0000
  H   H2577     1.0  0.96904  0.53206  0.07354  1.0000
  H   H2578     1.0  0.55595  0.48307  0.23867  1.0000
  H   H2579     1.0  0.74721  0.38059  0.04127  1.0000
  H   H2580     1.0  0.78019  0.34430  0.24269  1.0000
  C   C1532     1.0  0.93775  0.55079  0.02586  1.0000
  C   C1533     1.0  0.95787  0.65492  0.18787  1.0000
  H   H2581     1.0  0.99251  0.44494  0.21980  1.0000
  H   H2582     1.0  0.97994  0.47429  0.20167  1.0000
  Fe  Fe219     1.0  0.61801  0.49687  0.24126  1.0000
  H   H2583     1.0  0.81119  0.33805  0.03924  1.0000
  C   C1534     1.0  0.83778  0.41940  0.03565  1.0000
  H   H2584     1.0  0.68812  0.54853  0.22041  1.0000
  N   N107      1.0  0.94203  0.54692  0.06330  1.0000
  H   H2585     1.0  0.91689  0.57336  0.10106  1.0000
  S   S441      1.0  0.96620  0.37249  0.04900  1.0000
  C   C1535     1.0  0.69248  0.64531  0.21651  1.0000
  S   S442      1.0  0.65006  0.50186  0.23849  1.0000
  H   H2586     1.0  0.71376  0.44459  0.18257  1.0000
  H   H2587     1.0  0.76015  0.65039  0.20137  1.0000
  H   H2588     1.0  0.95210  0.50400  0.06205  1.0000
  C   C1536     1.0  0.97517  0.62610  0.11743  1.0000
  H   H2589     1.0  0.92536  0.54236  0.02406  1.0000
  N   N108      1.0  0.99164  0.44779  0.18815  1.0000
  H   H2590     1.0  0.98407  0.47762  0.17556  1.0000
  C   C1537     1.0  0.78663  0.47466  0.12985  1.0000
  H   H2591     1.0  0.94515  0.55054  0.09371  1.0000
  S   S443      1.0  0.51943  0.61518  0.23526  1.0000
  S   S444      1.0  0.96930  0.32964  0.01737  1.0000
  C   C1538     1.0  0.75832  0.46504  0.17155  1.0000
  H   H2592     1.0  0.73378  0.35857  0.06586  1.0000
  H   H2593     1.0  0.93096  0.52401  0.08475  1.0000
  Fe  Fe220     1.0  0.95827  0.36119  0.02159  1.0000
  H   H2594     1.0  0.58449  0.63029  0.20189  1.0000
  H   H2595     1.0  0.73742  0.35442  0.02344  1.0000
  S   S445      1.0  0.95708  0.64729  0.07483  1.0000
  H   H2596     1.0  0.79736  0.35837  0.02689  1.0000
  C   C1539     1.0  0.78447  0.42330  0.01682  1.0000
  H   H2597     1.0  0.70029  0.48888  0.22551  1.0000
  H   H2598     1.0  0.74825  0.34127  0.09493  1.0000
  H   H2599     1.0  0.99163  0.41981  0.15781  1.0000
  H   H2600     1.0  0.76461  0.49131  0.11254  1.0000
  N   N109      1.0  0.76456  0.35467  0.05358  1.0000
  H   H2601     1.0  0.99113  0.61514  0.06871  1.0000
  H   H2602     1.0  0.79075  0.38558  0.04923  1.0000
  H   H2603     1.0  0.72031  0.53289  0.21426  1.0000
  H   H2604     1.0  0.61147  0.62486  0.22132  1.0000
  H   H2605     1.0  0.97318  0.56675  0.04064  1.0000
  H   H2606     1.0  0.97944  0.63985  0.16612  1.0000
  H   H2607     1.0  0.55412  0.65638  0.20985  1.0000
  H   H2608     1.0  0.88220  0.41714  0.01891  1.0000
  H   H2609     1.0  0.99190  0.42239  0.21027  1.0000
  H   H2610     1.0  0.87614  0.64029  0.10433  1.0000
  S   S446      1.0  0.71814  0.63980  0.21839  1.0000
  H   H2611     1.0  0.69564  0.44212  0.24467  1.0000
  C   C1540     1.0  0.74114  0.50505  0.23919  1.0000
  H   H2612     1.0  0.74965  0.37207  0.00691  1.0000
  H   H2613     1.0  0.94323  0.65749  0.18209  1.0000
  C   C1541     1.0  0.95453  0.44936  0.20152  1.0000
  H   H2614     1.0  0.85237  0.42080  0.04026  1.0000
  H   H2615     1.0  0.68397  0.52320  0.22169  1.0000
  H   H2616     1.0  0.78523  0.44429  0.03775  1.0000
  H   H2617     1.0  0.76284  0.34878  0.01324  1.0000
  C   C1542     1.0  0.71324  0.52837  0.22922  1.0000
  H   H2618     1.0  0.83250  0.43310  0.02675  1.0000
  Fe  Fe221     1.0  0.92592  0.65753  0.08567  1.0000
  C   C1543     1.0  0.72263  0.42430  0.23611  1.0000
  H   H2619     1.0  0.84437  0.62297  0.11052  1.0000
  S   S447      1.0  0.77225  0.56474  0.23398  1.0000
  C   C1544     1.0  0.98096  0.60637  0.11480  1.0000
  C   C1545     1.0  0.98765  0.63702  0.12534  1.0000
  H   H2620     1.0  0.77060  0.51068  0.22626  1.0000
  N   N110      1.0  0.79235  0.46809  0.15031  1.0000
  H   H2621     1.0  0.80605  0.34181  0.10363  1.0000
  H   H2622     1.0  0.93998  0.57410  0.04364  1.0000
  H   H2623     1.0  0.96118  0.63305  0.11316  1.0000
  H   H2624     1.0  0.77407  0.44426  0.15256  1.0000
  H   H2625     1.0  0.82104  0.33257  0.15715  1.0000
  H   H2626     1.0  0.83029  0.36571  0.01789  1.0000
  C   C1546     1.0  0.82788  0.63525  0.23765  1.0000
  H   H2627     1.0  0.80280  0.42953  0.13956  1.0000
  C   C1547     1.0  0.69081  0.53386  0.22883  1.0000
  C   C1548     1.0  0.79910  0.45422  0.00915  1.0000
  C   C1549     1.0  0.77797  0.45499  0.16195  1.0000
  H   H2628     1.0  0.92090  0.64976  0.13270  1.0000
  H   H2629     1.0  0.71823  0.53819  0.23890  1.0000
  H   H2630     1.0  0.97103  0.42661  0.18615  1.0000
  H   H2631     1.0  0.82351  0.59875  0.15295  1.0000
  H   H2632     1.0  0.83540  0.33128  0.13397  1.0000
  S   S448      1.0  0.96880  0.65604  0.02183  1.0000
  C   C1550     1.0  0.96390  0.54062  0.05997  1.0000
  C   C1551     1.0  0.75186  0.36028  0.01921  1.0000
  H   H2633     1.0  0.94665  0.57239  0.07733  1.0000
  H   H2634     1.0  0.95855  0.62765  0.17467  1.0000
  H   H2635     1.0  0.82224  0.40188  0.02064  1.0000
  H   H2636     1.0  0.88969  0.32935  0.02424  1.0000
  S   S449      1.0  0.79755  0.36665  0.13486  1.0000
  C   C1552     1.0  0.57026  0.47494  0.24213  1.0000
  C   C1553     1.0  0.59822  0.61767  0.22805  1.0000
  C   C1554     1.0  0.87203  0.38917  0.01258  1.0000
  C   C1555     1.0  0.79460  0.33581  0.11403  1.0000
  S   S450      1.0  0.81144  0.38382  0.21750  1.0000
  C   C1556     1.0  0.80068  0.48166  0.18142  1.0000
  H   H2637     1.0  0.90755  0.55443  0.09050  1.0000
  H   H2638     1.0  0.63099  0.59563  0.22052  1.0000
  S   S451      1.0  0.75652  0.40081  0.22602  1.0000
  N   N111      1.0  0.84632  0.56100  0.14824  1.0000
  C   C1557     1.0  0.84902  0.54017  0.14300  1.0000
  C   C1558     1.0  0.85895  0.56229  0.16444  1.0000
  C   C1559     1.0  0.85252  0.57511  0.13072  1.0000
  C   C1560     1.0  0.82474  0.56633  0.15479  1.0000
  C   C1561     1.0  0.84045  0.53688  0.12406  1.0000
  C   C1562     1.0  0.85331  0.55013  0.18426  1.0000
  C   C1563     1.0  0.87397  0.57110  0.12123  1.0000
  C   C1564     1.0  0.81942  0.58611  0.16354  1.0000
  H   H2639     1.0  0.86493  0.53434  0.14150  1.0000
  H   H2640     1.0  0.84199  0.53021  0.15507  1.0000
  H   H2641     1.0  0.85910  0.57781  0.16733  1.0000
  H   H2642     1.0  0.87465  0.55704  0.15995  1.0000
  H   H2643     1.0  0.84253  0.57569  0.11897  1.0000
  H   H2644     1.0  0.85117  0.59031  0.13485  1.0000
  H   H2645     1.0  0.81566  0.56703  0.14231  1.0000
  H   H2646     1.0  0.81892  0.55479  0.16598  1.0000
  H   H2647     1.0  0.84071  0.52085  0.12339  1.0000
  H   H2648     1.0  0.82497  0.54334  0.12360  1.0000
  H   H2649     1.0  0.84938  0.54277  0.11059  1.0000
  H   H2650     1.0  0.86349  0.55247  0.19498  1.0000
  H   H2651     1.0  0.83814  0.55465  0.19084  1.0000
  H   H2652     1.0  0.85501  0.53417  0.18281  1.0000
  H   H2653     1.0  0.87732  0.55617  0.11648  1.0000
  H   H2654     1.0  0.88488  0.57345  0.13117  1.0000
  H   H2655     1.0  0.87630  0.58165  0.10784  1.0000
  H   H2656     1.0  0.82609  0.58634  0.17742  1.0000
  C   C1565     1.0  0.74569  0.34648  0.06287  1.0000
  N   N112      1.0  0.85241  0.39887  0.00672  1.0000
  H   H2657     1.0  0.82890  0.42983  0.13859  1.0000
  S   S452      1.0  0.91844  0.62738  0.09713  1.0000
  H   H2658     1.0  0.81623  0.47502  0.18146  1.0000
  S   S453      1.0  0.87860  0.61575  0.07189  1.0000
  H   H2659     1.0  0.92698  0.49975  0.06287  1.0000
  Fe  Fe222     1.0  0.94849  0.61699  0.08399  1.0000
  H   H2660     1.0  0.73156  0.50638  0.19428  1.0000
  C   C1566     1.0  0.74692  0.33295  0.08238  1.0000
  H   H2661     1.0  0.74627  0.48960  0.24438  1.0000
  H   H2662     1.0  0.78509  0.44587  0.17420  1.0000
  N   N113      1.0  0.71955  0.50720  0.23604  1.0000
  C   C1567     1.0  0.83136  0.65382  0.24218  1.0000
  H   H2663     1.0  0.93793  0.51387  0.04186  1.0000
  H   H2664     1.0  0.78096  0.49623  0.16107  1.0000
  H   H2665     1.0  0.97756  0.62739  0.19072  1.0000
  H   H2666     1.0  0.58928  0.62856  0.23716  1.0000
  H   H2667     1.0  0.88597  0.62101  0.13327  1.0000
  H   H2668     1.0  0.96677  0.44907  0.17117  1.0000
  C   C1568     1.0  0.73619  0.41815  0.22048  1.0000
  H   H2669     1.0  0.58155  0.58192  0.23397  1.0000
  H   H2670     1.0  0.81693  0.45037  0.16298  1.0000
  C   C1569     1.0  0.78960  0.41856  0.99734  1.0000
  C   C1570     1.0  0.70594  0.43762  0.23250  1.0000
  C   C1571     1.0  0.77195  0.36537  0.06867  1.0000
  H   H2671     1.0  0.82408  0.46626  0.14182  1.0000
  C   C1572     1.0  0.81488  0.43906  0.13582  1.0000
  H   H2672     1.0  0.79089  0.47210  0.19117  1.0000
  C   C1573     1.0  0.78783  0.34498  0.13111  1.0000
  C   C1574     1.0  0.71554  0.49323  0.22200  1.0000
  S   S454      1.0  0.68181  0.46190  0.20804  1.0000
  H   H2673     1.0  0.80413  0.36363  0.06070  1.0000
  Fe  Fe223     1.0  0.94625  0.64391  0.04601  1.0000
  H   H2674     1.0  0.90011  0.39678  0.01949  1.0000
  Fe  Fe224     1.0  0.77622  0.59643  0.23433  1.0000
  H   H2675     1.0  0.88165  0.38394  0.99968  1.0000
  C   C1575     1.0  0.81253  0.45656  0.14828  1.0000
  C   C1576     1.0  0.83760  0.40119  0.02467  1.0000
  H   H2676     1.0  0.79970  0.49577  0.18795  1.0000
  H   H2677     1.0  0.79778  0.33441  0.01963  1.0000
  H   H2678     1.0  0.74872  0.36054  0.23753  1.0000
  H   H2679     1.0  0.80582  0.49464  0.15142  1.0000
  H   H2680     1.0  0.79409  0.38313  0.07468  1.0000
  C   C1577     1.0  0.70260  0.44498  0.21319  1.0000
  H   H2681     1.0  0.94124  0.44203  0.20012  1.0000
  H   H2682     1.0  0.74330  0.42096  0.18899  1.0000
  C   C1578     1.0  0.91724  0.56641  0.08724  1.0000
  H   H2683     1.0  0.97768  0.56634  0.06624  1.0000
  H   H2684     1.0  0.88072  0.39828  0.03957  1.0000
  C   C1579     1.0  0.79455  0.48589  0.16031  1.0000
  C   C1580     1.0  0.73303  0.42566  0.20115  1.0000
  C   C1581     1.0  0.88413  0.40117  0.02335  1.0000
  S   S455      1.0  0.92646  0.35704  0.02026  1.0000
  H   H2685     1.0  0.82533  0.63491  0.12741  1.0000
  C   C1582     1.0  0.77935  0.33782  0.04768  1.0000
  C   C1583     1.0  0.54679  0.55807  0.23294  1.0000
  H   H2686     1.0  0.76763  0.34417  0.15760  1.0000
  H   H2687     1.0  0.72534  0.47920  0.22385  1.0000
  H   H2688     1.0  0.53675  0.65602  0.23123  1.0000
  C   C1584     1.0  0.98159  0.64520  0.00118  1.0000
  H   H2689     1.0  0.75540  0.48099  0.16754  1.0000
  H   H2690     1.0  0.65094  0.62527  0.20990  1.0000
  C   C1585     1.0  0.57493  0.53312  0.23709  1.0000
  H   H2691     1.0  0.75754  0.46225  0.18788  1.0000
  N   N114      1.0  0.60409  0.59884  0.24066  1.0000
  C   C1586     1.0  0.71630  0.43904  0.19756  1.0000
  H   H2692     1.0  0.99274  0.55064  0.05056  1.0000
  C   C1587     1.0  0.71740  0.50054  0.19977  1.0000
  C   C1588     1.0  0.93060  0.52926  0.06883  1.0000
  H   H2693     1.0  0.70513  0.51182  0.19604  1.0000
  C   C1589     1.0  0.93749  0.51091  0.05803  1.0000
  H   H2694     1.0  0.91107  0.57790  0.07628  1.0000
  H   H2695     1.0  0.91471  0.53322  0.06679  1.0000
  C   C1590     1.0  0.66014  0.63633  0.21207  1.0000
  H   H2696     1.0  0.53937  0.56994  0.22390  1.0000
  C   C1591     1.0  0.78937  0.44087  0.02276  1.0000
  H   H2697     1.0  0.87390  0.63787  0.14959  1.0000
  H   H2698     1.0  0.95190  0.54149  0.02357  1.0000
  C   C1592     1.0  0.76612  0.48618  0.12830  1.0000
  H   H2699     1.0  0.78555  0.32964  0.06094  1.0000
  C   C1593     1.0  0.84045  0.36510  0.00419  1.0000
  H   H2700     1.0  0.75414  0.47668  0.13330  1.0000
  C   C1594     1.0  0.56530  0.54894  0.22583  1.0000
  H   H2701     1.0  0.74574  0.45833  0.16727  1.0000
  H   H2702     1.0  0.95405  0.65039  0.20382  1.0000
  H   H2703     1.0  0.95852  0.44528  0.21673  1.0000
  Fe  Fe225     1.0  0.65749  0.47053  0.23202  1.0000
  H   H2704     1.0  0.57118  0.61184  0.21620  1.0000
  H   H2705     1.0  0.57209  0.55400  0.21137  1.0000
  H   H2706     1.0  0.76380  0.49949  0.13613  1.0000
  H   H2707     1.0  0.95005  0.46538  0.19903  1.0000
  H   H2708     1.0  0.76042  0.37708  0.07363  1.0000
  H   H2709     1.0  0.78647  0.46189  0.12147  1.0000
  S   S456      1.0  0.59786  0.52180  0.22693  1.0000
  H   H2710     1.0  0.91398  0.64658  0.16914  1.0000
  C   C1595     1.0  0.79130  0.37487  0.06253  1.0000
  C   C1596     1.0  0.80975  0.62778  0.24403  1.0000
  H   H2711     1.0  0.57888  0.47270  0.22768  1.0000
  H   H2712     1.0  0.82725  0.41820  0.04925  1.0000
  C   C1597     1.0  0.58627  0.61579  0.21082  1.0000
  H   H2713     1.0  0.83931  0.62665  0.22917  1.0000
  H   H2714     1.0  0.98369  0.65254  0.12615  1.0000
  H   H2715     1.0  0.77492  0.35527  0.08207  1.0000
  H   H2716     1.0  0.82111  0.63270  0.10274  1.0000
  H   H2717     1.0  0.85969  0.62352  0.13744  1.0000
  C   C1598     1.0  0.87274  0.64786  0.11793  1.0000
  H   H2718     1.0  0.93850  0.56299  0.01376  1.0000
  H   H2719     1.0  0.85780  0.42975  0.00305  1.0000
  C   C1599     1.0  0.77310  0.33707  0.14452  1.0000
  C   C1600     1.0  0.97733  0.55728  0.05403  1.0000
  H   H2720     1.0  0.83967  0.65237  0.14524  1.0000
  H   H2721     1.0  0.86279  0.52124  0.99981  1.0000
  H   H2722     1.0  0.79817  0.52242  0.00028  1.0000
  H   H2723     1.0  0.64598  0.56647  0.23293  1.0000
  H   H2724     1.0  0.55940  0.44717  0.24439  1.0000
  H   H2725     1.0  0.59386  0.60516  0.20082  1.0000
  H   H2726     1.0  0.50087  0.65781  0.17743  1.0000
  H   H2727     1.0  0.84534  0.65949  0.23707  1.0000
  H   H2728     1.0  0.99677  0.60036  0.04891  1.0000
  C   C1601     1.0  0.63017  0.56799  0.23895  1.0000
  H   H2729     1.0  0.62373  0.55465  0.23619  1.0000
  C   C1602     1.0  0.65189  0.65596  0.21247  1.0000
  H   H2730     1.0  0.51923  0.65587  0.20243  1.0000
  H   H2731     1.0  0.88595  0.65557  0.11844  1.0000
  S   S457      1.0  0.91534  0.65701  0.05603  1.0000
  H   H2732     1.0  0.68328  0.53496  0.24396  1.0000
  H   H2733     1.0  0.85358  0.32795  0.03229  1.0000
  C   C1603     1.0  0.91121  0.66076  0.16078  1.0000
  H   H2734     1.0  0.82127  0.57695  0.99660  1.0000
  H   H2735     1.0  0.53816  0.65683  0.17132  1.0000
  C   C1604     1.0  0.66747  0.53539  0.46648  1.0000
  S   S458      1.0  0.59712  0.60845  0.42078  1.0000
  Fe  Fe226     1.0  0.65581  0.50932  0.39942  1.0000
  S   S459      1.0  0.67954  0.52019  0.41343  1.0000
  S   S460      1.0  0.62424  0.52230  0.39869  1.0000
  Fe  Fe227     1.0  0.68334  0.47474  0.38520  1.0000
  S   S461      1.0  0.70944  0.48307  0.39805  1.0000
  S   S462      1.0  0.68187  0.45001  0.36715  1.0000
  Fe  Fe228     1.0  0.68721  0.48827  0.42464  1.0000
  S   S463      1.0  0.68676  0.47979  0.45793  1.0000
  Fe  Fe229     1.0  0.69903  0.51405  0.38544  1.0000
  S   S464      1.0  0.71497  0.53890  0.36756  1.0000
  S   S465      1.0  0.66202  0.47815  0.41208  1.0000
  S   S466      1.0  0.67452  0.50495  0.37124  1.0000
  H   H2736     1.0  0.61184  0.38567  0.45085  1.0000
  S   S467      1.0  0.73188  0.54760  0.27344  1.0000
  Fe  Fe230     1.0  0.56987  0.62249  0.40686  1.0000
  Fe  Fe231     1.0  0.64846  0.48953  0.27007  1.0000
  S   S468      1.0  0.51063  0.60578  0.28423  1.0000
  S   S469      1.0  0.66376  0.50421  0.29003  1.0000
  Fe  Fe232     1.0  0.62612  0.45643  0.26389  1.0000
  H   H2737     1.0  0.54002  0.53005  0.27681  1.0000
  S   S470      1.0  0.61412  0.42779  0.27593  1.0000
  H   H2738     1.0  0.76328  0.57049  0.28481  1.0000
  H   H2739     1.0  0.82942  0.34753  0.24847  1.0000
  H   H2740     1.0  0.52950  0.45857  0.26187  1.0000
  S   S471      1.0  0.65848  0.45871  0.26366  1.0000
  S   S472      1.0  0.61606  0.48641  0.27359  1.0000
  Fe  Fe233     1.0  0.61563  0.37189  0.38187  1.0000
  S   S473      1.0  0.61416  0.40327  0.36770  1.0000
  Fe  Fe234     1.0  0.63518  0.34986  0.41659  1.0000
  S   S474      1.0  0.65802  0.35359  0.43578  1.0000
  S   S475      1.0  0.64480  0.35408  0.38447  1.0000
  S   S476      1.0  0.60758  0.37012  0.41450  1.0000
  H   H2741     1.0  0.64534  0.41588  0.40263  1.0000
  H   H2742     1.0  0.57340  0.42708  0.28550  1.0000
  H   H2743     1.0  0.60801  0.44186  0.41716  1.0000
  C   C1605     1.0  0.54713  0.53543  0.26261  1.0000
  H   H2744     1.0  0.64133  0.51108  0.48894  1.0000
  H   H2745     1.0  0.60990  0.41643  0.41150  1.0000
  C   C1606     1.0  0.78347  0.36143  0.28066  1.0000
  C   C1607     1.0  0.66750  0.41053  0.31354  1.0000
  H   H2746     1.0  0.57709  0.57995  0.40550  1.0000
  C   C1608     1.0  0.64906  0.34945  0.46054  1.0000
  C   C1609     1.0  0.65877  0.35643  0.47451  1.0000
  H   H2747     1.0  0.69528  0.38965  0.35046  1.0000
  H   H2748     1.0  0.54926  0.57869  0.31486  1.0000
  H   H2749     1.0  0.69206  0.50257  0.25432  1.0000
  S   S477      1.0  0.51286  0.56034  0.25911  1.0000
  H   H2750     1.0  0.67096  0.36517  0.46993  1.0000
  H   H2751     1.0  0.63917  0.39205  0.42883  1.0000
  H   H2752     1.0  0.52722  0.45698  0.28803  1.0000
  C   C1610     1.0  0.70808  0.50217  0.25583  1.0000
  H   H2753     1.0  0.62509  0.49134  0.44044  1.0000
  C   C1611     1.0  0.82266  0.57363  0.28805  1.0000
  C   C1612     1.0  0.77870  0.57277  0.34016  1.0000
  H   H2754     1.0  0.62679  0.63081  0.24661  1.0000
  H   H2755     1.0  0.53185  0.36675  0.45167  1.0000
  H   H2756     1.0  0.59847  0.53529  0.46690  1.0000
  H   H2757     1.0  0.54819  0.40498  0.28100  1.0000
  H   H2758     1.0  0.56905  0.47464  0.31559  1.0000
  H   H2759     1.0  0.76023  0.33360  0.31000  1.0000
  H   H2760     1.0  0.69691  0.38210  0.29872  1.0000
  H   H2761     1.0  0.55214  0.59538  0.28103  1.0000
  Fe  Fe235     1.0  0.74211  0.57157  0.24976  1.0000
  C   C1613     1.0  0.61374  0.42111  0.30148  1.0000
  C   C1614     1.0  0.61188  0.40155  0.30914  1.0000
  C   C1615     1.0  0.61192  0.39582  0.32948  1.0000
  C   C1616     1.0  0.61347  0.40975  0.34224  1.0000
  C   C1617     1.0  0.61499  0.42938  0.33458  1.0000
  C   C1618     1.0  0.61531  0.43503  0.31424  1.0000
  H   H2762     1.0  0.61062  0.39074  0.29930  1.0000
  H   H2763     1.0  0.61066  0.38068  0.33530  1.0000
  H   H2764     1.0  0.61625  0.44020  0.34442  1.0000
  H   H2765     1.0  0.61674  0.45014  0.30846  1.0000
  C   C1619     1.0  0.68899  0.45547  0.47023  1.0000
  C   C1620     1.0  0.69846  0.43951  0.46078  1.0000
  C   C1621     1.0  0.70069  0.42063  0.47129  1.0000
  C   C1622     1.0  0.74594  0.33385  0.28290  1.0000
  H   H2766     1.0  0.54976  0.43215  0.29836  1.0000
  H   H2767     1.0  0.71429  0.36174  0.27106  1.0000
  H   H2768     1.0  0.70458  0.44181  0.44553  1.0000
  H   H2769     1.0  0.70853  0.40853  0.46395  1.0000
  S   S478      1.0  0.59979  0.34601  0.37840  1.0000
  H   H2770     1.0  0.52682  0.48996  0.28898  1.0000
  C   C1623     1.0  0.67886  0.46236  0.34372  1.0000
  C   C1624     1.0  0.66347  0.45896  0.33331  1.0000
  C   C1625     1.0  0.65929  0.47124  0.31616  1.0000
  C   C1626     1.0  0.67010  0.48725  0.30988  1.0000
  C   C1627     1.0  0.68575  0.49024  0.31996  1.0000
  C   C1628     1.0  0.69037  0.47761  0.33664  1.0000
  H   H2771     1.0  0.65410  0.44762  0.33905  1.0000
  H   H2772     1.0  0.64702  0.46899  0.30846  1.0000
  H   H2773     1.0  0.69402  0.50261  0.31509  1.0000
  H   H2774     1.0  0.70230  0.48025  0.34462  1.0000
  C   C1629     1.0  0.71875  0.54153  0.34133  1.0000
  C   C1630     1.0  0.72159  0.56006  0.33095  1.0000
  C   C1631     1.0  0.72536  0.56237  0.31015  1.0000
  C   C1632     1.0  0.72672  0.54606  0.29956  1.0000
  C   C1633     1.0  0.72391  0.52762  0.30995  1.0000
  C   C1634     1.0  0.71982  0.52538  0.33065  1.0000
  H   H2775     1.0  0.72078  0.57268  0.33907  1.0000
  H   H2776     1.0  0.72720  0.57672  0.30236  1.0000
  H   H2777     1.0  0.72503  0.51489  0.30195  1.0000
  H   H2778     1.0  0.71795  0.51103  0.33841  1.0000
  C   C1635     1.0  0.55534  0.60376  0.32807  1.0000
  C   C1636     1.0  0.56075  0.62293  0.32454  1.0000
  C   C1637     1.0  0.56298  0.63221  0.30522  1.0000
  C   C1638     1.0  0.55911  0.62256  0.28960  1.0000
  H   H2779     1.0  0.76599  0.57167  0.35178  1.0000
  H   H2780     1.0  0.59890  0.58243  0.35610  1.0000
  H   H2781     1.0  0.56619  0.64730  0.30259  1.0000
  H   H2782     1.0  0.76381  0.37618  0.26095  1.0000
  H   H2783     1.0  0.61551  0.49392  0.46536  1.0000
  C   C1639     1.0  0.60545  0.58526  0.41276  1.0000
  C   C1640     1.0  0.62522  0.57740  0.41356  1.0000
  C   C1641     1.0  0.63151  0.55836  0.40832  1.0000
  C   C1642     1.0  0.61791  0.54700  0.40278  1.0000
  C   C1643     1.0  0.59838  0.55507  0.40148  1.0000
  C   C1644     1.0  0.59225  0.57415  0.40627  1.0000
  H   H2784     1.0  0.63558  0.58601  0.41835  1.0000
  H   H2785     1.0  0.64671  0.55235  0.40902  1.0000
  H   H2786     1.0  0.58781  0.54642  0.39708  1.0000
  C   C1645     1.0  0.71257  0.40538  0.30649  1.0000
  H   H2787     1.0  0.78594  0.57363  0.27065  1.0000
  H   H2788     1.0  0.65319  0.38012  0.33530  1.0000
  N   N115      1.0  0.75608  0.34624  0.26600  1.0000
  H   H2789     1.0  0.63959  0.52223  0.43629  1.0000
  C   C1646     1.0  0.61171  0.60464  0.25860  1.0000
  H   H2790     1.0  0.66732  0.52988  0.48232  1.0000
  H   H2791     1.0  0.67294  0.42496  0.31418  1.0000
  H   H2792     1.0  0.68114  0.36113  0.35433  1.0000
  H   H2793     1.0  0.54387  0.49403  0.26711  1.0000
  N   N116      1.0  0.63053  0.53189  0.46516  1.0000
  H   H2794     1.0  0.78925  0.55952  0.34306  1.0000
  C   C1647     1.0  0.56598  0.52670  0.25575  1.0000
  H   H2795     1.0  0.80247  0.60915  0.31497  1.0000
  C   C1648     1.0  0.60687  0.56455  0.46530  1.0000
  H   H2796     1.0  0.58473  0.45881  0.28527  1.0000
  H   H2797     1.0  0.67813  0.54659  0.46338  1.0000
  S   S479      1.0  0.74720  0.60269  0.25243  1.0000
  H   H2798     1.0  0.64886  0.50594  0.45585  1.0000
  C   C1649     1.0  0.63297  0.33860  0.46654  1.0000
  H   H2799     1.0  0.61679  0.57439  0.45601  1.0000
  H   H2800     1.0  0.78757  0.62802  0.30193  1.0000
  H   H2801     1.0  0.76887  0.60396  0.29031  1.0000
  Fe  Fe236     1.0  0.52481  0.62791  0.26229  1.0000
  H   H2802     1.0  0.69129  0.35127  0.33151  1.0000
  H   H2803     1.0  0.64378  0.55817  0.46932  1.0000
  C   C1650     1.0  0.67780  0.35805  0.33971  1.0000
  H   H2804     1.0  0.56929  0.48068  0.28123  1.0000
  H   H2805     1.0  0.61026  0.54436  0.44387  1.0000
  H   H2806     1.0  0.69105  0.41442  0.34057  1.0000
  H   H2807     1.0  0.50531  0.58697  0.32839  1.0000
  C   C1651     1.0  0.55180  0.34015  0.45190  1.0000
  C   C1652     1.0  0.56185  0.46387  0.30884  1.0000
  H   H2808     1.0  0.64865  0.55099  0.44543  1.0000
  C   C1653     1.0  0.55520  0.60295  0.29302  1.0000
  H   H2809     1.0  0.65946  0.39003  0.36414  1.0000
  H   H2810     1.0  0.70818  0.37676  0.32054  1.0000
  H   H2811     1.0  0.51792  0.63546  0.33519  1.0000
  C   C1654     1.0  0.55342  0.59351  0.31222  1.0000
  H   H2812     1.0  0.63505  0.61834  0.26878  1.0000
  H   H2813     1.0  0.73435  0.34107  0.24711  1.0000
  N   N117      1.0  0.67979  0.39396  0.32422  1.0000
  H   H2814     1.0  0.81749  0.57298  0.27353  1.0000
  C   C1655     1.0  0.66620  0.40372  0.35872  1.0000
  H   H2815     1.0  0.54566  0.46742  0.31173  1.0000
  H   H2816     1.0  0.65480  0.41499  0.35305  1.0000
  H   H2817     1.0  0.79525  0.36072  0.26814  1.0000
  H   H2818     1.0  0.78004  0.53731  0.30122  1.0000
  H   H2819     1.0  0.50846  0.60207  0.35875  1.0000
  C   C1656     1.0  0.61597  0.40068  0.45124  1.0000
  H   H2820     1.0  0.66719  0.34677  0.34239  1.0000
  H   H2821     1.0  0.62200  0.58018  0.36564  1.0000
  C   C1657     1.0  0.76295  0.36396  0.27308  1.0000
  H   H2822     1.0  0.57343  0.51488  0.26477  1.0000
  C   C1658     1.0  0.74126  0.35347  0.25145  1.0000
  S   S480      1.0  0.57543  0.62987  0.37423  1.0000
  H   H2823     1.0  0.56224  0.63098  0.33669  1.0000
  C   C1659     1.0  0.72389  0.36829  0.25848  1.0000
  C   C1660     1.0  0.53605  0.46306  0.27448  1.0000
  C   C1661     1.0  0.64700  0.54500  0.46126  1.0000
  H   H2824     1.0  0.60457  0.41101  0.44432  1.0000
  H   H2825     1.0  0.70918  0.51326  0.26611  1.0000
  C   C1662     1.0  0.53741  0.55110  0.25120  1.0000
  C   C1663     1.0  0.65292  0.35198  0.49451  1.0000
  H   H2826     1.0  0.65957  0.39492  0.28971  1.0000
  H   H2827     1.0  0.79412  0.60210  0.28123  1.0000
  C   C1664     1.0  0.71398  0.48171  0.26655  1.0000
  H   H2828     1.0  0.76516  0.55905  0.32015  1.0000
  S   S481      1.0  0.56127  0.34527  0.42676  1.0000
  Fe  Fe237     1.0  0.50450  0.59330  0.25722  1.0000
  C   C1665     1.0  0.61940  0.50229  0.45091  1.0000
  C   C1666     1.0  0.78777  0.61284  0.30955  1.0000
  H   H2829     1.0  0.72894  0.38194  0.26218  1.0000
  H   H2830     1.0  0.75776  0.58425  0.31941  1.0000
  H   H2831     1.0  0.75212  0.36977  0.28494  1.0000
  H   H2832     1.0  0.65530  0.42089  0.28607  1.0000
  H   H2833     1.0  0.72807  0.48134  0.27308  1.0000
  C   C1667     1.0  0.63010  0.61600  0.25452  1.0000
  H   H2834     1.0  0.67999  0.40975  0.28240  1.0000
  C   C1668     1.0  0.63563  0.51582  0.45169  1.0000
  H   H2835     1.0  0.82852  0.33965  0.28484  1.0000
  C   C1669     1.0  0.55799  0.43336  0.28336  1.0000
  C   C1670     1.0  0.78469  0.54493  0.28658  1.0000
  H   H2836     1.0  0.78121  0.63325  0.26034  1.0000
  H   H2837     1.0  0.55933  0.41594  0.25828  1.0000
  H   H2838     1.0  0.62518  0.33347  0.45572  1.0000
  H   H2839     1.0  0.78585  0.34842  0.29151  1.0000
  C   C1671     1.0  0.58662  0.57177  0.26379  1.0000
  H   H2840     1.0  0.58901  0.57695  0.27788  1.0000
  H   H2841     1.0  0.62871  0.44497  0.47606  1.0000
  S   S482      1.0  0.55094  0.65104  0.41168  1.0000
  H   H2842     1.0  0.71492  0.46986  0.25682  1.0000
  C   C1672     1.0  0.82642  0.33307  0.25528  1.0000
  H   H2843     1.0  0.82815  0.58817  0.28793  1.0000
  H   H2844     1.0  0.57308  0.59915  0.25110  1.0000
  H   H2845     1.0  0.52073  0.63954  0.30915  1.0000
  H   H2846     1.0  0.49951  0.35252  0.44157  1.0000
  H   H2847     1.0  0.72146  0.40318  0.29216  1.0000
  H   H2848     1.0  0.78566  0.58603  0.34192  1.0000
  C   C1673     1.0  0.54937  0.41922  0.27171  1.0000
  H   H2849     1.0  0.83520  0.56193  0.28918  1.0000
  H   H2850     1.0  0.71457  0.37280  0.24621  1.0000
  C   C1674     1.0  0.61121  0.54323  0.46002  1.0000
  H   H2851     1.0  0.61539  0.40219  0.46719  1.0000
  C   C1675     1.0  0.56894  0.46495  0.28662  1.0000
  H   H2852     1.0  0.56638  0.44918  0.31646  1.0000
  C   C1676     1.0  0.69912  0.38866  0.31222  1.0000
  H   H2853     1.0  0.80073  0.54102  0.28270  1.0000
  H   H2854     1.0  0.80810  0.55418  0.31122  1.0000
  H   H2855     1.0  0.58802  0.36084  0.48113  1.0000
  H   H2856     1.0  0.77592  0.61327  0.32201  1.0000
  H   H2857     1.0  0.59988  0.61390  0.26691  1.0000
  H   H2858     1.0  0.59165  0.57030  0.46197  1.0000
  S   S483      1.0  0.54385  0.60587  0.40596  1.0000
  H   H2859     1.0  0.61559  0.43567  0.39289  1.0000
  H   H2860     1.0  0.70435  0.42012  0.30427  1.0000
  N   N118      1.0  0.64048  0.55299  0.33653  1.0000
  C   C1677     1.0  0.64081  0.53324  0.32892  1.0000
  C   C1678     1.0  0.64676  0.56719  0.31910  1.0000
  C   C1679     1.0  0.61949  0.55914  0.34463  1.0000
  C   C1680     1.0  0.65428  0.55082  0.35238  1.0000
  C   C1681     1.0  0.63106  0.51720  0.34309  1.0000
  C   C1682     1.0  0.66740  0.56164  0.30829  1.0000
  C   C1683     1.0  0.61509  0.57960  0.35197  1.0000
  C   C1684     1.0  0.66183  0.56972  0.35741  1.0000
  H   H2861     1.0  0.63348  0.53472  0.31510  1.0000
  H   H2862     1.0  0.65626  0.52689  0.32488  1.0000
  H   H2863     1.0  0.64676  0.58223  0.32315  1.0000
  H   H2864     1.0  0.63591  0.56875  0.30802  1.0000
  H   H2865     1.0  0.60923  0.55851  0.33336  1.0000
  H   H2866     1.0  0.61468  0.54881  0.35757  1.0000
  H   H2867     1.0  0.64737  0.54336  0.36630  1.0000
  H   H2868     1.0  0.66785  0.54110  0.34804  1.0000
  H   H2869     1.0  0.63513  0.50279  0.33721  1.0000
  H   H2870     1.0  0.63605  0.51581  0.35793  1.0000
  H   H2871     1.0  0.61471  0.51995  0.34428  1.0000
  H   H2872     1.0  0.67902  0.55847  0.31847  1.0000
  H   H2873     1.0  0.66748  0.54883  0.29989  1.0000
  H   H2874     1.0  0.67158  0.57409  0.29739  1.0000
  H   H2875     1.0  0.81124  0.57708  0.31773  1.0000
  H   H2876     1.0  0.78527  0.37454  0.28794  1.0000
  S   S484      1.0  0.52726  0.64233  0.37531  1.0000
  H   H2877     1.0  0.66181  0.56898  0.37365  1.0000
  H   H2878     1.0  0.65320  0.58366  0.35274  1.0000
  H   H2879     1.0  0.67752  0.57039  0.35131  1.0000
  H   H2880     1.0  0.72266  0.40564  0.31794  1.0000
  Fe  Fe238     1.0  0.54837  0.61505  0.37363  1.0000
  C   C1685     1.0  0.53631  0.35300  0.46010  1.0000
  C   C1686     1.0  0.61665  0.43046  0.40872  1.0000
  C   C1687     1.0  0.68137  0.45216  0.49017  1.0000
  C   C1688     1.0  0.69303  0.41728  0.49120  1.0000
  H   H2881     1.0  0.65222  0.41213  0.32098  1.0000
  H   H2882     1.0  0.61911  0.59164  0.34060  1.0000
  H   H2883     1.0  0.61553  0.59189  0.26930  1.0000
  H   H2884     1.0  0.63016  0.56797  0.25499  1.0000
  C   C1689     1.0  0.51319  0.64574  0.32251  1.0000
  C   C1690     1.0  0.66573  0.40858  0.29172  1.0000
  H   H2885     1.0  0.67109  0.40912  0.37169  1.0000
  H   H2886     1.0  0.77690  0.53908  0.27563  1.0000
  C   C1691     1.0  0.68416  0.40036  0.34331  1.0000
  C   C1692     1.0  0.66824  0.37634  0.32777  1.0000
  Fe  Fe239     1.0  0.52506  0.63465  0.40837  1.0000
  C   C1693     1.0  0.52621  0.34799  0.47884  1.0000
  S   S485      1.0  0.55446  0.63600  0.26707  1.0000
  Fe  Fe240     1.0  0.59310  0.34329  0.41175  1.0000
  N   N119      1.0  0.64318  0.42184  0.43320  1.0000
  C   C1694     1.0  0.66526  0.42138  0.43330  1.0000
  C   C1695     1.0  0.63355  0.43760  0.44571  1.0000
  C   C1696     1.0  0.63860  0.42738  0.41218  1.0000
  C   C1697     1.0  0.63719  0.40171  0.44092  1.0000
  C   C1698     1.0  0.67816  0.40810  0.41920  1.0000
  C   C1699     1.0  0.63940  0.43553  0.46690  1.0000
  H   H2887     1.0  0.67001  0.43641  0.42970  1.0000
  H   H2888     1.0  0.66970  0.41614  0.44826  1.0000
  H   H2889     1.0  0.61723  0.43854  0.44694  1.0000
  H   H2890     1.0  0.63712  0.45232  0.43864  1.0000
  H   H2891     1.0  0.64522  0.44106  0.40582  1.0000
  S   S486      1.0  0.54903  0.59314  0.35206  1.0000
  H   H2892     1.0  0.64700  0.39454  0.45211  1.0000
  H   H2893     1.0  0.67862  0.41503  0.40375  1.0000
  H   H2894     1.0  0.69359  0.40624  0.42308  1.0000
  H   H2895     1.0  0.67316  0.39326  0.42029  1.0000
  H   H2896     1.0  0.63982  0.42025  0.47408  1.0000
  H   H2897     1.0  0.65407  0.44069  0.46691  1.0000
  H   H2898     1.0  0.56269  0.36633  0.48980  1.0000
  N   N120      1.0  0.78573  0.57735  0.30177  1.0000
  C   C1700     1.0  0.77114  0.57339  0.31981  1.0000
  C   C1701     1.0  0.77954  0.56742  0.28541  1.0000
  C   C1702     1.0  0.78392  0.59901  0.29479  1.0000
  C   C1703     1.0  0.80667  0.57003  0.30558  1.0000
  H   H2899     1.0  0.57199  0.56600  0.26650  1.0000
  H   H2900     1.0  0.73388  0.34296  0.29094  1.0000
  H   H2901     1.0  0.70256  0.47845  0.27901  1.0000
  H   H2902     1.0  0.66559  0.37142  0.31359  1.0000
  H   H2903     1.0  0.67341  0.52339  0.45737  1.0000
  H   H2904     1.0  0.60766  0.56586  0.48102  1.0000
  H   H2905     1.0  0.60598  0.51043  0.44516  1.0000
  H   H2906     1.0  0.51445  0.35808  0.48492  1.0000
  H   H2907     1.0  0.57885  0.48395  0.24949  1.0000
  C   C1704     1.0  0.53170  0.48564  0.27396  1.0000
  H   H2908     1.0  0.53438  0.42484  0.26776  1.0000
  C   C1705     1.0  0.62856  0.52225  0.48608  1.0000
  C   C1706     1.0  0.82593  0.32858  0.27584  1.0000
  C   C1707     1.0  0.79895  0.65712  0.26041  1.0000
  H   H2909     1.0  0.72501  0.41870  0.25111  1.0000
  H   H2910     1.0  0.59742  0.55916  0.26029  1.0000
  C   C1708     1.0  0.57658  0.35745  0.49357  1.0000
  C   C1709     1.0  0.79518  0.63889  0.25525  1.0000
  N   N121      1.0  0.55740  0.45454  0.27446  1.0000
  C   C1710     1.0  0.77314  0.33469  0.25513  1.0000
  C   C1711     1.0  0.62765  0.33343  0.48670  1.0000
  H   H2911     1.0  0.57490  0.34171  0.49399  1.0000
  H   H2912     1.0  0.58256  0.44644  0.25377  1.0000
  H   H2913     1.0  0.78507  0.32946  0.26457  1.0000
  H   H2914     1.0  0.61576  0.51343  0.48865  1.0000
  Fe  Fe241     1.0  0.62895  0.32779  0.38359  1.0000
  H   H2915     1.0  0.50676  0.57430  0.39412  1.0000
  H   H2916     1.0  0.50602  0.65597  0.45354  1.0000
  H   H2917     1.0  0.51902  0.49070  0.26528  1.0000
  Fe  Fe242     1.0  0.55433  0.65671  0.37831  1.0000
  C   C1712     1.0  0.53100  0.32971  0.48931  1.0000
  H   H2918     1.0  0.74347  0.51396  0.25105  1.0000
  C   C1713     1.0  0.56759  0.45473  0.25372  1.0000
  H   H2919     1.0  0.50002  0.57841  0.36278  1.0000
  H   H2920     1.0  0.85539  0.32849  0.35280  1.0000
  H   H2921     1.0  0.75594  0.35255  0.48849  1.0000
  C   C1714     1.0  0.74038  0.35475  0.49499  1.0000
  H   H2922     1.0  0.73258  0.36632  0.48514  1.0000
  H   H2923     1.0  0.73300  0.34128  0.49496  1.0000
  C   C1715     1.0  0.58582  0.58842  0.24669  1.0000
  H   H2924     1.0  0.64262  0.60775  0.24626  1.0000
  H   H2925     1.0  0.74449  0.38233  0.56647  1.0000
  Fe  Fe243     1.0  0.54398  0.35700  0.66433  1.0000
  S   S487      1.0  0.54948  0.36769  0.69260  1.0000
  S   S488      1.0  0.56321  0.34761  0.63732  1.0000
  H   H2926     1.0  0.52461  0.40610  0.61984  1.0000
  C   C1716     1.0  0.54926  0.36106  0.52934  1.0000
  H   H2927     1.0  0.60946  0.54043  0.50638  1.0000
  Fe  Fe244     1.0  0.51856  0.38370  0.69292  1.0000
  C   C1717     1.0  0.62490  0.34177  0.66057  1.0000
  Fe  Fe245     1.0  0.53430  0.34164  0.70738  1.0000
  C   C1718     1.0  0.96737  0.44724  0.73988  1.0000
  S   S489      1.0  0.51499  0.37549  0.66331  1.0000
  H   H2928     1.0  0.60851  0.34508  0.70251  1.0000
  Fe  Fe246     1.0  0.69013  0.34176  0.56335  1.0000
  S   S490      1.0  0.65794  0.34017  0.57313  1.0000
  C   C1719     1.0  0.78761  0.34825  0.53860  1.0000
  Fe  Fe247     1.0  0.65602  0.37299  0.57153  1.0000
  S   S491      1.0  0.63795  0.38838  0.59604  1.0000
  S   S492      1.0  0.68875  0.37458  0.56360  1.0000
  H   H2929     1.0  0.97227  0.49145  0.69266  1.0000
  N   N122      1.0  0.75129  0.34963  0.53033  1.0000
  H   H2930     1.0  0.95848  0.45241  0.72747  1.0000
  C   C1720     1.0  0.57683  0.33628  0.53986  1.0000
  H   H2931     1.0  0.62095  0.34033  0.64567  1.0000
  S   S493      1.0  0.50383  0.35846  0.70997  1.0000
  H   H2932     1.0  0.98131  0.43852  0.73494  1.0000
  C   C1721     1.0  0.63802  0.33975  0.50068  1.0000
  H   H2933     1.0  0.63984  0.34690  0.65840  1.0000
  H   H2934     1.0  0.67732  0.43091  0.51587  1.0000
  H   H2935     1.0  0.58297  0.34664  0.71133  1.0000
  H   H2936     1.0  0.51573  0.43057  0.61136  1.0000
  H   H2937     1.0  0.51967  0.35900  0.54387  1.0000
  C   C1722     1.0  0.57497  0.37033  0.54682  1.0000
  C   C1723     1.0  0.74721  0.32848  0.53154  1.0000
  H   H2938     1.0  0.75302  0.34897  0.56199  1.0000
  S   S494      1.0  0.68644  0.34441  0.53124  1.0000
  C   C1724     1.0  0.62543  0.53587  0.50264  1.0000
  H   H2939     1.0  0.58986  0.34000  0.60348  1.0000
  H   H2940     1.0  0.56772  0.36573  0.56176  1.0000
  C   C1725     1.0  0.53502  0.35544  0.54771  1.0000
  H   H2941     1.0  0.97764  0.46708  0.70396  1.0000
  H   H2942     1.0  0.98118  0.50561  0.72138  1.0000
  H   H2943     1.0  0.60423  0.35660  0.55489  1.0000
  C   C1726     1.0  0.61708  0.37719  0.60758  1.0000
  C   C1727     1.0  0.60631  0.38440  0.62439  1.0000
  C   C1728     1.0  0.58963  0.37558  0.63372  1.0000
  C   C1729     1.0  0.58367  0.35955  0.62617  1.0000
  C   C1730     1.0  0.59441  0.35238  0.60939  1.0000
  C   C1731     1.0  0.61102  0.36116  0.60014  1.0000
  H   H2944     1.0  0.61090  0.39684  0.63019  1.0000
  H   H2945     1.0  0.58142  0.38121  0.64666  1.0000
  H   H2946     1.0  0.99686  0.48315  0.69793  1.0000
  H   H2947     1.0  0.61903  0.35564  0.58712  1.0000
  S   S495      1.0  0.64945  0.37880  0.53997  1.0000
  S   S496      1.0  0.50862  0.41598  0.69563  1.0000
  H   H2948     1.0  0.51752  0.36260  0.60906  1.0000
  H   H2949     1.0  0.54533  0.37687  0.52438  1.0000
  C   C1732     1.0  0.74491  0.35717  0.55008  1.0000
  H   H2950     1.0  0.73438  0.38844  0.54356  1.0000
  H   H2951     1.0  0.79136  0.36237  0.54264  1.0000
  C   C1733     1.0  0.98112  0.48234  0.70361  1.0000
  H   H2952     1.0  0.56862  0.38576  0.54291  1.0000
  H   H2953     1.0  0.57048  0.33305  0.55543  1.0000
  C   C1734     1.0  0.49906  0.35068  0.63415  1.0000
  H   H2954     1.0  0.59880  0.35650  0.51327  1.0000
  H   H2955     1.0  0.58614  0.34006  0.67664  1.0000
  H   H2956     1.0  0.77400  0.36724  0.51595  1.0000
  H   H2957     1.0  0.53694  0.33946  0.55239  1.0000
  C   C1735     1.0  0.59568  0.33644  0.70596  1.0000
  C   C1736     1.0  0.68310  0.43315  0.50052  1.0000
  H   H2958     1.0  0.53619  0.36389  0.56017  1.0000
  C   C1737     1.0  0.51146  0.41546  0.61472  1.0000
  H   H2959     1.0  0.49974  0.41555  0.64519  1.0000
  H   H2960     1.0  0.95974  0.49324  0.72640  1.0000
  H   H2961     1.0  0.76088  0.38376  0.54410  1.0000
  C   C1738     1.0  0.58320  0.36291  0.51272  1.0000
  C   C1739     1.0  0.59691  0.37111  0.54952  1.0000
  Fe  Fe248     1.0  0.68225  0.37738  0.53184  1.0000
  H   H2962     1.0  0.51144  0.34491  0.64219  1.0000
  N   N123      1.0  0.57097  0.35724  0.53192  1.0000
  C   C1740     1.0  0.73840  0.36144  0.51583  1.0000
  H   H2963     1.0  0.78313  0.33881  0.55215  1.0000
  Fe  Fe249     1.0  0.65398  0.34603  0.54101  1.0000
  H   H2964     1.0  0.61475  0.35352  0.66720  1.0000
  C   C1741     1.0  0.74642  0.37920  0.55083  1.0000
  S   S497      1.0  0.69758  0.39337  0.50395  1.0000
  H   H2965     1.0  0.63347  0.54903  0.49932  1.0000
  S   S498      1.0  0.63307  0.33200  0.52580  1.0000
  H   H2966     1.0  0.72923  0.35475  0.55486  1.0000
  H   H2967     1.0  0.66027  0.35786  0.50506  1.0000
  H   H2968     1.0  0.63145  0.52786  0.51601  1.0000
  C   C1742     1.0  0.77262  0.35198  0.52304  1.0000
  H   H2969     1.0  0.60544  0.37709  0.53584  1.0000
  H   H2970     1.0  0.80170  0.34090  0.53194  1.0000
  H   H2971     1.0  0.59781  0.38110  0.56085  1.0000
  H   H2972     1.0  0.74132  0.37713  0.51364  1.0000
  Fe  Fe250     1.0  0.50197  0.34947  0.68006  1.0000
  S   S499      1.0  0.53049  0.33033  0.67922  1.0000
  H   H2973     1.0  0.72257  0.36158  0.52170  1.0000
  C   C1743     1.0  0.97613  0.49065  0.72372  1.0000
  H   H2974     1.0  0.54527  0.35314  0.51753  1.0000
  H   H2975     1.0  0.59297  0.33381  0.54085  1.0000
  H   H2976     1.0  0.50839  0.40955  0.60123  1.0000
  H   H2977     1.0  0.67412  0.46438  0.49769  1.0000
  C   C1744     1.0  0.50255  0.36054  0.61529  1.0000
  H   H2978     1.0  0.58368  0.37913  0.51031  1.0000
  H   H2979     1.0  0.77795  0.34223  0.51128  1.0000
  N   N124      1.0  0.98451  0.47868  0.74131  1.0000
  C   C1745     1.0  0.59050  0.32771  0.68780  1.0000
  C   C1746     1.0  0.98911  0.41976  0.78720  1.0000
  Fe  Fe251     1.0  0.92582  0.35570  0.83398  1.0000
  S   S500      1.0  0.91324  0.37575  0.80948  1.0000
  S   S501      1.0  0.91122  0.34882  0.86485  1.0000
  Fe  Fe252     1.0  0.96272  0.34364  0.80743  1.0000
  S   S502      1.0  0.95282  0.36264  0.78079  1.0000
  H   H2980     1.0  0.85495  0.38296  0.98088  1.0000
  Fe  Fe253     1.0  0.94402  0.38542  0.80225  1.0000
  S   S503      1.0  0.94927  0.41796  0.80016  1.0000
  Fe  Fe254     1.0  0.92339  0.35071  0.79084  1.0000
  S   S504      1.0  0.95561  0.36668  0.82820  1.0000
  H   H2981     1.0  0.95630  0.36730  0.94715  1.0000
  Fe  Fe255     1.0  0.79217  0.38066  0.96254  1.0000
  S   S505      1.0  0.82368  0.37821  0.94948  1.0000
  H   H2982     1.0  0.83045  0.52283  0.93302  1.0000
  Fe  Fe256     1.0  0.78144  0.35024  0.93615  1.0000
  S   S506      1.0  0.81250  0.34534  0.92195  1.0000
  H   H2983     1.0  0.98100  0.37234  0.93977  1.0000
  Fe  Fe257     1.0  0.82149  0.34591  0.95204  1.0000
  H   H2984     1.0  0.85691  0.32877  0.85275  1.0000
  Fe  Fe258     1.0  0.81256  0.37798  0.92015  1.0000
  S   S507      1.0  0.82810  0.39336  0.89265  1.0000
  S   S508      1.0  0.79052  0.34781  0.96693  1.0000
  S   S509      1.0  0.78063  0.38345  0.93261  1.0000
  C   C1747     1.0  0.96923  0.35766  0.91829  1.0000
  H   H2985     1.0  0.96023  0.45251  0.81409  1.0000
  Fe  Fe259     1.0  0.97346  0.34001  0.98482  1.0000
  H   H2986     1.0  0.86551  0.51618  0.97434  1.0000
  C   C1748     1.0  0.94136  0.37216  0.89918  1.0000
  H   H2987     1.0  0.84325  0.54863  0.99236  1.0000
  C   C1749     1.0  0.97233  0.63411  0.98998  1.0000
  C   C1750     1.0  0.87896  0.33566  0.97836  1.0000
  S   S510      1.0  0.93432  0.33038  0.81600  1.0000
  H   H2988     1.0  0.85353  0.51681  0.94263  1.0000
  H   H2989     1.0  0.86158  0.38900  0.80253  1.0000
  H   H2990     1.0  0.97995  0.36397  0.90651  1.0000
  H   H2991     1.0  0.85482  0.35574  0.80169  1.0000
  H   H2992     1.0  0.79795  0.51623  0.95657  1.0000
  C   C1751     1.0  0.91827  0.33803  0.92011  1.0000
  H   H2993     1.0  0.83376  0.49782  0.98423  1.0000
  H   H2994     1.0  0.86962  0.43354  0.96872  1.0000
  S   S511      1.0  0.75730  0.33577  0.92454  1.0000
  C   C1752     1.0  0.87718  0.33211  0.82665  1.0000
  H   H2995     1.0  0.81222  0.33576  0.86282  1.0000
  C   C1753     1.0  0.88886  0.36229  0.87284  1.0000
  C   C1754     1.0  0.87687  0.35396  0.88883  1.0000
  C   C1755     1.0  0.85845  0.36362  0.89504  1.0000
  C   C1756     1.0  0.85180  0.38177  0.88544  1.0000
  C   C1757     1.0  0.86386  0.39027  0.86950  1.0000
  C   C1758     1.0  0.88239  0.38056  0.86320  1.0000
  H   H2996     1.0  0.82053  0.54602  0.95364  1.0000
  H   H2997     1.0  0.84931  0.35685  0.90715  1.0000
  H   H2998     1.0  0.85881  0.40432  0.86196  1.0000
  H   H2999     1.0  0.89158  0.38713  0.85086  1.0000
  C   C1759     1.0  0.82066  0.34763  0.86575  1.0000
  H   H3000     1.0  0.95285  0.38094  0.89084  1.0000
  C   C1760     1.0  0.86954  0.41834  0.97617  1.0000
  H   H3001     1.0  0.83959  0.42428  0.98928  1.0000
  C   C1761     1.0  0.86904  0.35571  0.94920  1.0000
  C   C1762     1.0  0.88331  0.36834  0.95043  1.0000
  H   H3002     1.0  0.97161  0.51480  0.77390  1.0000
  H   H3003     1.0  0.87114  0.37593  0.82387  1.0000
  H   H3004     1.0  0.85996  0.35845  0.93724  1.0000
  H   H3005     1.0  0.88489  0.38092  0.93956  1.0000
  C   C1763     1.0  0.98761  0.43827  0.85719  1.0000
  H   H3006     1.0  0.97562  0.45757  0.76551  1.0000
  H   H3007     1.0  0.98399  0.39931  0.85732  1.0000
  C   C1764     1.0  0.97287  0.34416  0.87848  1.0000
  H   H3008     1.0  0.80350  0.42848  0.96876  1.0000
  C   C1765     1.0  0.98196  0.62851  0.97189  1.0000
  H   H3009     1.0  0.99087  0.46940  0.80816  1.0000
  H   H3010     1.0  0.80461  0.49652  0.97541  1.0000
  H   H3011     1.0  0.98775  0.34309  0.88360  1.0000
  H   H3012     1.0  0.99491  0.48444  0.76847  1.0000
  C   C1766     1.0  0.96652  0.37197  0.93418  1.0000
  H   H3013     1.0  0.91141  0.38392  0.91028  1.0000
  H   H3014     1.0  0.95551  0.47182  0.75502  1.0000
  C   C1767     1.0  0.89530  0.36473  0.96578  1.0000
  C   C1768     1.0  0.81576  0.56589  0.98869  1.0000
  H   H3015     1.0  0.97694  0.34362  0.92469  1.0000
  H   H3016     1.0  0.95959  0.49300  0.77657  1.0000
  H   H3017     1.0  0.92854  0.40152  0.90531  1.0000
  N   N125      1.0  0.84156  0.34930  0.83179  1.0000
  C   C1769     1.0  0.86647  0.33969  0.96344  1.0000
  S   S512      1.0  0.96469  0.37183  0.98927  1.0000
  C   C1770     1.0  0.92698  0.38610  0.91157  1.0000
  H   H3018     1.0  0.98859  0.40620  0.78092  1.0000
  H   H3019     1.0  0.98379  0.43212  0.87261  1.0000
  S   S513      1.0  0.90154  0.33899  0.77342  1.0000
  H   H3020     1.0  0.96183  0.38716  0.92802  1.0000
  H   H3021     1.0  0.88162  0.33975  0.89626  1.0000
  H   H3022     1.0  0.81773  0.57106  0.97276  1.0000
  N   N126      1.0  0.95085  0.35374  0.91002  1.0000
  H   H3023     1.0  0.97432  0.62077  0.96284  1.0000
  C   C1771     1.0  0.82749  0.54576  0.99380  1.0000
  C   C1772     1.0  0.85734  0.38079  0.81705  1.0000
  C   C1773     1.0  0.84453  0.38566  0.99416  1.0000
  H   H3024     1.0  0.93261  0.36821  0.88789  1.0000
  H   H3025     1.0  0.88466  0.41367  0.98027  1.0000
  C   C1774     1.0  0.97322  0.44585  0.80585  1.0000
  H   H3026     1.0  0.86579  0.49662  0.99395  1.0000
  C   C1775     1.0  0.95702  0.33870  0.89556  1.0000
  H   H3027     1.0  0.86588  0.35185  0.84828  1.0000
  N   N127      1.0  0.82479  0.52945  0.98184  1.0000
  C   C1776     1.0  0.99060  0.45546  0.80252  1.0000
  C   C1777     1.0  0.84618  0.36348  0.81380  1.0000
  C   C1778     1.0  0.86008  0.34074  0.84084  1.0000
  C   C1779     1.0  0.79666  0.51131  0.97258  1.0000
  C   C1780     1.0  0.97052  0.46430  0.75127  1.0000
  Fe  Fe260     1.0  0.93386  0.36465  0.98780  1.0000
  H   H3028     1.0  0.83565  0.37175  0.85185  1.0000
  H   H3029     1.0  0.92931  0.38521  0.92725  1.0000
  C   C1781     1.0  0.97229  0.42800  0.79809  1.0000
  H   H3030     1.0  0.78079  0.50966  0.97719  1.0000
  H   H3031     1.0  0.99307  0.36684  0.79594  1.0000
  H   H3032     1.0  0.97903  0.43235  0.84701  1.0000
  C   C1782     1.0  0.83734  0.51863  0.94697  1.0000
  C   C1783     1.0  0.96777  0.50313  0.76564  1.0000
  H   H3033     1.0  0.84793  0.39132  0.82607  1.0000
  H   H3034     1.0  0.81157  0.45970  0.97892  1.0000
  C   C1784     1.0  0.80409  0.44955  0.98965  1.0000
  H   H3035     1.0  0.98214  0.39912  0.83180  1.0000
  H   H3036     1.0  0.96915  0.35891  0.87072  1.0000
  C   C1785     1.0  0.93709  0.34455  0.92643  1.0000
  H   H3037     1.0  0.98269  0.45426  0.85646  1.0000
  C   C1786     1.0  0.89321  0.34829  0.97965  1.0000
  S   S514      1.0  0.91259  0.38093  0.96795  1.0000
  H   H3038     1.0  0.83261  0.50419  0.95304  1.0000
  C   C1787     1.0  0.79954  0.43180  0.98381  1.0000
  H   H3039     1.0  0.81052  0.35726  0.87524  1.0000
  H   H3040     1.0  0.84522  0.54328  0.95954  1.0000
  H   H3041     1.0  0.93205  0.35441  0.93797  1.0000
  C   C1788     1.0  0.83185  0.53531  0.96052  1.0000
  H   H3042     1.0  0.86610  0.40920  0.96509  1.0000
  H   H3043     1.0  0.83241  0.37031  0.80766  1.0000
  H   H3044     1.0  0.83050  0.39278  0.98856  1.0000
  H   H3045     1.0  0.81501  0.36827  0.84020  1.0000
  C   C1789     1.0  0.82808  0.36018  0.84679  1.0000
  H   H3046     1.0  0.81086  0.34952  0.80632  1.0000
  H   H3047     1.0  0.90814  0.33400  0.93347  1.0000
  H   H3048     1.0  0.95806  0.51028  0.75449  1.0000
  C   C1790     1.0  0.85884  0.51161  0.98941  1.0000
  H   H3049     1.0  0.94498  0.33142  0.93433  1.0000
  H   H3050     1.0  0.83293  0.34139  0.87452  1.0000
  S   S515      1.0  0.94277  0.33374  0.98140  1.0000
  S   S516      1.0  0.78334  0.39597  0.99081  1.0000
  H   H3051     1.0  0.91023  0.34992  0.91098  1.0000
  H   H3052     1.0  0.79396  0.54039  0.97998  1.0000
  C   C1791     1.0  0.80312  0.52657  0.98443  1.0000
  C   C1792     1.0  0.83629  0.51113  0.99065  1.0000
  H   H3053     1.0  0.94416  0.33568  0.88837  1.0000
  C   C1793     1.0  0.99215  0.39477  0.84352  1.0000
  H   H3054     1.0  0.99454  0.37846  0.84486  1.0000
  H   H3055     1.0  0.80016  0.34287  0.83125  1.0000
  H   H3056     1.0  0.95736  0.63079  0.99469  1.0000
  C   C1794     1.0  0.83200  0.33271  0.82572  1.0000
  C   C1795     1.0  0.81112  0.33809  0.81909  1.0000
  H   H3057     1.0  0.97384  0.33350  0.86739  1.0000
  H   H3058     1.0  0.79985  0.56580  0.99399  1.0000
  H   H3059     1.0  0.83334  0.35750  0.99399  1.0000
  H   H3060     1.0  0.90211  0.34556  0.99178  1.0000
  H   H3061     1.0  0.88321  0.34353  0.81558  1.0000
  C   C1796     1.0  0.98698  0.49242  0.75620  1.0000
  H   H3062     1.0  0.67425  0.32806  0.94141  1.0000
  H   H3063     1.0  0.99632  0.50414  0.74947  1.0000
  H   H3064     1.0  0.95859  0.43690  0.75000  1.0000
  C   C1797     1.0  0.85410  0.41838  0.99444  1.0000
  Fe  Fe261     1.0  0.64072  0.92451  0.07585  1.0000
  S   S517      1.0  0.67175  0.92104  0.06148  1.0000
  S   S518      1.0  0.62665  0.95074  0.09014  1.0000
  Fe  Fe262     1.0  0.63070  0.88541  0.06565  1.0000
  S   S519      1.0  0.66098  0.87896  0.04978  1.0000
  S   S520      1.0  0.60685  0.86556  0.07702  1.0000
  Fe  Fe263     1.0  0.67214  0.88981  0.07568  1.0000
  S   S521      1.0  0.69627  0.87184  0.09207  1.0000
  Fe  Fe264     1.0  0.65760  0.91101  0.03713  1.0000
  H   H3065     1.0  0.72185  0.71121  0.20048  1.0000
  S   S522      1.0  0.64221  0.89449  0.09201  1.0000
  S   S523      1.0  0.62632  0.91630  0.05096  1.0000
  H   H3066     1.0  0.53673  0.69501  0.14738  1.0000
  H   H3067     1.0  0.54303  0.93688  0.06960  1.0000
  Fe  Fe265     1.0  0.51777  0.91141  0.12413  1.0000
  Fe  Fe266     1.0  0.53260  0.80213  0.04825  1.0000
  S   S524      1.0  0.52674  0.77199  0.04288  1.0000
  S   S525      1.0  0.55801  0.81703  0.03105  1.0000
  H   H3068     1.0  0.62065  0.93672  0.15700  1.0000
  H   H3069     1.0  0.61617  0.81088  0.06815  1.0000
  Fe  Fe267     1.0  0.52048  0.76693  0.07619  1.0000
  S   S526      1.0  0.53586  0.74123  0.09490  1.0000
  C   C1798     1.0  0.76252  0.67272  0.22037  1.0000
  S   S527      1.0  0.52815  0.79637  0.08111  1.0000
  H   H3070     1.0  0.71854  0.95536  0.18582  1.0000
  S   S528      1.0  0.71287  0.82772  0.21211  1.0000
  C   C1799     1.0  0.66375  0.94895  0.99824  1.0000
  S   S529      1.0  0.74965  0.85259  0.21492  1.0000
  Fe  Fe268     1.0  0.71876  0.85911  0.20573  1.0000
  S   S530      1.0  0.70426  0.88009  0.18200  1.0000
  Fe  Fe269     1.0  0.74204  0.82170  0.22433  1.0000
  H   H3071     1.0  0.69013  0.95963  0.11165  1.0000
  S   S531      1.0  0.84783  0.76571  0.20162  1.0000
  H   H3072     1.0  0.71152  0.80561  0.16971  1.0000
  N   N128      1.0  0.69167  0.94540  0.17864  1.0000
  Fe  Fe270     1.0  0.88404  0.69764  0.21528  1.0000
  H   H3073     1.0  0.53056  0.72729  0.20499  1.0000
  S   S532      1.0  0.70567  0.86707  0.23568  1.0000
  H   H3074     1.0  0.66447  0.78501  0.17816  1.0000
  Fe  Fe271     1.0  0.62492  0.73495  0.21617  1.0000
  S   S533      1.0  0.61869  0.71974  0.19067  1.0000
  H   H3075     1.0  0.64583  0.84462  0.12490  1.0000
  S   S534      1.0  0.58157  0.70261  0.21997  1.0000
  Fe  Fe272     1.0  0.61437  0.69398  0.21362  1.0000
  H   H3076     1.0  0.52193  0.70607  0.21917  1.0000
  Fe  Fe273     1.0  0.58660  0.72975  0.19893  1.0000
  S   S535      1.0  0.56394  0.74700  0.17939  1.0000
  S   S536      1.0  0.59332  0.74664  0.22309  1.0000
  H   H3077     1.0  0.90162  0.71144  0.13070  1.0000
  H   H3078     1.0  0.82743  0.66623  0.10236  1.0000
  H   H3079     1.0  0.68436  0.98444  0.19848  1.0000
  H   H3080     1.0  0.59102  0.91778  0.16915  1.0000
  N   N129      1.0  0.58820  0.92758  0.13811  1.0000
  S   S537      1.0  0.66617  0.92325  0.00532  1.0000
  H   H3081     1.0  0.56270  0.91311  0.02205  1.0000
  C   C1800     1.0  0.68078  0.79165  0.23184  1.0000
  H   H3082     1.0  0.98126  0.69367  0.16210  1.0000
  H   H3083     1.0  0.61279  0.89716  0.15602  1.0000
  H   H3084     1.0  0.65763  0.79634  0.15440  1.0000
  C   C1801     1.0  0.68420  0.66490  0.21683  1.0000
  C   C1802     1.0  0.50875  0.77018  0.19516  1.0000
  C   C1803     1.0  0.79396  0.71640  0.21357  1.0000
  H   H3085     1.0  0.98841  0.68614  0.20037  1.0000
  S   S538      1.0  0.85194  0.70752  0.21304  1.0000
  H   H3086     1.0  0.62819  0.79498  0.05082  1.0000
  S   S539      1.0  0.75687  0.79077  0.22336  1.0000
  H   H3087     1.0  0.70235  0.81947  0.14852  1.0000
  H   H3088     1.0  0.63756  0.85692  0.14610  1.0000
  C   C1804     1.0  0.90408  0.67725  0.17072  1.0000
  C   C1805     1.0  0.95904  0.68119  0.14923  1.0000
  C   C1806     1.0  0.66402  0.67020  0.21493  1.0000
  C   C1807     1.0  0.91171  0.68080  0.12916  1.0000
  C   C1808     1.0  0.90429  0.69724  0.13907  1.0000
  C   C1809     1.0  0.90048  0.69550  0.15977  1.0000
  H   H3089     1.0  0.56285  0.94291  0.10621  1.0000
  C   C1810     1.0  0.68996  0.97062  0.03677  1.0000
  C   C1811     1.0  0.54254  0.67170  0.17233  1.0000
  H   H3090     1.0  0.89504  0.70832  0.16727  1.0000
  H   H3091     1.0  0.58363  0.75993  0.11629  1.0000
  H   H3092     1.0  0.50738  0.79401  0.15010  1.0000
  C   C1812     1.0  0.84367  0.66611  0.13638  1.0000
  H   H3093     1.0  0.75355  0.72336  0.21069  1.0000
  C   C1813     1.0  0.86960  0.68139  0.08467  1.0000
  H   H3094     1.0  0.74809  0.66902  0.22809  1.0000
  H   H3095     1.0  0.69139  0.79762  0.15976  1.0000
  H   H3096     1.0  0.65149  0.86240  0.20786  1.0000
  H   H3097     1.0  0.72197  0.93994  0.13418  1.0000
  H   H3098     1.0  0.63273  0.83164  0.14549  1.0000
  H   H3099     1.0  0.73059  0.94498  0.15627  1.0000
  H   H3100     1.0  0.68823  0.76637  0.21579  1.0000
  H   H3101     1.0  0.65846  0.93356  0.16360  1.0000
  H   H3102     1.0  0.63928  0.78804  0.17252  1.0000
  C   C1814     1.0  0.52568  0.85971  0.09034  1.0000
  C   C1815     1.0  0.51255  0.84651  0.08746  1.0000
  H   H3103     1.0  0.53776  0.86263  0.07926  1.0000
  H   H3104     1.0  0.51462  0.83936  0.07412  1.0000
  C   C1816     1.0  0.54423  0.74339  0.11803  1.0000
  C   C1817     1.0  0.53793  0.75966  0.12840  1.0000
  C   C1818     1.0  0.54442  0.76059  0.14695  1.0000
  C   C1819     1.0  0.55748  0.74546  0.15533  1.0000
  C   C1820     1.0  0.56424  0.72946  0.14473  1.0000
  C   C1821     1.0  0.55745  0.72833  0.12631  1.0000
  H   H3105     1.0  0.52779  0.77138  0.12228  1.0000
  H   H3106     1.0  0.53933  0.77315  0.15489  1.0000
  H   H3107     1.0  0.57447  0.71783  0.15088  1.0000
  H   H3108     1.0  0.56252  0.71574  0.11837  1.0000
  H   H3109     1.0  0.55986  0.79547  0.11074  1.0000
  H   H3110     1.0  0.54811  0.88618  0.02017  1.0000
  H   H3111     1.0  0.67209  0.84427  0.20705  1.0000
  H   H3112     1.0  0.50505  0.87291  0.13492  1.0000
  H   H3113     1.0  0.85828  0.68119  0.07447  1.0000
  C   C1822     1.0  0.69785  0.87373  0.11729  1.0000
  C   C1823     1.0  0.68560  0.88773  0.12745  1.0000
  C   C1824     1.0  0.68759  0.88921  0.14735  1.0000
  C   C1825     1.0  0.70172  0.87666  0.15734  1.0000
  C   C1826     1.0  0.71362  0.86231  0.14736  1.0000
  C   C1827     1.0  0.71174  0.86093  0.12738  1.0000
  H   H3114     1.0  0.67489  0.89768  0.11985  1.0000
  H   H3115     1.0  0.67820  0.90023  0.15497  1.0000
  H   H3116     1.0  0.72463  0.85264  0.15485  1.0000
  H   H3117     1.0  0.72128  0.85008  0.11960  1.0000
  C   C1828     1.0  0.59314  0.85327  0.06326  1.0000
  C   C1829     1.0  0.59844  0.85120  0.04327  1.0000
  C   C1830     1.0  0.58746  0.84020  0.03338  1.0000
  C   C1831     1.0  0.57117  0.83133  0.04343  1.0000
  C   C1832     1.0  0.56574  0.83381  0.06326  1.0000
  C   C1833     1.0  0.57667  0.84473  0.07310  1.0000
  H   H3118     1.0  0.61119  0.85770  0.03558  1.0000
  H   H3119     1.0  0.59176  0.83833  0.01800  1.0000
  H   H3120     1.0  0.55311  0.82734  0.07109  1.0000
  H   H3121     1.0  0.57236  0.84651  0.08853  1.0000
  H   H3122     1.0  0.81758  0.74655  0.22678  1.0000
  C   C1834     1.0  0.67342  0.97673  0.19252  1.0000
  H   H3123     1.0  0.70414  0.92154  0.16148  1.0000
  S   S540      1.0  0.53717  0.96265  0.16114  1.0000
  H   H3124     1.0  0.80789  0.79581  0.24050  1.0000
  H   H3125     1.0  0.50825  0.71902  0.19968  1.0000
  H   H3126     1.0  0.54101  0.92918  0.02225  1.0000
  C   C1835     1.0  0.64960  0.98220  0.00355  1.0000
  H   H3127     1.0  0.57858  0.92672  0.06628  1.0000
  C   C1836     1.0  0.72944  0.70610  0.21388  1.0000
  H   H3128     1.0  0.96586  0.68543  0.13406  1.0000
  H   H3129     1.0  0.69602  0.79408  0.23209  1.0000
  H   H3130     1.0  0.93519  0.70109  0.21726  1.0000
  H   H3131     1.0  0.84828  0.67493  0.16489  1.0000
  C   C1837     1.0  0.66192  0.95368  0.10412  1.0000
  C   C1838     1.0  0.51677  0.94009  0.05541  1.0000
  H   H3132     1.0  0.69345  0.67611  0.21848  1.0000
  S   S541      1.0  0.90096  0.67450  0.19678  1.0000
  H   H3133     1.0  0.87693  0.69499  0.08007  1.0000
  H   H3134     1.0  0.68993  0.97812  0.02157  1.0000
  C   C1839     1.0  0.56601  0.94046  0.03190  1.0000
  H   H3135     1.0  0.56214  0.90415  0.16760  1.0000
  C   C1840     1.0  0.54156  0.66515  0.21746  1.0000
  C   C1841     1.0  0.54246  0.88119  0.03551  1.0000
  C   C1842     1.0  0.78651  0.69646  0.21191  1.0000
  C   C1843     1.0  0.60585  0.94372  0.16212  1.0000
  H   H3136     1.0  0.64812  0.94986  0.18186  1.0000
  C   C1844     1.0  0.76377  0.69892  0.24192  1.0000
  H   H3137     1.0  0.61827  0.98103  0.11561  1.0000
  C   C1845     1.0  0.85491  0.67681  0.14930  1.0000
  N   N130      1.0  0.96802  0.67343  0.18501  1.0000
  C   C1846     1.0  0.52272  0.86965  0.10716  1.0000
  H   H3138     1.0  0.73061  0.92599  0.20646  1.0000
  N   N131      1.0  0.54602  0.91303  0.05078  1.0000
  C   C1847     1.0  0.53256  0.89844  0.04685  1.0000
  C   C1848     1.0  0.53395  0.92679  0.06426  1.0000
  C   C1849     1.0  0.56311  0.90175  0.06071  1.0000
  C   C1850     1.0  0.55334  0.92357  0.03128  1.0000
  C   C1851     1.0  0.76357  0.66587  0.19969  1.0000
  H   H3139     1.0  0.67230  0.96797  0.16335  1.0000
  H   H3140     1.0  0.52498  0.89195  0.06097  1.0000
  C   C1852     1.0  0.50659  0.79248  0.18866  1.0000
  H   H3141     1.0  0.87070  0.67110  0.14892  1.0000
  H   H3142     1.0  0.55824  0.88879  0.07054  1.0000
  H   H3143     1.0  0.57470  0.89556  0.04968  1.0000
  H   H3144     1.0  0.88106  0.66883  0.08291  1.0000
  C   C1853     1.0  0.97489  0.67937  0.16365  1.0000
  H   H3145     1.0  0.72298  0.71535  0.22569  1.0000
  H   H3146     1.0  0.69052  0.98991  0.07932  1.0000
  C   C1854     1.0  0.75175  0.70786  0.20897  1.0000
  H   H3147     1.0  0.81773  0.84995  0.22784  1.0000
  C   C1855     1.0  0.95320  0.68988  0.19196  1.0000
  N   N132      1.0  0.76562  0.69396  0.22089  1.0000
  H   H3148     1.0  0.52068  0.79614  0.17986  1.0000
  S   S542      1.0  0.62647  0.66240  0.20980  1.0000
  H   H3149     1.0  0.61851  0.76610  0.06943  1.0000
  C   C1856     1.0  0.81095  0.76047  0.22030  1.0000
  H   H3150     1.0  0.95317  0.66695  0.14896  1.0000
  S   S543      1.0  0.91615  0.68359  0.10313  1.0000
  S   S544      1.0  0.53747  0.88815  0.10934  1.0000
  C   C1857     1.0  0.67619  0.93264  0.18865  1.0000
  Fe  Fe274     1.0  0.59048  0.71869  0.24350  1.0000
  H   H3151     1.0  0.50619  0.79967  0.20229  1.0000
  H   H3152     1.0  0.63986  0.99200  0.01240  1.0000
  H   H3153     1.0  0.84735  0.69309  0.10634  1.0000
  C   C1858     1.0  0.61578  0.89813  0.13983  1.0000
  H   H3154     1.0  0.52125  0.76664  0.20435  1.0000
  H   H3155     1.0  0.59734  0.95564  0.12447  1.0000
  H   H3156     1.0  0.68811  0.93949  0.14906  1.0000
  C   C1859     1.0  0.81387  0.79088  0.19910  1.0000
  H   H3157     1.0  0.67174  0.96934  0.06462  1.0000
  H   H3158     1.0  0.56217  0.68625  0.14901  1.0000
  C   C1860     1.0  0.52395  0.67014  0.20505  1.0000
  N   N133      1.0  0.66328  0.83017  0.17107  1.0000
  C   C1861     1.0  0.65593  0.84877  0.18047  1.0000
  C   C1862     1.0  0.66368  0.83517  0.14904  1.0000
  C   C1863     1.0  0.68391  0.82362  0.17653  1.0000
  C   C1864     1.0  0.64953  0.81492  0.17910  1.0000
  C   C1865     1.0  0.65684  0.84776  0.20294  1.0000
  C   C1866     1.0  0.64362  0.84246  0.14128  1.0000
  C   C1867     1.0  0.69779  0.81080  0.16267  1.0000
  C   C1868     1.0  0.65326  0.79506  0.17045  1.0000
  H   H3159     1.0  0.66446  0.86107  0.17351  1.0000
  H   H3160     1.0  0.64024  0.85354  0.17814  1.0000
  H   H3161     1.0  0.66993  0.82257  0.14087  1.0000
  H   H3162     1.0  0.67377  0.84671  0.14390  1.0000
  H   H3163     1.0  0.69195  0.83660  0.17723  1.0000
  H   H3164     1.0  0.68334  0.81538  0.19152  1.0000
  H   H3165     1.0  0.65031  0.81111  0.19521  1.0000
  H   H3166     1.0  0.63376  0.82071  0.17825  1.0000
  H   H3167     1.0  0.64723  0.83720  0.21146  1.0000
  H   H3168     1.0  0.55098  0.69847  0.19339  1.0000
  S   S545      1.0  0.51865  0.94349  0.11445  1.0000
  S   S546      1.0  0.62279  0.70840  0.23852  1.0000
  C   C1869     1.0  0.67634  0.77577  0.22276  1.0000
  H   H3169     1.0  0.56970  0.97629  0.17659  1.0000
  H   H3170     1.0  0.71387  0.96297  0.14319  1.0000
  Fe  Fe275     1.0  0.70097  0.83506  0.24222  1.0000
  S   S547      1.0  0.65236  0.75112  0.21182  1.0000
  H   H3171     1.0  0.93962  0.69120  0.18432  1.0000
  H   H3172     1.0  0.57565  0.78745  0.13025  1.0000
  C   C1870     1.0  0.64180  0.96032  0.10443  1.0000
  C   C1871     1.0  0.61434  0.77926  0.07734  1.0000
  C   C1872     1.0  0.63382  0.97582  0.11523  1.0000
  C   C1873     1.0  0.64152  0.78391  0.23218  1.0000
  H   H3173     1.0  0.98712  0.66900  0.15773  1.0000
  C   C1874     1.0  0.78215  0.78441  0.21688  1.0000
  C   C1875     1.0  0.86028  0.68164  0.10622  1.0000
  C   C1876     1.0  0.57359  0.79774  0.11677  1.0000
  N   N134      1.0  0.85441  0.66225  0.11652  1.0000
  H   H3174     1.0  0.60370  0.95894  0.15481  1.0000
  H   H3175     1.0  0.59013  0.80966  0.09085  1.0000
  H   H3176     1.0  0.56516  0.77203  0.08945  1.0000
  H   H3177     1.0  0.57230  0.79265  0.07330  1.0000
  H   H3178     1.0  0.57139  0.81277  0.12149  1.0000
  C   C1877     1.0  0.59725  0.76056  0.10582  1.0000
  H   H3179     1.0  0.65793  0.68538  0.21509  1.0000
  C   C1878     1.0  0.53574  0.70155  0.18899  1.0000
  C   C1879     1.0  0.59189  0.79622  0.10135  1.0000
  C   C1880     1.0  0.57768  0.77751  0.07930  1.0000
  C   C1881     1.0  0.79078  0.76620  0.22488  1.0000
  H   H3180     1.0  0.60295  0.72892  0.11100  1.0000
  C   C1882     1.0  0.58425  0.94730  0.12629  1.0000
  C   C1883     1.0  0.65676  0.77169  0.22305  1.0000
  C   C1884     1.0  0.67437  0.96386  0.11305  1.0000
  C   C1885     1.0  0.80622  0.84199  0.22330  1.0000
  C   C1886     1.0  0.58925  0.93148  0.15907  1.0000
  H   H3181     1.0  0.60939  0.76181  0.11489  1.0000
  C   C1887     1.0  0.60731  0.91764  0.12903  1.0000
  H   H3182     1.0  0.60501  0.79769  0.10899  1.0000
  C   C1888     1.0  0.79369  0.79679  0.20396  1.0000
  H   H3183     1.0  0.56763  0.75723  0.06164  1.0000
  H   H3184     1.0  0.49946  0.82596  0.15924  1.0000
  H   H3185     1.0  0.57232  0.95650  0.13413  1.0000
  H   H3186     1.0  0.78705  0.81075  0.19756  1.0000
  N   N135      1.0  0.59518  0.77809  0.09053  1.0000
  C   C1889     1.0  0.64612  0.98552  0.12464  1.0000
  H   H3187     1.0  0.66807  0.94140  0.09619  1.0000
  H   H3188     1.0  0.50916  0.66941  0.15336  1.0000
  Fe  Fe276     1.0  0.51557  0.94686  0.14688  1.0000
  C   C1890     1.0  0.60094  0.74021  0.09822  1.0000
  H   H3189     1.0  0.70137  0.94996  0.20641  1.0000
  H   H3190     1.0  0.54666  0.67836  0.22206  1.0000
  S   S548      1.0  0.89176  0.72791  0.21763  1.0000
  C   C1891     1.0  0.66566  0.80388  0.24105  1.0000
  H   H3191     1.0  0.82282  0.80036  0.18899  1.0000
  C   C1892     1.0  0.82252  0.77274  0.20732  1.0000
  H   H3192     1.0  0.58139  0.77505  0.04742  1.0000
  H   H3193     1.0  0.52765  0.91829  0.07791  1.0000
  C   C1893     1.0  0.58078  0.76525  0.06151  1.0000
  C   C1894     1.0  0.79323  0.83268  0.24104  1.0000
  Fe  Fe277     1.0  0.85922  0.73721  0.21832  1.0000
  H   H3194     1.0  0.80907  0.71666  0.20574  1.0000
  H   H3195     1.0  0.68792  0.95508  0.03561  1.0000
  H   H3196     1.0  0.68177  0.91683  0.18859  1.0000
  H   H3197     1.0  0.52210  0.95036  0.04276  1.0000
  H   H3198     1.0  0.77855  0.66608  0.19164  1.0000
  C   C1895     1.0  0.52320  0.71397  0.20413  1.0000
  H   H3199     1.0  0.60187  0.79940  0.05317  1.0000
  H   H3200     1.0  0.61451  0.73845  0.08786  1.0000
  C   C1896     1.0  0.64598  0.79992  0.24124  1.0000
  H   H3201     1.0  0.49889  0.85756  0.02898  1.0000
  H   H3202     1.0  0.62678  0.77952  0.08634  1.0000
  C   C1897     1.0  0.61490  0.79721  0.06158  1.0000
  H   H3203     1.0  0.61916  0.92763  0.12661  1.0000
  C   C1898     1.0  0.57360  0.91286  0.07381  1.0000
  H   H3204     1.0  0.57242  0.90980  0.12261  1.0000
  S   S549      1.0  0.50136  0.81457  0.04557  1.0000
  H   H3205     1.0  0.79518  0.71860  0.22909  1.0000
  H   H3206     1.0  0.58845  0.93755  0.09650  1.0000
  H   H3207     1.0  0.79718  0.68492  0.21882  1.0000
  H   H3208     1.0  0.58793  0.73677  0.09162  1.0000
  H   H3209     1.0  0.59368  0.75408  0.06117  1.0000
  S   S550      1.0  0.51686  0.91415  0.15620  1.0000
  H   H3210     1.0  0.81321  0.83084  0.21354  1.0000
  C   C1899     1.0  0.68307  0.96641  0.17447  1.0000
  H   H3211     1.0  0.50556  0.93165  0.05105  1.0000
  H   H3212     1.0  0.55649  0.89021  0.14916  1.0000
  H   H3213     1.0  0.64283  0.95613  0.02286  1.0000
  H   H3214     1.0  0.62636  0.78102  0.23222  1.0000
  C   C1900     1.0  0.56791  0.89869  0.15323  1.0000
  C   C1901     1.0  0.50710  0.86570  0.12158  1.0000
  H   H3215     1.0  0.51252  0.76138  0.18250  1.0000
  H   H3216     1.0  0.78835  0.69462  0.19593  1.0000
  H   H3217     1.0  0.93793  0.67505  0.21893  1.0000
  C   C1902     1.0  0.54695  0.68182  0.15117  1.0000
  C   C1903     1.0  0.98513  0.67140  0.19735  1.0000
  H   H3218     1.0  0.78189  0.75661  0.23491  1.0000
  C   C1904     1.0  0.55136  0.98288  0.15276  1.0000
  H   H3219     1.0  0.95806  0.68824  0.22352  1.0000
  H   H3220     1.0  0.52055  0.90570  0.03816  1.0000
  H   H3221     1.0  0.51143  0.67687  0.21466  1.0000
  C   C1905     1.0  0.70767  0.94486  0.19197  1.0000
  H   H3222     1.0  0.60571  0.91438  0.11389  1.0000
  H   H3223     1.0  0.94678  0.69272  0.15239  1.0000
  C   C1906     1.0  0.71913  0.92453  0.19676  1.0000
  H   H3224     1.0  0.87137  0.68727  0.11410  1.0000
  C   C1907     1.0  0.50059  0.67185  0.16775  1.0000
  H   H3225     1.0  0.70938  0.91388  0.20495  1.0000
  H   H3226     1.0  0.95930  0.70431  0.18828  1.0000
  H   H3227     1.0  0.57783  0.96229  0.09781  1.0000
  H   H3228     1.0  0.77362  0.66294  0.22851  1.0000
  C   C1908     1.0  0.91509  0.66252  0.14012  1.0000
  H   H3229     1.0  0.66680  0.96668  0.20459  1.0000
  H   H3230     1.0  0.57499  0.93924  0.16501  1.0000
  H   H3231     1.0  0.58119  0.88823  0.15496  1.0000
  N   N136      1.0  0.52763  0.68294  0.18585  1.0000
  C   C1909     1.0  0.71754  0.94714  0.14788  1.0000
  C   C1910     1.0  0.69971  0.93764  0.15933  1.0000
  H   H3232     1.0  0.58690  0.90357  0.07849  1.0000
  H   H3233     1.0  0.82815  0.81009  0.23608  1.0000
  H   H3234     1.0  0.63216  0.89673  0.13691  1.0000
  H   H3235     1.0  0.79674  0.85277  0.21424  1.0000
  C   C1911     1.0  0.65641  0.93535  0.17954  1.0000
  H   H3236     1.0  0.72687  0.91838  0.18341  1.0000
  C   C1912     1.0  0.67272  0.97935  0.05064  1.0000
  C   C1913     1.0  0.66650  0.98029  0.12259  1.0000
  C   C1914     1.0  0.65124  0.96186  0.00951  1.0000
  H   H3237     1.0  0.67286  0.93463  0.20457  1.0000
  H   H3238     1.0  0.64702  0.92400  0.18695  1.0000
  H   H3239     1.0  0.55453  0.87248  0.04306  1.0000
  H   H3240     1.0  0.85387  0.69284  0.14456  1.0000
  H   H3241     1.0  0.69470  0.97568  0.16738  1.0000
  H   H3242     1.0  0.53135  0.87093  0.03469  1.0000
  H   H3243     1.0  0.56455  0.95103  0.01849  1.0000
  H   H3244     1.0  0.66111  0.98769  0.18799  1.0000
  H   H3245     1.0  0.55695  0.92565  0.13797  1.0000
  H   H3246     1.0  0.55699  0.66869  0.17854  1.0000
  C   C1915     1.0  0.57801  0.94716  0.10552  1.0000
  H   H3247     1.0  0.82930  0.67519  0.13456  1.0000
  H   H3248     1.0  0.61034  0.88549  0.13430  1.0000
  H   H3249     1.0  0.60558  0.94498  0.17811  1.0000
  H   H3250     1.0  0.98127  0.66326  0.21205  1.0000
  C   C1916     1.0  0.57114  0.91589  0.13707  1.0000
  H   H3251     1.0  0.75241  0.67447  0.19079  1.0000
  C   C1917     1.0  0.56702  0.98581  0.16328  1.0000
  H   H3252     1.0  0.56395  0.91562  0.08753  1.0000
  H   H3253     1.0  0.76139  0.71513  0.24241  1.0000
  H   H3254     1.0  0.53737  0.71135  0.17494  1.0000
  H   H3255     1.0  0.56115  0.94930  0.04433  1.0000
  H   H3256     1.0  0.50899  0.94924  0.06683  1.0000
  H   H3257     1.0  0.65930  0.97796  0.04361  1.0000
  H   H3258     1.0  0.54607  0.67139  0.14026  1.0000
  H   H3259     1.0  0.58184  0.93481  0.03232  1.0000
  H   H3260     1.0  0.70448  0.97047  0.04233  1.0000
  H   H3261     1.0  0.78477  0.72900  0.20656  1.0000
  H   H3262     1.0  0.72575  0.69089  0.21798  1.0000
  C   C1918     1.0  0.94595  0.68815  0.21422  1.0000
  H   H3263     1.0  0.75556  0.70706  0.19285  1.0000
  H   H3264     1.0  0.53633  0.99334  0.12719  1.0000
  H   H3265     1.0  0.63230  0.98792  0.06234  1.0000
  H   H3266     1.0  0.78362  0.82331  0.23515  1.0000
  H   H3267     1.0  0.50893  0.83182  0.19089  1.0000
  C   C1919     1.0  0.50821  0.68827  0.17724  1.0000
  H   H3268     1.0  0.50871  0.70127  0.16598  1.0000
  Fe  Fe278     1.0  0.94015  0.81385  0.37715  1.0000
  S   S551      1.0  0.94306  0.78245  0.39063  1.0000
  S   S552      1.0  0.91919  0.83680  0.39198  1.0000
  Fe  Fe279     1.0  0.97236  0.80536  0.34418  1.0000
  S   S553      1.0  0.97752  0.77343  0.35482  1.0000
  H   H3269     1.0  0.67643  0.73773  0.28271  1.0000
  Fe  Fe280     1.0  0.94418  0.77513  0.35915  1.0000
  S   S554      1.0  0.92289  0.75449  0.35165  1.0000
  Fe  Fe281     1.0  0.97603  0.78407  0.38501  1.0000
  C   C1920     1.0  0.61441  0.74596  0.27946  1.0000
  S   S555      1.0  0.93954  0.80663  0.34637  1.0000
  S   S556      1.0  0.97262  0.81584  0.37364  1.0000
  Fe  Fe282     1.0  0.81955  0.95661  0.33794  1.0000
  S   S557      1.0  0.79348  0.94985  0.35967  1.0000
  H   H3270     1.0  0.73906  0.92470  0.36749  1.0000
  Fe  Fe283     1.0  0.84232  0.91661  0.34699  1.0000
  S   S558      1.0  0.81838  0.90692  0.36996  1.0000
  S   S559      1.0  0.87093  0.89959  0.33605  1.0000
  Fe  Fe284     1.0  0.79762  0.92023  0.34752  1.0000
  S   S560      1.0  0.77270  0.90258  0.34226  1.0000
  Fe  Fe285     1.0  0.81648  0.93737  0.37990  1.0000
  S   S561      1.0  0.81777  0.94279  0.41202  1.0000
  S   S562      1.0  0.82183  0.92842  0.32415  1.0000
  S   S563      1.0  0.84221  0.94547  0.35856  1.0000
  H   H3271     1.0  0.97334  0.82904  0.41596  1.0000
  H   H3272     1.0  0.81615  0.86478  0.25806  1.0000
  H   H3273     1.0  0.53520  0.69941  0.31675  1.0000
  N   N137      1.0  0.63384  0.74185  0.28821  1.0000
  C   C1921     1.0  0.60463  0.76734  0.27870  1.0000
  H   H3274     1.0  0.72754  0.92965  0.39142  1.0000
  H   H3275     1.0  0.51075  0.72409  0.33315  1.0000
  H   H3276     1.0  0.53882  0.68534  0.25986  1.0000
  S   S564      1.0  0.57179  0.72235  0.27280  1.0000
  H   H3277     1.0  0.96073  0.85150  0.38988  1.0000
  H   H3278     1.0  0.78193  0.83389  0.29362  1.0000
  H   H3279     1.0  0.75370  0.91285  0.45406  1.0000
  H   H3280     1.0  0.52459  0.66261  0.28574  1.0000
  H   H3281     1.0  0.78758  0.98714  0.27119  1.0000
  S   S565      1.0  0.55913  0.68696  0.36239  1.0000
  H   H3282     1.0  0.88315  0.97650  0.34393  1.0000
  H   H3283     1.0  0.66040  0.73572  0.31852  1.0000
  H   H3284     1.0  0.61598  0.74164  0.26418  1.0000
  H   H3285     1.0  0.51149  0.70019  0.34597  1.0000
  H   H3286     1.0  0.98802  0.88216  0.36976  1.0000
  H   H3287     1.0  0.82821  0.98455  0.36212  1.0000
  H   H3288     1.0  0.75303  0.94442  0.44379  1.0000
  C   C1922     1.0  0.74636  0.90332  0.44606  1.0000
  H   H3289     1.0  0.65522  0.71625  0.29322  1.0000
  H   H3290     1.0  0.61580  0.70474  0.28451  1.0000
  H   H3291     1.0  0.87666  0.95710  0.33255  1.0000
  H   H3292     1.0  0.91137  0.98053  0.31442  1.0000
  C   C1923     1.0  0.88954  0.96473  0.33476  1.0000
  C   C1924     1.0  0.64803  0.75470  0.27591  1.0000
  C   C1925     1.0  0.57318  0.68287  0.32265  1.0000
  H   H3293     1.0  0.76818  0.87761  0.41700  1.0000
  H   H3294     1.0  0.92018  0.94185  0.31700  1.0000
  N   N138      1.0  0.51429  0.68224  0.30800  1.0000
  H   H3295     1.0  0.85932  0.78476  0.33319  1.0000
  H   H3296     1.0  0.61882  0.70899  0.30930  1.0000
  C   C1926     1.0  0.57274  0.71122  0.29742  1.0000
  C   C1927     1.0  0.56701  0.72344  0.31239  1.0000
  C   C1928     1.0  0.56425  0.71561  0.33215  1.0000
  C   C1929     1.0  0.56657  0.69531  0.33744  1.0000
  C   C1930     1.0  0.97813  0.87052  0.37037  1.0000
  C   C1931     1.0  0.57643  0.69086  0.30261  1.0000
  H   H3297     1.0  0.56398  0.73911  0.30864  1.0000
  H   H3298     1.0  0.55924  0.72536  0.34338  1.0000
  C   C1932     1.0  0.98732  0.87499  0.41671  1.0000
  H   H3299     1.0  0.96585  0.87647  0.36145  1.0000
  C   C1933     1.0  0.97452  0.84295  0.42233  1.0000
  H   H3300     1.0  0.89932  0.92903  0.32573  1.0000
  H   H3301     1.0  0.84692  0.77993  0.37034  1.0000
  H   H3302     1.0  0.85679  0.75833  0.35926  1.0000
  H   H3303     1.0  0.88838  0.82763  0.32769  1.0000
  N   N139      1.0  0.98377  0.85756  0.40685  1.0000
  H   H3304     1.0  0.89367  0.79372  0.39156  1.0000
  H   H3305     1.0  0.78572  0.88339  0.39596  1.0000
  H   H3306     1.0  0.86097  0.84703  0.33879  1.0000
  H   H3307     1.0  0.84408  0.84649  0.36061  1.0000
  C   C1934     1.0  0.91776  0.98071  0.35629  1.0000
  H   H3308     1.0  0.87413  0.96459  0.37394  1.0000
  S   S566      1.0  0.90886  0.73363  0.26619  1.0000
  H   H3309     1.0  0.93206  0.90882  0.32629  1.0000
  C   C1935     1.0  0.82144  0.98461  0.44868  1.0000
  H   H3310     1.0  0.98384  0.83878  0.43465  1.0000
  H   H3311     1.0  0.81914  0.77964  0.27138  1.0000
  N   N140      1.0  0.80421  0.82093  0.25709  1.0000
  H   H3312     1.0  0.64258  0.77051  0.27612  1.0000
  C   C1936     1.0  0.76823  0.89545  0.31910  1.0000
  C   C1937     1.0  0.75349  0.88296  0.31852  1.0000
  C   C1938     1.0  0.74925  0.87732  0.30046  1.0000
  C   C1939     1.0  0.75958  0.88426  0.28265  1.0000
  C   C1940     1.0  0.77441  0.89660  0.28328  1.0000
  C   C1941     1.0  0.77877  0.90209  0.30132  1.0000
  H   H3313     1.0  0.74519  0.87771  0.33212  1.0000
  H   H3314     1.0  0.73782  0.86783  0.30030  1.0000
  H   H3315     1.0  0.78255  0.90207  0.26967  1.0000
  H   H3316     1.0  0.79011  0.91170  0.30140  1.0000
  H   H3317     1.0  0.73677  0.90045  0.41824  1.0000
  H   H3318     1.0  0.78280  0.90616  0.43196  1.0000
  H   H3319     1.0  0.87726  0.94342  0.39110  1.0000
  H   H3320     1.0  0.79503  0.98089  0.40241  1.0000
  H   H3321     1.0  0.94838  0.83735  0.44245  1.0000
  H   H3322     1.0  0.93277  0.96196  0.33538  1.0000
  C   C1942     1.0  0.78193  0.88456  0.41199  1.0000
  C   C1943     1.0  0.91883  0.74929  0.32770  1.0000
  C   C1944     1.0  0.90303  0.73861  0.32567  1.0000
  C   C1945     1.0  0.89938  0.73407  0.30699  1.0000
  C   C1946     1.0  0.91171  0.73992  0.29009  1.0000
  C   C1947     1.0  0.92738  0.75075  0.29214  1.0000
  C   C1948     1.0  0.93085  0.75554  0.31075  1.0000
  H   H3323     1.0  0.89367  0.73362  0.33866  1.0000
  H   H3324     1.0  0.88737  0.72562  0.30573  1.0000
  H   H3325     1.0  0.93704  0.75533  0.27921  1.0000
  H   H3326     1.0  0.94305  0.76374  0.31200  1.0000
  C   C1949     1.0  0.90600  0.85450  0.37646  1.0000
  C   C1950     1.0  0.88985  0.86652  0.38458  1.0000
  C   C1951     1.0  0.87885  0.88041  0.37236  1.0000
  C   C1952     1.0  0.88410  0.88240  0.35198  1.0000
  C   C1953     1.0  0.90040  0.87058  0.34393  1.0000
  C   C1954     1.0  0.91131  0.85666  0.35611  1.0000
  H   H3327     1.0  0.88572  0.86494  0.40034  1.0000
  H   H3328     1.0  0.86635  0.88956  0.37868  1.0000
  H   H3329     1.0  0.90462  0.87219  0.32818  1.0000
  H   H3330     1.0  0.92392  0.84773  0.34974  1.0000
  C   C1955     1.0  0.76663  0.94517  0.43339  1.0000
  C   C1956     1.0  0.50733  0.70892  0.33215  1.0000
  H   H3331     1.0  0.76985  0.96072  0.43178  1.0000
  H   H3332     1.0  0.95382  0.86216  0.44076  1.0000
  C   C1957     1.0  0.89957  0.80072  0.31580  1.0000
  H   H3333     1.0  0.87079  0.81685  0.31662  1.0000
  H   H3334     1.0  0.91074  0.79390  0.32557  1.0000
  H   H3335     1.0  0.89387  0.78898  0.30903  1.0000
  H   H3336     1.0  0.90719  0.81002  0.30360  1.0000
  H   H3337     1.0  0.79714  0.80211  0.28405  1.0000
  H   H3338     1.0  0.64544  0.71831  0.27046  1.0000
  H   H3339     1.0  0.99128  0.80587  0.46573  1.0000
  C   C1958     1.0  0.92603  0.91759  0.33861  1.0000
  H   H3340     1.0  0.86989  0.84091  0.36270  1.0000
  H   H3341     1.0  0.86828  0.79696  0.38777  1.0000
  H   H3342     1.0  0.51034  0.67029  0.33883  1.0000
  H   H3343     1.0  0.75593  0.90114  0.38865  1.0000
  H   H3344     1.0  0.64932  0.75167  0.26022  1.0000
  N   N141      1.0  0.90474  0.95047  0.34463  1.0000
  H   H3345     1.0  0.63145  0.76248  0.31004  1.0000
  C   C1959     1.0  0.89504  0.94003  0.36319  1.0000
  C   C1960     1.0  0.98473  0.98328  0.31631  1.0000
  C   C1961     1.0  0.96944  0.86372  0.39151  1.0000
  C   C1962     1.0  0.75866  0.91639  0.39046  1.0000
  H   H3346     1.0  0.57525  0.66718  0.32662  1.0000
  S   S567      1.0  0.75490  0.87808  0.25919  1.0000
  C   C1963     1.0  0.77459  0.82590  0.28399  1.0000
  C   C1964     1.0  0.81515  0.96574  0.42226  1.0000
  H   H3347     1.0  0.58075  0.68122  0.29117  1.0000
  H   H3348     1.0  0.60325  0.73705  0.28809  1.0000
  H   H3349     1.0  0.53453  0.66501  0.32713  1.0000
  C   C1965     1.0  0.95371  0.84969  0.43203  1.0000
  H   H3350     1.0  0.76404  0.81719  0.29387  1.0000
  C   C1966     1.0  0.74335  0.91193  0.42466  1.0000
  H   H3351     1.0  0.63497  0.69069  0.29705  1.0000
  H   H3352     1.0  0.91805  0.90752  0.34977  1.0000
  C   C1967     1.0  0.80257  0.98183  0.41516  1.0000
  S   S568      1.0  0.82271  0.98621  0.32087  1.0000
  H   H3353     1.0  0.54339  0.67444  0.29344  1.0000
  H   H3354     1.0  0.93874  0.92231  0.34470  1.0000
  H   H3355     1.0  0.53110  0.70590  0.27302  1.0000
  H   H3356     1.0  0.99493  0.87042  0.43022  1.0000
  H   H3357     1.0  0.89647  0.95909  0.38634  1.0000
  H   H3358     1.0  0.81219  0.98555  0.27763  1.0000
  C   C1968     1.0  0.99013  0.96285  0.31851  1.0000
  C   C1969     1.0  0.63060  0.74655  0.30936  1.0000
  C   C1970     1.0  0.91201  0.93519  0.33066  1.0000
  C   C1971     1.0  0.99564  0.79387  0.43772  1.0000
  C   C1972     1.0  0.51860  0.66645  0.32467  1.0000
  C   C1973     1.0  0.64135  0.72063  0.28628  1.0000
  C   C1974     1.0  0.88527  0.95285  0.37928  1.0000
  H   H3359     1.0  0.82876  0.98547  0.46159  1.0000
  H   H3360     1.0  0.79296  0.85746  0.27001  1.0000
  H   H3361     1.0  0.89781  0.96500  0.30280  1.0000
  C   C1975     1.0  0.62680  0.70555  0.29492  1.0000
  H   H3362     1.0  0.66941  0.75953  0.29573  1.0000
  H   H3363     1.0  0.61541  0.74387  0.31613  1.0000
  H   H3364     1.0  0.67824  0.76171  0.27032  1.0000
  C   C1976     1.0  0.82451  0.96727  0.43911  1.0000
  H   H3365     1.0  0.90592  0.92932  0.37064  1.0000
  H   H3366     1.0  0.58937  0.76770  0.27461  1.0000
  H   H3367     1.0  0.64186  0.74153  0.33802  1.0000
  C   C1977     1.0  0.64461  0.73508  0.32376  1.0000
  H   H3368     1.0  0.83413  0.95489  0.44490  1.0000
  C   C1978     1.0  0.52777  0.67675  0.29006  1.0000
  C   C1979     1.0  0.89686  0.97499  0.31446  1.0000
  H   H3369     1.0  0.88606  0.98773  0.31042  1.0000
  H   H3370     1.0  0.64171  0.71948  0.32705  1.0000
  C   C1980     1.0  0.92217  0.96012  0.34894  1.0000
  H   H3371     1.0  0.73142  0.92435  0.42550  1.0000
  S   S569      1.0  0.98962  0.82078  0.31855  1.0000
  C   C1981     1.0  0.88261  0.81338  0.32670  1.0000
  H   H3372     1.0  0.77243  0.91902  0.38068  1.0000
  H   H3373     1.0  0.94273  0.85344  0.42119  1.0000
  H   H3374     1.0  0.92793  0.98198  0.36739  1.0000
  H   H3375     1.0  0.77601  0.94458  0.40244  1.0000
  C   C1982     1.0  0.81702  0.80437  0.24782  1.0000
  C   C1983     1.0  0.51957  0.70118  0.31383  1.0000
  H   H3376     1.0  0.88367  0.93119  0.35949  1.0000
  H   H3377     1.0  0.75142  0.67383  0.26004  1.0000
  H   H3378     1.0  0.97873  0.95300  0.32071  1.0000
  H   H3379     1.0  0.98003  0.79434  0.43643  1.0000
  C   C1984     1.0  0.88246  0.80309  0.38322  1.0000
  H   H3380     1.0  0.75486  0.88860  0.44660  1.0000
  C   C1985     1.0  0.74158  0.92987  0.38161  1.0000
  H   H3381     1.0  0.79314  0.91269  0.40781  1.0000
  C   C1986     1.0  0.52729  0.69114  0.27111  1.0000
  C   C1987     1.0  0.76347  0.93969  0.41302  1.0000
  H   H3382     1.0  0.73170  0.90138  0.45441  1.0000
  S   S570      1.0  0.95926  0.99216  0.31628  1.0000
  H   H3383     1.0  0.88307  0.77477  0.33970  1.0000
  H   H3384     1.0  0.74541  0.94516  0.37789  1.0000
  H   H3385     1.0  0.84834  0.81179  0.36726  1.0000
  H   H3386     1.0  0.88175  0.81781  0.38845  1.0000
  C   C1988     1.0  0.78021  0.90617  0.41634  1.0000
  H   H3387     1.0  0.75016  0.94935  0.40880  1.0000
  H   H3388     1.0  0.98612  0.85793  0.36306  1.0000
  H   H3389     1.0  0.60342  0.77326  0.29313  1.0000
  N   N142      1.0  0.87436  0.80460  0.34682  1.0000
  C   C1989     1.0  0.86956  0.78420  0.34473  1.0000
  H   H3390     1.0  0.84450  0.81681  0.34228  1.0000
  H   H3391     1.0  0.79412  0.87602  0.41960  1.0000
  H   H3392     1.0  0.95815  0.87567  0.39630  1.0000
  C   C1990     1.0  0.85562  0.81727  0.35274  1.0000
  H   H3393     1.0  0.90112  0.79131  0.35889  1.0000
  H   H3394     1.0  0.87174  0.76820  0.37411  1.0000
  H   H3395     1.0  0.93059  0.95050  0.35993  1.0000
  N   N143      1.0  0.76129  0.91839  0.41162  1.0000
  C   C1991     1.0  0.88974  0.80398  0.36095  1.0000
  C   C1992     1.0  0.85803  0.83909  0.35370  1.0000
  C   C1993     1.0  0.86067  0.77237  0.36340  1.0000
  H   H3396     1.0  0.89771  0.81734  0.35765  1.0000
  H   H3397     1.0  0.77944  0.93642  0.43970  1.0000
  C   C1994     1.0  0.66913  0.75296  0.28183  1.0000
  H   H3398     1.0  0.61242  0.77716  0.26718  1.0000
  H   H3399     1.0  0.82123  0.82516  0.28050  1.0000
  H   H3400     1.0  0.97305  0.88277  0.42246  1.0000
  H   H3401     1.0  0.51309  0.69204  0.26477  1.0000
  S   S571      1.0  0.67110  0.82399  0.25250  1.0000
  H   H3402     1.0  0.76557  0.83634  0.27430  1.0000
  H   H3403     1.0  0.83926  0.77965  0.25259  1.0000
  H   H3404     1.0  0.51894  0.71333  0.30182  1.0000
  H   H3405     1.0  0.90265  0.98443  0.36325  1.0000
  S   S572      1.0  0.82092  0.68798  0.26001  1.0000
  H   H3406     1.0  0.78793  0.66529  0.26971  1.0000
  H   H3407     1.0  0.98808  0.90163  0.39566  1.0000
  C   C1995     1.0  0.78951  0.81177  0.27254  1.0000
  H   H3408     1.0  0.74660  0.69649  0.27063  1.0000
  C   C1996     1.0  0.81726  0.83279  0.26608  1.0000
  S   S573      1.0  0.72995  0.82744  0.25516  1.0000
  H   H3409     1.0  0.81315  0.85756  0.28374  1.0000
  H   H3410     1.0  0.77781  0.69415  0.24860  1.0000
  H   H3411     1.0  0.83781  0.79650  0.27061  1.0000
  H   H3412     1.0  0.78081  0.80216  0.26573  1.0000
  C   C1997     1.0  0.80910  0.85419  0.26943  1.0000
  C   C1998     1.0  0.81696  0.66475  0.25373  1.0000
  C   C1999     1.0  0.74758  0.68987  0.25654  1.0000
  C   C2000     1.0  0.82883  0.78941  0.26172  1.0000
  H   H3413     1.0  0.92125  0.99222  0.34410  1.0000
  H   H3414     1.0  0.63419  0.80933  0.24833  1.0000
  S   S574      1.0  0.88043  0.68997  0.24830  1.0000
  S   S575      1.0  0.85344  0.73242  0.25122  1.0000
  Fe  Fe286     1.0  0.88574  0.72136  0.25069  1.0000
  H   H3415     1.0  0.78280  0.84475  0.24660  1.0000
  H   H3416     1.0  0.83150  0.83382  0.25651  1.0000
  H   H3417     1.0  0.73281  0.69262  0.25126  1.0000
  Fe  Fe287     1.0  0.84855  0.70168  0.24600  1.0000
  Fe  Fe288     1.0  0.73607  0.85877  0.24555  1.0000
  H   H3418     1.0  0.99020  0.96958  0.64603  1.0000
  H   H3419     1.0  0.97993  0.96759  0.58121  1.0000
  H   H3420     1.0  0.98731  0.96140  0.60537  1.0000
  H   H3421     1.0  0.99656  0.93516  0.58129  1.0000
  C   C2001     1.0  0.99299  0.96438  0.58965  1.0000
  H   H3422     1.0  0.98805  0.75023  0.50345  1.0000
  H   H3423     1.0  0.98204  0.67527  0.96127  1.0000
  H   H3424     1.0  0.63738  0.95854  0.90720  1.0000
  H   H3425     1.0  0.59926  0.98749  0.93660  1.0000
  C   C2002     1.0  0.66859  0.97490  0.92181  1.0000
  H   H3426     1.0  0.53061  0.89696  0.76450  1.0000
  H   H3427     1.0  0.99183  0.73470  0.90640  1.0000
  C   C2003     1.0  0.62850  0.97266  0.91023  1.0000
  H   H3428     1.0  0.98077  0.66611  0.93830  1.0000
  C   C2004     1.0  0.67298  0.97700  0.97499  1.0000
  N   N144      1.0  0.63063  0.97749  0.93074  1.0000
  H   H3429     1.0  0.63764  0.96192  0.95901  1.0000
  H   H3430     1.0  0.50811  0.87483  0.78482  1.0000
  H   H3431     1.0  0.59910  0.96139  0.91586  1.0000
  H   H3432     1.0  0.68193  0.98275  0.96203  1.0000
  H   H3433     1.0  0.67236  0.96168  0.93207  1.0000
  H   H3434     1.0  0.51391  0.91817  0.76916  1.0000
  H   H3435     1.0  0.64420  0.94818  0.93909  1.0000
  H   H3436     1.0  0.96801  0.72610  0.91474  1.0000
  C   C2005     1.0  0.99113  0.70283  0.90703  1.0000
  H   H3437     1.0  0.98666  0.72274  0.93086  1.0000
  H   H3438     1.0  0.68418  0.94674  0.97203  1.0000
  H   H3439     1.0  0.66793  0.97073  0.90684  1.0000
  H   H3440     1.0  0.61177  0.98412  0.96985  1.0000
  H   H3441     1.0  0.52587  0.90350  0.78901  1.0000
  C   C2006     1.0  0.66054  0.98992  0.98634  1.0000
  C   C2007     1.0  0.61392  0.94801  0.94996  1.0000
  H   H3442     1.0  0.61336  0.93753  0.93902  1.0000
  H   H3443     1.0  0.60845  0.96562  0.89050  1.0000
  C   C2008     1.0  0.50194  0.88972  0.77876  1.0000
  C   C2009     1.0  0.63240  0.95911  0.94496  1.0000
  C   C2010     1.0  0.51887  0.90304  0.77537  1.0000
  H   H3444     1.0  0.59994  0.95775  0.95113  1.0000
  H   H3445     1.0  0.61452  0.93965  0.96479  1.0000
  H   H3446     1.0  0.97823  0.69425  0.90776  1.0000
  C   C2011     1.0  0.60745  0.97135  0.90506  1.0000
  H   H3447     1.0  0.59904  0.98616  0.90342  1.0000
  C   C2012     1.0  0.98420  0.72270  0.91525  1.0000
  H   H3448     1.0  0.99495  0.70658  0.89095  1.0000
  H   H3449     1.0  0.97108  0.69111  0.94230  1.0000
  C   C2013     1.0  0.64947  0.98706  0.92959  1.0000
  H   H3450     1.0  0.50597  0.74270  0.93062  1.0000
  C   C2014     1.0  0.61392  0.99228  0.93755  1.0000
  H   H3451     1.0  0.63457  0.98389  0.89880  1.0000
  C   C2015     1.0  0.67438  0.95661  0.98080  1.0000
  C   C2016     1.0  0.98318  0.67931  0.94507  1.0000
  H   H3452     1.0  0.65206  0.99089  0.94419  1.0000
  H   H3453     1.0  0.50084  0.90830  0.81209  1.0000
  H   H3454     1.0  0.68109  0.98398  0.92069  1.0000
  S   S576      1.0  0.50854  0.98617  0.81016  1.0000
  H   H3455     1.0  0.49870  0.88264  0.81699  1.0000
  H   H3456     1.0  0.49829  0.88766  0.76394  1.0000
