data_image0
_chemical_formula_structural       H8C2HSH2C3HCNCH3CHCH5SCH2C3HCH4NH7SHCHFeH7CH3SFeS2FeS2FeSFeS2FeCSFeS2FeSFeHS2HSH3C6H2CHCHC3H4C6H6C3H2C7H3C2H2CHC2NH3C3NC6H14NC7H8CH7CHCHC2H7S2H5C2SH4SHNHSCH4CH5CHCHSC2HCH3SHN2HCHCHFeH2CHC2H3CH4C5FeH2CFeS2HFeHFeSHSCHCFeS2FeC2FeSFeHS2FeS2CSHFeSFeHS2FeS2HS2FeSFeSHSH4CHC7H6SHCH2SCH3CSC4HNH2CH2C4H2CH2C6H4C6H2NC8H22CHFeHCH2CNCH6CH3NH2CSCHC2H2CHNH4CHCHC2HCHCHC2HCSH3C2NCNCHFeCH2CHSH13C2HC2H5CHC2H6FeH4CS2CH9CHCH3CH2CH2CH3CH3CH4C2H3CHSCH2CHCH2CH4SFeS2HFeS2FeS2FeS2FeSFeS2FeS2FeS2FeCFeCS2CHCH4CH3CH4SCH2CH3C2H2CH2CHC6H4C7H3C6H6CH2C4H7CHCH2CH2CHCH2NH4CHC4H6NC7H12CSH2C2H10CNH2CNC2H4CHC3HCH2CNCH3SH4CH2CH2CH4SHCSHC2H4CH2C2H2CH2CHSCSH2SCFeSFeH4SHFeS2CHFeSHSCH4FeSHFeS2HFeS2C6H4C6SH3CHFeH2CHCH4C8H4CNC3FeH2NH2NH4FeH7CH2CH3CHCH3SFeS2HCH7C2HC2HCHSCH3CH4CNC2SCHCH3S2C2HCHCFeHCHSCHCHFeH5SC2HCHCH2CH3SHFeSHFeS2Fe2S3FeS2FeS2FeSFeS3FeS2FeS2FeSFeS4FeS3CH2FeS2C6H4C6H6C3H3SH3C6H5C4HFeC5FeH2C6H5C2H2CHC6H4C2H2C2NC8H22C2HC2NC8H12CH3CH4C3H8CH2CH3CFeCHNCH7NH3NH3CH5FeH2SH2CH2C2H2C2HCH6C2NH5NC3H3C2HC2H2CH5CH2CH4C2NC2H3CH4NCH3CH2CSH6CH2CH2NH2CH3CH2CH2CH2C2H3CH2CH5CH9C3HCHCNC3H2CH2SH3C2SH2C2H7CHCH2C2H2CHCHCHCH2CH2SHFeS2FeS2FeSFeS3C2SCFeS2FeS2FeSFeS3FeS2FeS2FeSFeS3CHS2HC6H3CHC2H4SCH2C6H4C2HFeNHSC6H4C6HCH2C6H4C6H2SH2C3H3SCNC8H20NC8H18NC8H20C2HC2H7CH4CH2FeH5CHCH2NHCH2CH2C2HCH4CHC3H3C3H3CH6CHNC2H2CNH5NH2CHC2H2CHCH2C3HC2H6CH4CHCH2SH2CHC3H2CH2CHSHCH2NCHCH3FeH8CH3CH2FeH3CHC3FeH7CH4CH2CH3CH2CHCHCH2CHNHFeS2FeSHFeS2HFeS3FeSHFeS2FeSFeS2FeS2FeS2FeSFeHS2HC3SH5NCSC6H5SC2H4CHC6H4CH2FeHC8H10CH4CH5C2H2CHCH6NC6HCH17CH3C2SH4NC4H6CSCH5C2H2C2H7CH2CH2CHC3HNC8H21CH3C2NH3C2H3CHCH2FeCH2CHCHC2H2SHCH2CNH6CHSCFeS2CFeS2FeS2FeHFeCS2FeS2FeSHFeSFeS3HC4HCHCH6CH2SCH2C6H4CH3C7H3C6H4CHCHC3H2NH5C2H5CSC3HCH3CH2C2H2CHC2HC2H2CNHCH4C2H2C2HCHCH3CH9C2H3C3SH2CNH6CNHSH3CHCH4C2H6CHCH3CHCH2NC8H22SH3CH7NH8CH4SH9CH2CH4CH2CH2CH3FeHCHNCH3CHCSHNSH2C2HC3HC2HS2CHFeSC2FeHFeS2HFeSHS2H2FeS2FeS2FeS2FeSFeS3FeS2FeSFeSFeS3C3H4C6H4C6H5C3H2CH4C6H3C7H5C4FeH2NC3HCSH7CH5CHCHCH2CH2CNHSFeH3CH2C2HSH5FeCH2C5H3CHC5H5NC8H20NC8H8CS2H4C2H3NC8H8FeCH12CH3NC2SC3H2NC2H2SC3HCH3CH3C2H3CH4C3H8CHC2H3CHFeH3C2H4CH5S2CHC2H6CH2NH2SCS2CHSCFeS2CFeSCSC2SCHFeSH2FeS2FeSFe2S3FeH2FeS2H3S2H2C6H2CHC2FeH2CH2C2H2CHC5FeC6H5FeHNCH4SC6H4NC7H20CSCH8C2HCH2SHCHC2H7CHCH2CNH2CSC2SH5CH3CHNH4CH3FeC2HCH3C2NH4CH3CH2SHCH2CFeH6CH2SCHCH2SH3CHFeCH2CH4CHC3HCH5C2H4SHC4HCSFeS2FeS2FeHSH2SFeS2FeCH3FeCS2FeS2FeNFeHCHS2FeS2FeS2FeSFeS3HCH2CHCHFeC8H4SH4C2HC6H4CH4CHCH2C7H3C6H2NC6H12CH2SNHCHCSHSH2CH6C2HC2HCHCHNC2H4CH2C2H4CH2SH10CHC2H5C2H3CH2C2H2CFeH2CH3CH2SH4NC8H14FeHCH4CH3C2H2CHCHSH3CH2NH6CH2C2H9CSHC2FeSH2SHFeSFeH2SCFeHSH2CH3CHNFeSHFeS2FeSFeS3FeHFeS2H2FeHS2HC2H3C6H2C2HCSC6H5C6H4CH2SHCH4CHC2H2CH7CHNC2H2CHCFeH5CHNCH4SC2HCH3CSH5CH2SH3CHSCH6C2HSHCHCHC2SCFeHC2HCHNCHCH2C2H10CH2CHCH3CHCHCHCHC2S2C2SCH3FeCHCH3C2HSH2SCHNH6C2H2CH2C3H4CS2FeS2FeS2FeSHFeS2FeS2FeSFeS2FeHFeS2FeH3S4C7H4CH2C2H2C7H4C6H6C2HCSH2C3SHC3HCFeH3CH2CH4CHC3NH7CH2SH5CH3CH4CH3CH5C2HCH2CHC2HCH2C3H4CHFeH3C3NHSH7CSH2SH3CH2CH2CHCH2CHNH5SH2CHCH2CH2NH4FeHC2H2C2NCHCHCH2C7HSHCH2C3H3CH4CHCH2C2HC2H2CH6CH2CSCH2CHNH4NHCH7CH4CSH2CH5CFeH6FeH3C2H2C2H6CH2SFeCHSHSH3SH2SC4SH2CH2CSFeS2FeSHFeSFeS2FeHSFeS2FeHFeS2CHC6H5C4H5CHNHC2HCNC3HC2H2CHC4H4C6H4SHNH2C3HCH2CH3CHC2H2CHCSH2CH3NC3H6CSH3C2H2SH2CFeHCH2SH3CH2CHFeSCH5CH6CHC2HCHSH2C2HSH4C2HCH3S2NC2H6CH2SNC8H20NC3HCHCH12CSH5CHC2H5NC2NH3CH5CH2CHCH4C2HCH5CH3CNCH3SC3H9CH2C2NCHC2HFeCH3CFeS2FeS2FeSFeS3C3SFeS2FeHS2FeSFeS2Fe2S3FeS2FeS2FeSFeS4CHSC6H4C2H8C7H4CHC2H2CH3C6H4C6H4C6H5SC4H3C2NC8H20NC2HCH4SCHC2H4NC8H20NC7H17C2H10CSH3CHNC4HC3H8CH5SH5NC8H10CH6CH2CHCSFeSC3NCH3CHNH5CHCHNHC3H2CHCH2CH11CH4Fe2HCH3CH4C3H3C2H4C2HCFeH5NHCH5CNHSHFeCH4CH3C2H5C2H6CHCH3FeC2HCH3C2H3FeS2FeS2FeSFeS3HSHCSFeSHFeS2FeSFeS3H2FeSHSFeS2FeS2FeSFeS3C6H4C6H4NC4H5C3H2C6H5FeH2CHNHSHC6H4C6H4C6H7NC4HC3H10C2H9NC4FeC3H9NCH14CHCH2CH2CH5C4HSH4C2H5SHCHSCHNC4H4CH3FeH9CH3CH4CH5CHCHCH5CHC2HCNC2H2C2H2CHCH3CHCH2CHCHSHCH3CH3CHCH4CHC3H2SCH3C2H3NC2NCH4CH2C2H2CHCHCHCH2C2SC3H2CH2NH2CH4C2H4CHCHCH3CH4C2NH4CH4SHFeS2FeSCHFeHCSFeSCFeS2FeSFeS3NSCHSHCHC5HSH3C4HC4H6CH3CH2CH2CH2CH2CH4C3HC2HC6H5CNCHCH11SCHCH2FeHSHCH2CFeH4SCH5C3HCH2SHCFeH2FeH3CH5C2H3CH3CH4NH3CHCH3SCH2FeHCH2FeS2FeS2FeCFeS3FeH2FeS2H2FeS3HCFeH2C6H4CHC2HC2H2CHC5H3CH3C2HC3H3CH3CHNC5H2C2H3CH6CSH3NHCH3CNHS3C2H4CHCHSH2C3H7C2H4CH2CHCHC2H2C2HSHCH3CHCH3CHCH2FeH2C2H2FeS2FeSH3CHSHCH2FeCSH4SFeS2FeS2FeSFeS3FeS2FeS2FeHFeS3HCHC8H5C2H4C3H3C5NHSHSC7H3C5H4C7H4C6H3CH3FeH10CHC2H2C2HC3SCSNH2C3H4CH2CHC2SCH2CH4CH2CHCH8SH2CH2NHC2NH4FeC2H2CH3C2H4CH2SH3CH4CHCH3CSH4CHCNHCHC2HC2HC2HCH3C2H5C4SH4SC2H5CHCH3CHCHNHC2H3NC2HCH3FeH3CH4CH6CHCHCH2CFeH3FeHSH2CNFeS2FeS2FeS2CH2FeSCSHFeS2FeSFeSFeSHSFeS2FeS2Fe2S3HC3H7C6H2C3SC3HC6H4C6H5C6H5CHCH2C3H4FeH5CH4FeHSC2FeHNC8H20NH2C2H2CH2C2HNH3CH2SNH2CH6CHCFeCH2C2H4CH2CSHC2H3CH2CH4CSH5CH2CHCH4CHC2HSC2HCH2CHC2H6CH2C2H3NHCH12CH2SCH2CHCHCH3CHSCH5CH2CH6C2H3C2H2CH3CHNH2C2HCH6CH2CH4CHCH3NHC4H6SHC2HCH10CH2
_chemical_formula_sum              "H3456 C2016 S576 N144 Fe288"
_cell_length_a       67.7748
_cell_length_b       68.1842
_cell_length_c       68.1517
_cell_angle_alpha    81.6189
_cell_angle_beta     81.5645
_cell_angle_gamma    81.5058

_space_group_name_H-M_alt    "P 1"
_space_group_IT_number       1

loop_
  _space_group_symop_operation_xyz
  'x, y, z'

loop_
  _atom_site_type_symbol
  _atom_site_label
  _atom_site_symmetry_multiplicity
  _atom_site_fract_x
  _atom_site_fract_y
  _atom_site_fract_z
  _atom_site_occupancy
  H   H1        1.0  0.45348  0.00416  0.14570  1.0000
  H   H2        1.0  0.47051  0.15531  0.02202  1.0000
  H   H3        1.0  0.32867  0.98656  0.00736  1.0000
  H   H4        1.0  0.00767  0.25836  0.98721  1.0000
  H   H5        1.0  0.46391  0.05541  0.15935  1.0000
  H   H6        1.0  0.47177  0.01387  0.12715  1.0000
  H   H7        1.0  0.47145  0.19472  0.98906  1.0000
  H   H8        1.0  0.45742  0.02234  0.17258  1.0000
  C   C1        1.0  0.46988  0.00218  0.14018  1.0000
  C   C2        1.0  0.35665  0.02881  0.98297  1.0000
  H   H9        1.0  0.34915  0.03112  0.99828  1.0000
  S   S1        1.0  0.45510  0.14178  0.98955  1.0000
  H   H10       1.0  0.34882  0.99847  0.01374  1.0000
  H   H11       1.0  0.31874  0.01836  0.99556  1.0000
  C   C3        1.0  0.48313  0.14846  0.01260  1.0000
  C   C4        1.0  0.47276  0.04333  0.15122  1.0000
  C   C5        1.0  0.34499  0.98802  0.00429  1.0000
  H   H12       1.0  0.48806  0.04776  0.14708  1.0000
  C   C6        1.0  0.47969  0.14015  0.99590  1.0000
  N   N1        1.0  0.48193  0.00469  0.15638  1.0000
  C   C7        1.0  0.47315  0.02354  0.16539  1.0000
  H   H13       1.0  0.46547  0.04317  0.13776  1.0000
  H   H14       1.0  0.37208  0.02117  0.98493  1.0000
  H   H15       1.0  0.48030  0.99936  0.20091  1.0000
  C   C8        1.0  0.48892  0.98799  0.19178  1.0000
  H   H16       1.0  0.48173  0.02577  0.17745  1.0000
  C   C9        1.0  0.47947  0.98730  0.17267  1.0000
  H   H17       1.0  0.46325  0.98571  0.17730  1.0000
  H   H18       1.0  0.02696  0.17661  0.47206  1.0000
  H   H19       1.0  0.02332  0.07740  0.30787  1.0000
  H   H20       1.0  0.01670  0.11360  0.29290  1.0000
  H   H21       1.0  0.00425  0.10869  0.31767  1.0000
  S   S2        1.0  0.99783  0.16422  0.45122  1.0000
  C   C10       1.0  0.00846  0.04242  0.28710  1.0000
  H   H22       1.0  0.01257  0.04364  0.31757  1.0000
  H   H23       1.0  0.01479  0.02636  0.28904  1.0000
  C   C11       1.0  0.00467  0.10559  0.30206  1.0000
  C   C12       1.0  0.00362  0.15754  0.47594  1.0000
  C   C13       1.0  0.00041  0.04873  0.30788  1.0000
  H   H24       1.0  0.02080  0.05060  0.27910  1.0000
  C   C14       1.0  0.00965  0.08301  0.30036  1.0000
  H   H25       1.0  0.17653  0.98502  0.47533  1.0000
  H   H26       1.0  0.03975  0.98786  0.32841  1.0000
  H   H27       1.0  0.01467  0.08174  0.28436  1.0000
  H   H28       1.0  0.00161  0.07111  0.33831  1.0000
  N   N2        1.0  0.99298  0.07060  0.30888  1.0000
  H   H29       1.0  0.99610  0.04340  0.27783  1.0000
  H   H30       1.0  0.99177  0.07640  0.26784  1.0000
  H   H31       1.0  0.99120  0.20175  0.47390  1.0000
  H   H32       1.0  0.07571  0.04649  0.62827  1.0000
  H   H33       1.0  0.10218  0.20754  0.58524  1.0000
  H   H34       1.0  0.11425  0.07781  0.60778  1.0000
  H   H35       1.0  0.48037  0.19753  0.59484  1.0000
  S   S3        1.0  0.46467  0.25089  0.58463  1.0000
  H   H36       1.0  0.99320  0.13580  0.65351  1.0000
  C   C15       1.0  0.48891  0.14945  0.61774  1.0000
  H   H37       1.0  0.09223  0.21971  0.52090  1.0000
  Fe  Fe1       1.0  0.46153  0.28114  0.59553  1.0000
  H   H38       1.0  0.03460  0.16838  0.50721  1.0000
  H   H39       1.0  0.10253  0.02894  0.56179  1.0000
  H   H40       1.0  0.03965  0.12905  0.68068  1.0000
  H   H41       1.0  0.07978  0.07960  0.61586  1.0000
  H   H42       1.0  0.16602  0.18192  0.56059  1.0000
  H   H43       1.0  0.03228  0.15243  0.70303  1.0000
  H   H44       1.0  0.43914  0.01115  0.67620  1.0000
  C   C16       1.0  0.02308  0.16155  0.50229  1.0000
  H   H45       1.0  0.01198  0.10179  0.70914  1.0000
  H   H46       1.0  0.00399  0.15131  0.67824  1.0000
  H   H47       1.0  0.23744  0.98487  0.49433  1.0000
  S   S4        1.0  0.40147  0.01192  0.62894  1.0000
  Fe  Fe2       1.0  0.07963  0.14921  0.57083  1.0000
  S   S5        1.0  0.05149  0.13484  0.58038  1.0000
  S   S6        1.0  0.11100  0.13267  0.57481  1.0000
  Fe  Fe3       1.0  0.05568  0.19140  0.56557  1.0000
  S   S7        1.0  0.02590  0.17989  0.57473  1.0000
  S   S8        1.0  0.05823  0.22464  0.55692  1.0000
  Fe  Fe4       1.0  0.04120  0.16003  0.59873  1.0000
  S   S9        1.0  0.02510  0.15552  0.63008  1.0000
  Fe  Fe5       1.0  0.03846  0.15573  0.55548  1.0000
  S   S10       1.0  0.07004  0.17326  0.59112  1.0000
  S   S11       1.0  0.06752  0.16850  0.54421  1.0000
  Fe  Fe6       1.0  0.22406  0.01023  0.56398  1.0000
  C   C17       1.0  0.42429  0.00623  0.68234  1.0000
  S   S12       1.0  0.25808  0.01055  0.55943  1.0000
  Fe  Fe7       1.0  0.18248  0.03126  0.55351  1.0000
  S   S13       1.0  0.16734  0.00475  0.56829  1.0000
  S   S14       1.0  0.16109  0.05621  0.53853  1.0000
  Fe  Fe8       1.0  0.18620  0.00458  0.59265  1.0000
  S   S15       1.0  0.16978  0.00215  0.62386  1.0000
  Fe  Fe9       1.0  0.48870  0.24144  0.60491  1.0000
  H   H48       1.0  0.00991  0.26201  0.57094  1.0000
  S   S16       1.0  0.20011  0.03210  0.57883  1.0000
  S   S17       1.0  0.20778  0.01197  0.53693  1.0000
  H   H49       1.0  0.00452  0.12017  0.68988  1.0000
  S   S18       1.0  0.03106  0.28638  0.62093  1.0000
  H   H50       1.0  0.42615  0.21090  0.67286  1.0000
  H   H51       1.0  0.00141  0.12086  0.60620  1.0000
  H   H52       1.0  0.02048  0.09814  0.58805  1.0000
  C   C18       1.0  0.05081  0.24170  0.57483  1.0000
  C   C19       1.0  0.05289  0.26208  0.56925  1.0000
  C   C20       1.0  0.04667  0.27605  0.58304  1.0000
  C   C21       1.0  0.03846  0.26974  0.60261  1.0000
  C   C22       1.0  0.03660  0.24934  0.60818  1.0000
  C   C23       1.0  0.04260  0.23542  0.59437  1.0000
  H   H53       1.0  0.05941  0.26707  0.55423  1.0000
  H   H54       1.0  0.04860  0.29163  0.57870  1.0000
  C   C24       1.0  0.01573  0.15234  0.70685  1.0000
  H   H55       1.0  0.04095  0.21980  0.59892  1.0000
  C   C25       1.0  0.10912  0.04052  0.62605  1.0000
  H   H56       1.0  0.11950  0.02708  0.63126  1.0000
  C   C26       1.0  0.02242  0.13020  0.63651  1.0000
  C   C27       1.0  0.03713  0.11565  0.62894  1.0000
  C   C28       1.0  0.03360  0.09568  0.63150  1.0000
  H   H57       1.0  0.01858  0.08012  0.57217  1.0000
  H   H58       1.0  0.11154  0.01792  0.59598  1.0000
  H   H59       1.0  0.05113  0.11984  0.62087  1.0000
  H   H60       1.0  0.44783  0.21136  0.64690  1.0000
  C   C29       1.0  0.12464  0.11154  0.56431  1.0000
  C   C30       1.0  0.14243  0.10236  0.57195  1.0000
  C   C31       1.0  0.15367  0.08536  0.56435  1.0000
  C   C32       1.0  0.14741  0.07751  0.54877  1.0000
  C   C33       1.0  0.12982  0.08693  0.54090  1.0000
  C   C34       1.0  0.11837  0.10373  0.54873  1.0000
  H   H61       1.0  0.14749  0.10834  0.58392  1.0000
  H   H62       1.0  0.16730  0.07845  0.57038  1.0000
  H   H63       1.0  0.12495  0.08109  0.52872  1.0000
  H   H64       1.0  0.10481  0.11069  0.54261  1.0000
  H   H65       1.0  0.14215  0.04870  0.58340  1.0000
  H   H66       1.0  0.11122  0.05246  0.63483  1.0000
  C   C35       1.0  0.29413  0.00257  0.57523  1.0000
  C   C36       1.0  0.27367  0.99977  0.57809  1.0000
  C   C37       1.0  0.48469  0.18530  0.60603  1.0000
  H   H67       1.0  0.42292  0.03098  0.70007  1.0000
  H   H68       1.0  0.30003  0.01166  0.56192  1.0000
  C   C38       1.0  0.03622  0.11482  0.68983  1.0000
  C   C39       1.0  0.43327  0.19352  0.63159  1.0000
  C   C40       1.0  0.46743  0.01993  0.63075  1.0000
  C   C41       1.0  0.45202  0.03578  0.63317  1.0000
  C   C42       1.0  0.43198  0.03316  0.63216  1.0000
  C   C43       1.0  0.42709  0.01465  0.62889  1.0000
  C   C44       1.0  0.46259  0.00147  0.62730  1.0000
  H   H69       1.0  0.42950  0.99796  0.72149  1.0000
  H   H70       1.0  0.45552  0.05008  0.63580  1.0000
  H   H71       1.0  0.42014  0.04550  0.63406  1.0000
  C   C45       1.0  0.41254  0.02343  0.69341  1.0000
  C   C46       1.0  0.01078  0.30011  0.54492  1.0000
  H   H72       1.0  0.10486  0.05434  0.56342  1.0000
  H   H73       1.0  0.01370  0.24174  0.54342  1.0000
  C   C47       1.0  0.13711  0.04313  0.59921  1.0000
  H   H74       1.0  0.04002  0.12509  0.72664  1.0000
  C   C48       1.0  0.99159  0.29557  0.57798  1.0000
  C   C49       1.0  0.08776  0.03484  0.63317  1.0000
  N   N3        1.0  0.42684  0.98591  0.69447  1.0000
  H   H75       1.0  0.03718  0.10369  0.67919  1.0000
  H   H76       1.0  0.14640  0.06923  0.60985  1.0000
  H   H77       1.0  0.40059  0.20804  0.67953  1.0000
  C   C50       1.0  0.10589  0.20866  0.52256  1.0000
  C   C51       1.0  0.41087  0.21901  0.67223  1.0000
  C   C52       1.0  0.01564  0.09013  0.64214  1.0000
  N   N4        1.0  0.42276  0.23105  0.63477  1.0000
  C   C53       1.0  0.41460  0.23448  0.61487  1.0000
  C   C54       1.0  0.43954  0.21388  0.63373  1.0000
  C   C55       1.0  0.43094  0.24986  0.63727  1.0000
  C   C56       1.0  0.40564  0.22672  0.65091  1.0000
  C   C57       1.0  0.39937  0.25345  0.61117  1.0000
  C   C58       1.0  0.44543  0.24833  0.65304  1.0000
  H   H78       1.0  0.42705  0.23537  0.60226  1.0000
  H   H79       1.0  0.40694  0.22169  0.61285  1.0000
  H   H80       1.0  0.45120  0.21745  0.62088  1.0000
  H   H81       1.0  0.43943  0.25579  0.62293  1.0000
  H   H82       1.0  0.41848  0.26191  0.64088  1.0000
  H   H83       1.0  0.39462  0.24041  0.65239  1.0000
  H   H84       1.0  0.39659  0.21597  0.64670  1.0000
  H   H85       1.0  0.39400  0.25371  0.59648  1.0000
  H   H86       1.0  0.38593  0.25376  0.62259  1.0000
  H   H87       1.0  0.40637  0.26734  0.61020  1.0000
  H   H88       1.0  0.44653  0.18187  0.63268  1.0000
  H   H89       1.0  0.46013  0.23962  0.64851  1.0000
  H   H90       1.0  0.43913  0.24220  0.66815  1.0000
  H   H91       1.0  0.44869  0.26362  0.65411  1.0000
  N   N5        1.0  0.12720  0.19072  0.55023  1.0000
  C   C59       1.0  0.10768  0.20283  0.54504  1.0000
  C   C60       1.0  0.12439  0.18423  0.57249  1.0000
  C   C61       1.0  0.13057  0.17254  0.53929  1.0000
  C   C62       1.0  0.14395  0.20353  0.54369  1.0000
  C   C63       1.0  0.11822  0.20125  0.58569  1.0000
  C   C64       1.0  0.14899  0.15709  0.54334  1.0000
  C   C65       1.0  0.16307  0.19777  0.55430  1.0000
  H   H92       1.0  0.09470  0.19471  0.55164  1.0000
  H   H93       1.0  0.10490  0.21714  0.55166  1.0000
  H   H94       1.0  0.13794  0.17518  0.57783  1.0000
  H   H95       1.0  0.11264  0.17402  0.57636  1.0000
  H   H96       1.0  0.11707  0.16446  0.54263  1.0000
  H   H97       1.0  0.13255  0.17690  0.52283  1.0000
  H   H98       1.0  0.14872  0.20396  0.52729  1.0000
  H   H99       1.0  0.13839  0.21931  0.54620  1.0000
  C   C66       1.0  0.00149  0.10446  0.65091  1.0000
  H   H100      1.0  0.16278  0.20741  0.56618  1.0000
  H   H101      1.0  0.12780  0.21341  0.58141  1.0000
  H   H102      1.0  0.14912  0.15131  0.55938  1.0000
  H   H103      1.0  0.16324  0.16302  0.53691  1.0000
  H   H104      1.0  0.14843  0.14389  0.53568  1.0000
  H   H105      1.0  0.17642  0.20096  0.54334  1.0000
  H   H106      1.0  0.04453  0.08457  0.62482  1.0000
  C   C67       1.0  0.44250  0.99877  0.62653  1.0000
  H   H107      1.0  0.40462  0.03452  0.68258  1.0000
  C   C68       1.0  0.11042  0.03866  0.56890  1.0000
  H   H108      1.0  0.11457  0.07406  0.58303  1.0000
  C   C69       1.0  0.01246  0.14805  0.51568  1.0000
  C   C70       1.0  0.14926  0.05269  0.61196  1.0000
  H   H109      1.0  0.11894  0.21573  0.51440  1.0000
  H   H110      1.0  0.32260  0.99635  0.58736  1.0000
  H   H111      1.0  0.45261  0.99308  0.70621  1.0000
  H   H112      1.0  0.12664  0.03534  0.56346  1.0000
  H   H113      1.0  0.03553  0.99661  0.65400  1.0000
  H   H114      1.0  0.10374  0.19562  0.51544  1.0000
  H   H115      1.0  0.14671  0.04688  0.62807  1.0000
  S   S19       1.0  0.43326  0.29836  0.61036  1.0000
  S   S20       1.0  0.48778  0.12480  0.61324  1.0000
  H   H116      1.0  0.08538  0.03262  0.64979  1.0000
  H   H117      1.0  0.16554  0.04865  0.60709  1.0000
  H   H118      1.0  0.07616  0.06551  0.59633  1.0000
  H   H119      1.0  0.02233  0.01239  0.72263  1.0000
  H   H120      1.0  0.00638  0.29391  0.58374  1.0000
  C   C71       1.0  0.01015  0.08846  0.58428  1.0000
  C   C72       1.0  0.00568  0.16204  0.68830  1.0000
  S   S21       1.0  0.01659  0.14220  0.54093  1.0000
  H   H121      1.0  0.04792  0.10922  0.69978  1.0000
  H   H122      1.0  0.99648  0.11060  0.56301  1.0000
  H   H123      1.0  0.43267  0.31451  0.56822  1.0000
  H   H124      1.0  0.08251  0.08989  0.58985  1.0000
  S   S22       1.0  0.48636  0.07552  0.65520  1.0000
  H   H125      1.0  0.11969  0.19514  0.60152  1.0000
  N   N6        1.0  0.11449  0.04680  0.60391  1.0000
  H   H126      1.0  0.40879  0.23150  0.68145  1.0000
  S   S23       1.0  0.01055  0.06564  0.64268  1.0000
  C   C73       1.0  0.10801  0.06879  0.59842  1.0000
  H   H127      1.0  0.40065  0.01860  0.70526  1.0000
  H   H128      1.0  0.08932  0.03494  0.59522  1.0000
  H   H129      1.0  0.42839  0.19345  0.61677  1.0000
  H   H130      1.0  0.99803  0.00924  0.71800  1.0000
  C   C74       1.0  0.10590  0.03399  0.59185  1.0000
  H   H131      1.0  0.08600  0.02041  0.62830  1.0000
  H   H132      1.0  0.01409  0.29604  0.52952  1.0000
  H   H133      1.0  0.42144  0.18889  0.64370  1.0000
  H   H134      1.0  0.03048  0.24425  0.62334  1.0000
  H   H135      1.0  0.14240  0.02681  0.60086  1.0000
  C   C75       1.0  0.08529  0.07604  0.60047  1.0000
  H   H136      1.0  0.01150  0.16326  0.71787  1.0000
  C   C76       1.0  0.00476  0.12456  0.64787  1.0000
  H   H137      1.0  0.46372  0.98822  0.66827  1.0000
  S   S24       1.0  0.48399  0.27086  0.61724  1.0000
  C   C77       1.0  0.99114  0.10081  0.57670  1.0000
  C   C78       1.0  0.99762  0.13919  0.50909  1.0000
  H   H138      1.0  0.02511  0.29531  0.55145  1.0000
  C   C79       1.0  0.43809  0.98710  0.71166  1.0000
  H   H139      1.0  0.25496  0.99499  0.51576  1.0000
  H   H140      1.0  0.99612  0.20188  0.50465  1.0000
  H   H141      1.0  0.99878  0.13531  0.58308  1.0000
  S   S25       1.0  0.48444  0.29325  0.57143  1.0000
  H   H142      1.0  0.01552  0.17243  0.67893  1.0000
  N   N7        1.0  0.01062  0.13196  0.71618  1.0000
  N   N8        1.0  0.99419  0.28948  0.55720  1.0000
  H   H143      1.0  0.47779  0.16257  0.59007  1.0000
  C   C80       1.0  0.26624  0.98807  0.59542  1.0000
  H   H144      1.0  0.00405  0.26251  0.52684  1.0000
  C   C81       1.0  0.02723  0.98752  0.66579  1.0000
  H   H145      1.0  0.00650  0.07724  0.59733  1.0000
  Fe  Fe10      1.0  0.48980  0.26236  0.56233  1.0000
  H   H146      1.0  0.02723  0.26265  0.53703  1.0000
  H   H147      1.0  0.25057  0.98581  0.59789  1.0000
  C   C82       1.0  0.01485  0.11688  0.70142  1.0000
  H   H148      1.0  0.00044  0.00885  0.66639  1.0000
  C   C83       1.0  0.01180  0.25833  0.54028  1.0000
  C   C84       1.0  0.00009  0.26708  0.55891  1.0000
  H   H149      1.0  0.48656  0.30036  0.65256  1.0000
  H   H150      1.0  0.39926  0.98695  0.71548  1.0000
  H   H151      1.0  0.18333  0.98739  0.50973  1.0000
  C   C85       1.0  0.00730  0.99447  0.67279  1.0000
  H   H152      1.0  0.41726  0.00582  0.66870  1.0000
  H   H153      1.0  0.38651  0.99652  0.68199  1.0000
  H   H154      1.0  0.47440  0.98912  0.62538  1.0000
  H   H155      1.0  0.46344  0.31048  0.64348  1.0000
  C   C86       1.0  0.48322  0.16550  0.60338  1.0000
  C   C87       1.0  0.99315  0.14396  0.48935  1.0000
  C   C88       1.0  0.47736  0.31461  0.64759  1.0000
  C   C89       1.0  0.30697  0.99388  0.58961  1.0000
  C   C90       1.0  0.00783  0.00741  0.72992  1.0000
  Fe  Fe11      1.0  0.19370  0.98575  0.55388  1.0000
  H   H156      1.0  0.13498  0.98634  0.64550  1.0000
  H   H157      1.0  0.99083  0.17063  0.69267  1.0000
  C   C91       1.0  0.01871  0.16620  0.48242  1.0000
  Fe  Fe12      1.0  0.04553  0.09407  0.84156  1.0000
  S   S26       1.0  0.03812  0.11686  0.81549  1.0000
  S   S27       1.0  0.07805  0.07935  0.83814  1.0000
  H   H158      1.0  0.34625  0.03258  0.94383  1.0000
  Fe  Fe13      1.0  0.01008  0.10229  0.81688  1.0000
  H   H159      1.0  0.46524  0.25610  0.88731  1.0000
  Fe  Fe14      1.0  0.02139  0.13620  0.83820  1.0000
  S   S28       1.0  0.02128  0.17010  0.83665  1.0000
  H   H160      1.0  0.09734  0.25155  0.90462  1.0000
  S   S29       1.0  0.03087  0.11454  0.86410  1.0000
  C   C92       1.0  0.17106  0.03157  0.84044  1.0000
  H   H161      1.0  0.01125  0.99138  0.73569  1.0000
  C   C93       1.0  0.43217  0.03627  0.82497  1.0000
  Fe  Fe15      1.0  0.05842  0.25450  0.88746  1.0000
  S   S30       1.0  0.03057  0.27355  0.87840  1.0000
  S   S31       1.0  0.06396  0.22048  0.88724  1.0000
  Fe  Fe16      1.0  0.07614  0.29065  0.89835  1.0000
  C   C94       1.0  0.11956  0.01585  0.79647  1.0000
  C   C95       1.0  0.23848  0.00725  0.85168  1.0000
  Fe  Fe17      1.0  0.03040  0.28842  0.90580  1.0000
  S   S32       1.0  0.99224  0.12388  0.83748  1.0000
  Fe  Fe18      1.0  0.05145  0.29555  0.86366  1.0000
  H   H162      1.0  0.46368  0.07657  0.87519  1.0000
  S   S33       1.0  0.05693  0.26793  0.91627  1.0000
  S   S34       1.0  0.07972  0.27555  0.87048  1.0000
  Fe  Fe19      1.0  0.45192  0.15725  0.91645  1.0000
  S   S35       1.0  0.42892  0.14384  0.93997  1.0000
  S   S36       1.0  0.44423  0.18865  0.90074  1.0000
  C   C96       1.0  0.07589  0.01503  0.81613  1.0000
  S   S37       1.0  0.46310  0.10522  0.94735  1.0000
  H   H163      1.0  0.11669  0.26112  0.92735  1.0000
  Fe  Fe20      1.0  0.43911  0.11480  0.92687  1.0000
  S   S38       1.0  0.42395  0.09073  0.91648  1.0000
  Fe  Fe21      1.0  0.45496  0.13530  0.95801  1.0000
  H   H164      1.0  0.17900  0.00876  0.86430  1.0000
  S   S39       1.0  0.46021  0.12904  0.90191  1.0000
  S   S40       1.0  0.47699  0.15025  0.93522  1.0000
  Fe  Fe22      1.0  0.32687  0.02136  0.87071  1.0000
  S   S41       1.0  0.30538  0.04761  0.88038  1.0000
  S   S42       1.0  0.34039  0.01782  0.83917  1.0000
  H   H165      1.0  0.37562  0.04556  0.86498  1.0000
  S   S43       1.0  0.30445  0.02344  0.92552  1.0000
  S   S44       1.0  0.10127  0.30083  0.91240  1.0000
  Fe  Fe23      1.0  0.28791  0.02400  0.89887  1.0000
  S   S45       1.0  0.25419  0.02148  0.90293  1.0000
  Fe  Fe24      1.0  0.32409  0.04456  0.90593  1.0000
  S   S46       1.0  0.33421  0.07017  0.91884  1.0000
  H   H166      1.0  0.39720  0.03347  0.81359  1.0000
  S   S47       1.0  0.34663  0.02003  0.89457  1.0000
  H   H167      1.0  0.40718  0.99148  0.80075  1.0000
  H   H168      1.0  0.14632  0.99710  0.89254  1.0000
  H   H169      1.0  0.12028  0.01604  0.78009  1.0000
  H   H170      1.0  0.01925  0.26975  0.95155  1.0000
  C   C97       1.0  0.22680  0.99966  0.89270  1.0000
  H   H171      1.0  0.14183  0.21355  0.91641  1.0000
  C   C98       1.0  0.00497  0.27632  0.95865  1.0000
  C   C99       1.0  0.39884  0.08509  0.91791  1.0000
  C   C100      1.0  0.39549  0.06910  0.90838  1.0000
  C   C101      1.0  0.37590  0.06423  0.90866  1.0000
  C   C102      1.0  0.35931  0.07542  0.91834  1.0000
  C   C103      1.0  0.36267  0.09130  0.92803  1.0000
  C   C104      1.0  0.38229  0.09605  0.92793  1.0000
  H   H172      1.0  0.40815  0.06043  0.90068  1.0000
  H   H173      1.0  0.37362  0.05192  0.90125  1.0000
  H   H174      1.0  0.34998  0.09995  0.93574  1.0000
  H   H175      1.0  0.38459  0.10812  0.93566  1.0000
  H   H176      1.0  0.12764  0.01956  0.84184  1.0000
  H   H177      1.0  0.07292  0.01560  0.88203  1.0000
  S   S48       1.0  0.21121  0.98619  0.84080  1.0000
  H   H178      1.0  0.48917  0.17212  0.96492  1.0000
  C   C105      1.0  0.38718  0.04179  0.85230  1.0000
  H   H179      1.0  0.11489  0.05436  0.82909  1.0000
  H   H180      1.0  0.08010  0.02954  0.80844  1.0000
  S   S49       1.0  0.01817  0.07886  0.84252  1.0000
  C   C106      1.0  0.02386  0.12455  0.73247  1.0000
  H   H181      1.0  0.14009  0.21525  0.89091  1.0000
  H   H182      1.0  0.31067  0.99841  0.82132  1.0000
  H   H183      1.0  0.14670  0.26432  0.88405  1.0000
  C   C107      1.0  0.35034  0.01729  0.95124  1.0000
  S   S50       1.0  0.04917  0.31399  0.83375  1.0000
  C   C108      1.0  0.00800  0.31557  0.84217  1.0000
  C   C109      1.0  0.47013  0.24025  0.89043  1.0000
  C   C110      1.0  0.45607  0.22641  0.89323  1.0000
  C   C111      1.0  0.46218  0.20577  0.89755  1.0000
  H   H184      1.0  0.06588  0.02115  0.76958  1.0000
  N   N9        1.0  0.08798  0.99740  0.80700  1.0000
  H   H185      1.0  0.19101  0.04265  0.90794  1.0000
  H   H186      1.0  0.44037  0.23175  0.89215  1.0000
  C   C112      1.0  0.00957  0.15158  0.90155  1.0000
  H   H187      1.0  0.48949  0.00334  0.73794  1.0000
  H   H188      1.0  0.47627  0.01238  0.79889  1.0000
  C   C113      1.0  0.32300  0.02039  0.97908  1.0000
  C   C114      1.0  0.24860  0.01465  0.86512  1.0000
  C   C115      1.0  0.24279  0.01097  0.88572  1.0000
  C   C116      1.0  0.14744  0.26574  0.92114  1.0000
  H   H189      1.0  0.07917  0.01477  0.83168  1.0000
  H   H190      1.0  0.26062  0.02363  0.85952  1.0000
  C   C117      1.0  0.47451  0.05111  0.90484  1.0000
  H   H191      1.0  0.02257  0.10858  0.73815  1.0000
  H   H192      1.0  0.14050  0.05432  0.89258  1.0000
  C   C118      1.0  0.03346  0.18367  0.85088  1.0000
  C   C119      1.0  0.04669  0.17421  0.86435  1.0000
  C   C120      1.0  0.05579  0.18565  0.87539  1.0000
  C   C121      1.0  0.05178  0.20668  0.87320  1.0000
  C   C122      1.0  0.03837  0.21611  0.85989  1.0000
  C   C123      1.0  0.02936  0.20468  0.84880  1.0000
  H   H193      1.0  0.05008  0.15809  0.86613  1.0000
  H   H194      1.0  0.06614  0.17814  0.88558  1.0000
  H   H195      1.0  0.03514  0.23224  0.85791  1.0000
  H   H196      1.0  0.01922  0.21224  0.83841  1.0000
  C   C124      1.0  0.08637  0.05456  0.84783  1.0000
  C   C125      1.0  0.07452  0.04352  0.86268  1.0000
  C   C126      1.0  0.08208  0.02399  0.87039  1.0000
  C   C127      1.0  0.10130  0.01522  0.86297  1.0000
  C   C128      1.0  0.11300  0.02619  0.84791  1.0000
  C   C129      1.0  0.10567  0.04586  0.84058  1.0000
  H   H197      1.0  0.05968  0.05015  0.86845  1.0000
  H   H198      1.0  0.17289  0.06360  0.90007  1.0000
  N   N10       1.0  0.39320  0.16136  0.88860  1.0000
  C   C130      1.0  0.40694  0.17262  0.87282  1.0000
  C   C131      1.0  0.40342  0.14017  0.89208  1.0000
  C   C132      1.0  0.39133  0.17099  0.90748  1.0000
  C   C133      1.0  0.37297  0.16269  0.88134  1.0000
  C   C134      1.0  0.40101  0.19546  0.86884  1.0000
  C   C135      1.0  0.40848  0.12907  0.87342  1.0000
  C   C136      1.0  0.37897  0.16123  0.92616  1.0000
  C   C137      1.0  0.35974  0.14609  0.89053  1.0000
  H   H199      1.0  0.42263  0.17011  0.87669  1.0000
  H   H200      1.0  0.40795  0.16701  0.85812  1.0000
  H   H201      1.0  0.39457  0.13068  0.90352  1.0000
  H   H202      1.0  0.41773  0.13989  0.89835  1.0000
  H   H203      1.0  0.40652  0.17173  0.91151  1.0000
  H   H204      1.0  0.38409  0.18675  0.90526  1.0000
  H   H205      1.0  0.36390  0.17737  0.88367  1.0000
  H   H206      1.0  0.37501  0.16218  0.86489  1.0000
  H   H207      1.0  0.38505  0.19954  0.86632  1.0000
  H   H208      1.0  0.40420  0.20306  0.88117  1.0000
  H   H209      1.0  0.41045  0.20147  0.85518  1.0000
  H   H210      1.0  0.41248  0.11286  0.87820  1.0000
  H   H211      1.0  0.39563  0.13068  0.86473  1.0000
  H   H212      1.0  0.42179  0.13423  0.86363  1.0000
  H   H213      1.0  0.36276  0.16313  0.92447  1.0000
  H   H214      1.0  0.38022  0.16904  0.93907  1.0000
  H   H215      1.0  0.38464  0.14532  0.93034  1.0000
  H   H216      1.0  0.34367  0.15270  0.89187  1.0000
  H   H217      1.0  0.36249  0.13871  0.90559  1.0000
  H   H218      1.0  0.36103  0.13453  0.88031  1.0000
  H   H219      1.0  0.13431  0.26300  0.85303  1.0000
  H   H220      1.0  0.13354  0.23996  0.93515  1.0000
  C   C138      1.0  0.11000  0.99772  0.80800  1.0000
  H   H221      1.0  0.41913  0.04801  0.82422  1.0000
  Fe  Fe25      1.0  0.48333  0.12097  0.92314  1.0000
  H   H222      1.0  0.46333  0.06201  0.93338  1.0000
  C   C139      1.0  0.46850  0.19706  0.97325  1.0000
  H   H223      1.0  0.10075  0.23123  0.93832  1.0000
  H   H224      1.0  0.35660  0.99586  0.80603  1.0000
  C   C140      1.0  0.21701  0.99178  0.87924  1.0000
  N   N11       1.0  0.48825  0.05500  0.88556  1.0000
  C   C141      1.0  0.35044  0.99270  0.83820  1.0000
  H   H225      1.0  0.00166  0.03715  0.78121  1.0000
  H   H226      1.0  0.10632  0.22989  0.89272  1.0000
  H   H227      1.0  0.22214  0.99680  0.90862  1.0000
  H   H228      1.0  0.15749  0.04115  0.83565  1.0000
  H   H229      1.0  0.09017  0.01448  0.75693  1.0000
  H   H230      1.0  0.45858  0.02908  0.88122  1.0000
  C   C142      1.0  0.18676  0.05381  0.89517  1.0000
  H   H231      1.0  0.01346  0.07409  0.75013  1.0000
  H   H232      1.0  0.38314  0.01727  0.95067  1.0000
  H   H233      1.0  0.11215  0.03029  0.80121  1.0000
  N   N12       1.0  0.34545  0.01568  0.97369  1.0000
  H   H234      1.0  0.24289  0.01057  0.83576  1.0000
  H   H235      1.0  0.34114  0.00795  0.94510  1.0000
  C   C143      1.0  0.48911  0.07908  0.85237  1.0000
  S   S51       1.0  0.00019  0.29942  0.92227  1.0000
  C   C144      1.0  0.14403  0.00957  0.90173  1.0000
  H   H236      1.0  0.46051  0.04872  0.86037  1.0000
  C   C145      1.0  0.16639  0.22591  0.89822  1.0000
  C   C146      1.0  0.39817  0.01712  0.81791  1.0000
  H   H237      1.0  0.13441  0.04443  0.87205  1.0000
  H   H238      1.0  0.10981  0.20920  0.92577  1.0000
  C   C147      1.0  0.13108  0.25190  0.92242  1.0000
  H   H239      1.0  0.15295  0.01453  0.86271  1.0000
  N   N13       1.0  0.16502  0.03461  0.87846  1.0000
  H   H240      1.0  0.40028  0.04928  0.85361  1.0000
  H   H241      1.0  0.11728  0.24581  0.86394  1.0000
  H   H242      1.0  0.13540  0.01442  0.79953  1.0000
  H   H243      1.0  0.40324  0.01513  0.78595  1.0000
  C   C148      1.0  0.14684  0.05036  0.87742  1.0000
  H   H244      1.0  0.12982  0.01926  0.89889  1.0000
  C   C149      1.0  0.05284  0.01640  0.81717  1.0000
  H   H245      1.0  0.39878  0.01468  0.86867  1.0000
  C   C150      1.0  0.48661  0.18827  0.95924  1.0000
  C   C151      1.0  0.31341  0.04171  0.97215  1.0000
  H   H246      1.0  0.47105  0.02349  0.85734  1.0000
  C   C152      1.0  0.14374  0.22392  0.90227  1.0000
  H   H247      1.0  0.14792  0.26968  0.93631  1.0000
  C   C153      1.0  0.10096  0.22424  0.92457  1.0000
  H   H248      1.0  0.16998  0.23957  0.88828  1.0000
  C   C154      1.0  0.16237  0.02127  0.89816  1.0000
  C   C155      1.0  0.16687  0.02149  0.86210  1.0000
  H   H249      1.0  0.49004  0.06073  0.92740  1.0000
  C   C156      1.0  0.13195  0.25053  0.86522  1.0000
  S   S52       1.0  0.00803  0.09105  0.78687  1.0000
  H   H250      1.0  0.08517  0.22196  0.92389  1.0000
  H   H251      1.0  0.48757  0.18326  0.90160  1.0000
  H   H252      1.0  0.07024  0.98970  0.78606  1.0000
  C   C157      1.0  0.39258  0.01891  0.85419  1.0000
  C   C158      1.0  0.48254  0.19909  0.89877  1.0000
  N   N14       1.0  0.12941  0.24292  0.90378  1.0000
  C   C159      1.0  0.10827  0.23770  0.90541  1.0000
  N   N15       1.0  0.40679  0.01044  0.83737  1.0000
  C   C160      1.0  0.42767  0.01593  0.83682  1.0000
  H   H253      1.0  0.04592  0.03144  0.82096  1.0000
  Fe  Fe26      1.0  0.32606  0.99918  0.91233  1.0000
  C   C161      1.0  0.37252  0.01082  0.94332  1.0000
  H   H254      1.0  0.04666  0.00538  0.82928  1.0000
  H   H255      1.0  0.44337  0.04218  0.83211  1.0000
  C   C162      1.0  0.13230  0.25808  0.88544  1.0000
  H   H256      1.0  0.42570  0.00873  0.79766  1.0000
  S   S53       1.0  0.48305  0.30564  0.86555  1.0000
  H   H257      1.0  0.01757  0.16493  0.89775  1.0000
  H   H258      1.0  0.14371  0.28012  0.91164  1.0000
  H   H259      1.0  0.38028  0.04803  0.83858  1.0000
  H   H260      1.0  0.37515  0.01602  0.92705  1.0000
  H   H261      1.0  0.99930  0.15225  0.87323  1.0000
  H   H262      1.0  0.15690  0.06876  0.84893  1.0000
  H   H263      1.0  0.43962  0.03421  0.80963  1.0000
  H   H264      1.0  0.04805  0.01449  0.80280  1.0000
  H   H265      1.0  0.17476  0.01980  0.83034  1.0000
  H   H266      1.0  0.17605  0.01016  0.89991  1.0000
  H   H267      1.0  0.99688  0.19169  0.88916  1.0000
  H   H268      1.0  0.37484  0.04934  0.96245  1.0000
  H   H269      1.0  0.17435  0.21338  0.89017  1.0000
  C   C163      1.0  0.48241  0.00207  0.81078  1.0000
  C   C164      1.0  0.46844  0.03492  0.86784  1.0000
  H   H270      1.0  0.38232  0.01409  0.81954  1.0000
  C   C165      1.0  0.14983  0.07045  0.86435  1.0000
  C   C166      1.0  0.99760  0.07937  0.75321  1.0000
  H   H271      1.0  0.16265  0.25878  0.91577  1.0000
  H   H272      1.0  0.43894  0.00458  0.82983  1.0000
  H   H273      1.0  0.19758  0.03148  0.87557  1.0000
  H   H274      1.0  0.02083  0.13850  0.89834  1.0000
  H   H275      1.0  0.13486  0.07944  0.86320  1.0000
  C   C167      1.0  0.08424  0.99653  0.78587  1.0000
  H   H276      1.0  0.16053  0.03011  0.91095  1.0000
  C   C168      1.0  0.40943  0.00743  0.79968  1.0000
  C   C169      1.0  0.22274  0.99568  0.85860  1.0000
  H   H277      1.0  0.14421  0.23821  0.86234  1.0000
  H   H278      1.0  0.14202  0.00267  0.91757  1.0000
  H   H279      1.0  0.46368  0.21309  0.96847  1.0000
  H   H280      1.0  0.31646  0.04600  0.95581  1.0000
  H   H281      1.0  0.12061  0.27133  0.88658  1.0000
  H   H282      1.0  0.18681  0.05429  0.86363  1.0000
  Fe  Fe27      1.0  0.00246  0.10145  0.86288  1.0000
  H   H283      1.0  0.02221  0.15184  0.74717  1.0000
  H   H284      1.0  0.29638  0.98696  0.80743  1.0000
  H   H285      1.0  0.18423  0.03990  0.83785  1.0000
  H   H286      1.0  0.15877  0.07937  0.87121  1.0000
  C   C170      1.0  0.48889  0.03813  0.87337  1.0000
  S   S54       1.0  0.10995  0.99047  0.87262  1.0000
  S   S55       1.0  0.30837  0.99822  0.88738  1.0000
  C   C171      1.0  0.18446  0.04333  0.87719  1.0000
  H   H287      1.0  0.17276  0.22524  0.91245  1.0000
  H   H288      1.0  0.19922  0.06315  0.89095  1.0000
  H   H289      1.0  0.37815  0.01244  0.85618  1.0000
  H   H290      1.0  0.45849  0.05336  0.90202  1.0000
  H   H291      1.0  0.08763  0.02920  0.77680  1.0000
  H   H292      1.0  0.37598  0.99426  0.94508  1.0000
  H   H293      1.0  0.48011  0.99642  0.76410  1.0000
  H   H294      1.0  0.43145  0.01545  0.85226  1.0000
  H   H295      1.0  0.48145  0.18927  0.94428  1.0000
  C   C172      1.0  0.08187  0.01661  0.77195  1.0000
  H   H296      1.0  0.30444  0.98646  0.95202  1.0000
  C   C173      1.0  0.47564  0.06444  0.92093  1.0000
  H   H297      1.0  0.11281  0.99640  0.82386  1.0000
  H   H298      1.0  0.29680  0.04246  0.97574  1.0000
  H   H299      1.0  0.31504  0.00983  0.97311  1.0000
  C   C174      1.0  0.01975  0.13595  0.75098  1.0000
  H   H300      1.0  0.00447  0.13485  0.75917  1.0000
  H   H301      1.0  0.34821  0.05613  0.96132  1.0000
  C   C175      1.0  0.40785  0.98792  0.84131  1.0000
  H   H302      1.0  0.48334  0.08742  0.88203  1.0000
  H   H303      1.0  0.27907  0.99164  0.84208  1.0000
  C   C176      1.0  0.48907  0.00660  0.75346  1.0000
  H   H304      1.0  0.00448  0.14938  0.91783  1.0000
  H   H305      1.0  0.31802  0.05284  0.98033  1.0000
  H   H306      1.0  0.03043  0.12897  0.76170  1.0000
  C   C177      1.0  0.35965  0.04964  0.97123  1.0000
  H   H307      1.0  0.99201  0.99038  0.77427  1.0000
  H   H308      1.0  0.48096  0.02193  0.75418  1.0000
  H   H309      1.0  0.45553  0.18896  0.97277  1.0000
  C   C178      1.0  0.48036  0.07483  0.87459  1.0000
  H   H310      1.0  0.09654  0.98639  0.77832  1.0000
  H   H311      1.0  0.48426  0.09493  0.84677  1.0000
  H   H312      1.0  0.47716  0.03526  0.91166  1.0000
  H   H313      1.0  0.01051  0.01657  0.75763  1.0000
  C   C179      1.0  0.99839  0.26990  0.97882  1.0000
  C   C180      1.0  0.49050  0.23350  0.89164  1.0000
  H   H314      1.0  0.47359  0.08050  0.91494  1.0000
  H   H315      1.0  0.99963  0.03604  0.74061  1.0000
  H   H316      1.0  0.48355  0.06973  0.84288  1.0000
  C   C181      1.0  0.99922  0.02008  0.74691  1.0000
  H   H317      1.0  0.01055  0.30584  0.85575  1.0000
  S   S56       1.0  0.04927  0.31192  0.89018  1.0000
  C   C182      1.0  0.99298  0.29120  0.94772  1.0000
  H   H318      1.0  0.99272  0.01445  0.79484  1.0000
  H   H319      1.0  0.99187  0.18735  0.86566  1.0000
  C   C183      1.0  0.99219  0.15251  0.88896  1.0000
  H   H320      1.0  0.36807  0.99007  0.97935  1.0000
  C   C184      1.0  0.35766  0.98580  0.81977  1.0000
  H   H321      1.0  0.49015  0.22180  0.93860  1.0000
  H   H322      1.0  0.34714  0.98491  0.87022  1.0000
  C   C185      1.0  0.35145  0.99409  0.98181  1.0000
  H   H323      1.0  0.35924  0.06044  0.98206  1.0000
  H   H324      1.0  0.36426  0.55042  0.04942  1.0000
  H   H325      1.0  0.04894  0.57154  0.07826  1.0000
  H   H326      1.0  0.03792  0.64710  0.09176  1.0000
  S   S57       1.0  0.19907  0.59160  0.00058  1.0000
  Fe  Fe28      1.0  0.39535  0.59141  0.01205  1.0000
  S   S58       1.0  0.36999  0.61584  0.00651  1.0000
  S   S59       1.0  0.40787  0.58533  0.04194  1.0000
  H   H327      1.0  0.47880  0.57288  0.02428  1.0000
  Fe  Fe29      1.0  0.35493  0.59290  0.99579  1.0000
  S   S60       1.0  0.32102  0.59323  0.00254  1.0000
  S   S61       1.0  0.37879  0.56796  0.00398  1.0000
  Fe  Fe30      1.0  0.04666  0.51368  0.16136  1.0000
  S   S62       1.0  0.07000  0.50788  0.18254  1.0000
  S   S63       1.0  0.03741  0.48528  0.15373  1.0000
  Fe  Fe31      1.0  0.04778  0.55852  0.15723  1.0000
  S   S64       1.0  0.07079  0.55576  0.17825  1.0000
  S   S65       1.0  0.04082  0.59005  0.14301  1.0000
  Fe  Fe32      1.0  0.08611  0.53062  0.16116  1.0000
  S   S66       1.0  0.11984  0.52796  0.15070  1.0000
  Fe  Fe33      1.0  0.05228  0.53371  0.19730  1.0000
  S   S67       1.0  0.06399  0.53472  0.13914  1.0000
  S   S68       1.0  0.02800  0.53813  0.17719  1.0000
  Fe  Fe34      1.0  0.23524  0.52767  0.03027  1.0000
  S   S69       1.0  0.23036  0.54077  0.99912  1.0000
  S   S70       1.0  0.26796  0.52290  0.03624  1.0000
  Fe  Fe35      1.0  0.19021  0.52457  0.04307  1.0000
  S   S71       1.0  0.18269  0.53789  0.01238  1.0000
  S   S72       1.0  0.16154  0.51574  0.06253  1.0000
  Fe  Fe36      1.0  0.20952  0.51784  0.00034  1.0000
  C   C186      1.0  0.17369  0.59861  0.99797  1.0000
  Fe  Fe37      1.0  0.20409  0.55946  0.01378  1.0000
  C   C187      1.0  0.07449  0.61792  0.04302  1.0000
  S   S73       1.0  0.21619  0.50285  0.03070  1.0000
  S   S74       1.0  0.20989  0.54803  0.04523  1.0000
  C   C188      1.0  0.99968  0.47845  0.20930  1.0000
  H   H328      1.0  0.27904  0.59086  0.00515  1.0000
  C   C189      1.0  0.15880  0.59160  0.01264  1.0000
  H   H329      1.0  0.01391  0.57952  0.08891  1.0000
  H   H330      1.0  0.03756  0.62312  0.01501  1.0000
  H   H331      1.0  0.16298  0.58180  0.02578  1.0000
  H   H332      1.0  0.02566  0.63177  0.07978  1.0000
  C   C190      1.0  0.00050  0.58675  0.14561  1.0000
  H   H333      1.0  0.24155  0.40039  0.98552  1.0000
  H   H334      1.0  0.07732  0.63005  0.05101  1.0000
  H   H335      1.0  0.28126  0.59279  0.07174  1.0000
  C   C191      1.0  0.02981  0.63690  0.00830  1.0000
  H   H336      1.0  0.35205  0.63970  0.04795  1.0000
  H   H337      1.0  0.44749  0.55853  0.03511  1.0000
  H   H338      1.0  0.08417  0.57732  0.06949  1.0000
  H   H339      1.0  0.35350  0.55433  0.07426  1.0000
  S   S75       1.0  0.48070  0.59499  0.15929  1.0000
  C   C192      1.0  0.01576  0.59900  0.14018  1.0000
  H   H340      1.0  0.00620  0.46329  0.21533  1.0000
  H   H341      1.0  0.07257  0.50112  0.11580  1.0000
  C   C193      1.0  0.01109  0.61905  0.13257  1.0000
  H   H342      1.0  0.12263  0.56014  0.99855  1.0000
  H   H343      1.0  0.04332  0.61461  0.05210  1.0000
  H   H344      1.0  0.02278  0.62867  0.12878  1.0000
  C   C194      1.0  0.01258  0.48249  0.15058  1.0000
  C   C195      1.0  0.00783  0.46324  0.14990  1.0000
  H   H345      1.0  0.33777  0.55126  0.05591  1.0000
  H   H346      1.0  0.10528  0.45214  0.10968  1.0000
  C   C196      1.0  0.19380  0.47087  0.98330  1.0000
  H   H347      1.0  0.23425  0.45835  0.99370  1.0000
  H   H348      1.0  0.01933  0.45048  0.15138  1.0000
  C   C197      1.0  0.00056  0.61075  0.22590  1.0000
  H   H349      1.0  0.02716  0.57556  0.21350  1.0000
  C   C198      1.0  0.13093  0.52763  0.12540  1.0000
  C   C199      1.0  0.11951  0.52655  0.11016  1.0000
  C   C200      1.0  0.12911  0.52358  0.09083  1.0000
  C   C201      1.0  0.15016  0.52236  0.08627  1.0000
  C   C202      1.0  0.16151  0.52436  0.10127  1.0000
  C   C203      1.0  0.15194  0.52677  0.12077  1.0000
  H   H350      1.0  0.10337  0.52733  0.11341  1.0000
  H   H351      1.0  0.12021  0.52195  0.07936  1.0000
  H   H352      1.0  0.17772  0.52322  0.09806  1.0000
  H   H353      1.0  0.16093  0.52755  0.13244  1.0000
  C   C204      1.0  0.30693  0.57315  0.01168  1.0000
  C   C205      1.0  0.28605  0.57640  0.01128  1.0000
  C   C206      1.0  0.27405  0.56112  0.01870  1.0000
  C   C207      1.0  0.28277  0.54244  0.02694  1.0000
  C   C208      1.0  0.30369  0.53918  0.02753  1.0000
  C   C209      1.0  0.31578  0.55441  0.01974  1.0000
  C   C210      1.0  0.48296  0.59522  0.18488  1.0000
  H   H354      1.0  0.25797  0.56390  0.01823  1.0000
  H   H355      1.0  0.31055  0.52476  0.03388  1.0000
  H   H356      1.0  0.33185  0.55171  0.02009  1.0000
  C   C211      1.0  0.46655  0.60596  0.05339  1.0000
  C   C212      1.0  0.46005  0.61045  0.03437  1.0000
  C   C213      1.0  0.44180  0.60485  0.03081  1.0000
  C   C214      1.0  0.42992  0.59446  0.04622  1.0000
  C   C215      1.0  0.43631  0.59012  0.06529  1.0000
  C   C216      1.0  0.45446  0.59593  0.06892  1.0000
  H   H357      1.0  0.46926  0.61824  0.02227  1.0000
  H   H358      1.0  0.43703  0.60845  0.01610  1.0000
  H   H359      1.0  0.42728  0.58205  0.07732  1.0000
  H   H360      1.0  0.45929  0.59232  0.08361  1.0000
  H   H361      1.0  0.04642  0.62394  0.17856  1.0000
  H   H362      1.0  0.06999  0.62464  0.08806  1.0000
  C   C217      1.0  0.08036  0.58968  0.07902  1.0000
  H   H363      1.0  0.05071  0.61373  0.10430  1.0000
  H   H364      1.0  0.01614  0.60358  0.09435  1.0000
  C   C218      1.0  0.03469  0.61181  0.20929  1.0000
  C   C219      1.0  0.09321  0.48244  0.13452  1.0000
  C   C220      1.0  0.35310  0.62448  0.05651  1.0000
  C   C221      1.0  0.47165  0.58318  0.19954  1.0000
  H   H365      1.0  0.07951  0.59156  0.11138  1.0000
  H   H366      1.0  0.04564  0.58091  0.10169  1.0000
  H   H367      1.0  0.01553  0.61589  0.17513  1.0000
  H   H368      1.0  0.09183  0.60004  0.07367  1.0000
  H   H369      1.0  0.99401  0.57310  0.19047  1.0000
  H   H370      1.0  0.47731  0.56770  0.99283  1.0000
  H   H371      1.0  0.12637  0.47843  0.10725  1.0000
  C   C222      1.0  0.13845  0.59753  0.01045  1.0000
  H   H372      1.0  0.15690  0.64265  0.00310  1.0000
  C   C223      1.0  0.02239  0.59250  0.08396  1.0000
  H   H373      1.0  0.00115  0.51377  0.14905  1.0000
  H   H374      1.0  0.07315  0.45027  0.13562  1.0000
  C   C224      1.0  0.13304  0.61011  0.99343  1.0000
  H   H375      1.0  0.13471  0.53687  0.99117  1.0000
  H   H376      1.0  0.05863  0.59217  0.04742  1.0000
  C   C225      1.0  0.12888  0.47346  0.12307  1.0000
  H   H377      1.0  0.00069  0.55918  0.21350  1.0000
  C   C226      1.0  0.99776  0.57454  0.20549  1.0000
  H   H378      1.0  0.35416  0.62639  0.07219  1.0000
  H   H379      1.0  0.15741  0.56258  0.98447  1.0000
  N   N16       1.0  0.05940  0.60027  0.07687  1.0000
  H   H380      1.0  0.12693  0.59217  0.02186  1.0000
  H   H381      1.0  0.01924  0.59825  0.06854  1.0000
  H   H382      1.0  0.35247  0.53643  0.98840  1.0000
  H   H383      1.0  0.10079  0.57605  0.10058  1.0000
  C   C227      1.0  0.99127  0.62681  0.12993  1.0000
  H   H384      1.0  0.11875  0.43576  0.12701  1.0000
  C   C228      1.0  0.99762  0.49888  0.14862  1.0000
  C   C229      1.0  0.10613  0.44818  0.12601  1.0000
  C   C230      1.0  0.11357  0.45895  0.15660  1.0000
  C   C231      1.0  0.12233  0.47367  0.16704  1.0000
  H   H385      1.0  0.12332  0.44434  0.15830  1.0000
  H   H386      1.0  0.09904  0.45611  0.16582  1.0000
  H   H387      1.0  0.12311  0.46744  0.18294  1.0000
  H   H388      1.0  0.13785  0.47605  0.16029  1.0000
  H   H389      1.0  0.11261  0.48820  0.16704  1.0000
  H   H390      1.0  0.08880  0.60802  0.03969  1.0000
  N   N17       1.0  0.33369  0.59353  0.06372  1.0000
  C   C232      1.0  0.31333  0.58800  0.06172  1.0000
  C   C233      1.0  0.34907  0.58060  0.05122  1.0000
  C   C234      1.0  0.33410  0.61513  0.05496  1.0000
  C   C235      1.0  0.33650  0.59040  0.08557  1.0000
  C   C236      1.0  0.29476  0.60009  0.07233  1.0000
  C   C237      1.0  0.35102  0.55793  0.05838  1.0000
  C   C238      1.0  0.45994  0.54852  0.02770  1.0000
  H   H391      1.0  0.48050  0.55584  0.04639  1.0000
  H   H392      1.0  0.31107  0.58948  0.04570  1.0000
  H   H393      1.0  0.31220  0.57208  0.06769  1.0000
  H   H394      1.0  0.36430  0.58504  0.04972  1.0000
  H   H395      1.0  0.34559  0.58270  0.03552  1.0000
  H   H396      1.0  0.33182  0.61713  0.03885  1.0000
  H   H397      1.0  0.32159  0.62494  0.06243  1.0000
  H   H398      1.0  0.32769  0.60289  0.09322  1.0000
  H   H399      1.0  0.33013  0.57668  0.09318  1.0000
  H   H400      1.0  0.29179  0.61547  0.06452  1.0000
  H   H401      1.0  0.08817  0.43215  0.15131  1.0000
  H   H402      1.0  0.29584  0.60047  0.08833  1.0000
  C   C239      1.0  0.04484  0.58551  0.08546  1.0000
  S   S76       1.0  0.03979  0.53168  0.23041  1.0000
  H   H403      1.0  0.08458  0.42718  0.12717  1.0000
  H   H404      1.0  0.36269  0.57312  0.09844  1.0000
  C   C240      1.0  0.08438  0.58069  0.10044  1.0000
  C   C241      1.0  0.05576  0.61823  0.08820  1.0000
  H   H405      1.0  0.13200  0.48729  0.12820  1.0000
  H   H406      1.0  0.01139  0.48444  0.19772  1.0000
  H   H407      1.0  0.99695  0.48848  0.22111  1.0000
  H   H408      1.0  0.09646  0.49402  0.10220  1.0000
  H   H409      1.0  0.36722  0.61613  0.05001  1.0000
  H   H410      1.0  0.32245  0.52281  0.99296  1.0000
  H   H411      1.0  0.14982  0.45009  0.10913  1.0000
  H   H412      1.0  0.19055  0.64177  0.01291  1.0000
  H   H413      1.0  0.14962  0.44787  0.13584  1.0000
  H   H414      1.0  0.07706  0.56700  0.10552  1.0000
  C   C242      1.0  0.08686  0.43916  0.13573  1.0000
  N   N18       1.0  0.11048  0.46572  0.13504  1.0000
  H   H415      1.0  0.06980  0.62486  0.02834  1.0000
  H   H416      1.0  0.07825  0.47646  0.10953  1.0000
  C   C243      1.0  0.08495  0.48861  0.11423  1.0000
  N   N19       1.0  0.01428  0.60660  0.20701  1.0000
  C   C244      1.0  0.12913  0.55242  0.98533  1.0000
  C   C245      1.0  0.14842  0.45858  0.12211  1.0000
  H   H417      1.0  0.16154  0.46701  0.12045  1.0000
  H   H418      1.0  0.46401  0.57369  0.23116  1.0000
  H   H419      1.0  0.09760  0.49616  0.13883  1.0000
  H   H420      1.0  0.35916  0.59887  0.10149  1.0000
  C   C246      1.0  0.05800  0.60583  0.05481  1.0000
  H   H421      1.0  0.08032  0.47872  0.14587  1.0000
  C   C247      1.0  0.35834  0.58832  0.09073  1.0000
  C   C248      1.0  0.05047  0.61171  0.19048  1.0000
  C   C249      1.0  0.04050  0.63602  0.08090  1.0000
  H   H422      1.0  0.02484  0.58316  0.18825  1.0000
  C   C250      1.0  0.47301  0.58281  0.22006  1.0000
  H   H423      1.0  0.05297  0.59722  0.18441  1.0000
  H   H424      1.0  0.19305  0.47427  0.99844  1.0000
  C   C251      1.0  0.03627  0.64442  0.98851  1.0000
  N   N20       1.0  0.45614  0.54689  0.00671  1.0000
  C   C252      1.0  0.23878  0.44387  0.00262  1.0000
  H   H425      1.0  0.27003  0.43973  0.99151  1.0000
  H   H426      1.0  0.26060  0.41740  0.00178  1.0000
  H   H427      1.0  0.46163  0.57421  0.19500  1.0000
  S   S77       1.0  0.00463  0.63591  0.04333  1.0000
  H   H428      1.0  0.22567  0.43547  0.00682  1.0000
  H   H429      1.0  0.46332  0.51470  0.01093  1.0000
  H   H430      1.0  0.00409  0.57124  0.15150  1.0000
  H   H431      1.0  0.06513  0.61418  0.19452  1.0000
  C   C253      1.0  0.42410  0.53108  0.02300  1.0000
  H   H432      1.0  0.04624  0.64391  0.06624  1.0000
  H   H433      1.0  0.04165  0.60127  0.22119  1.0000
  C   C254      1.0  0.25705  0.43157  0.99179  1.0000
  H   H434      1.0  0.24289  0.44744  0.01678  1.0000
  H   H435      1.0  0.43023  0.54367  0.99247  1.0000
  C   C255      1.0  0.46161  0.56508  0.99265  1.0000
  H   H436      1.0  0.18188  0.44276  0.99227  1.0000
  H   H437      1.0  0.37005  0.59135  0.07800  1.0000
  H   H438      1.0  0.45235  0.57883  0.99761  1.0000
  H   H439      1.0  0.45997  0.53374  0.03714  1.0000
  S   S78       1.0  0.10758  0.61671  0.99065  1.0000
  H   H440      1.0  0.46130  0.52454  0.98608  1.0000
  C   C256      1.0  0.00683  0.62019  0.18934  1.0000
  S   S79       1.0  0.48611  0.63350  0.10847  1.0000
  H   H441      1.0  0.29062  0.51810  0.99357  1.0000
  C   C257      1.0  0.48557  0.59468  0.22614  1.0000
  C   C258      1.0  0.01687  0.58495  0.20350  1.0000
  H   H442      1.0  0.42462  0.53417  0.03844  1.0000
  H   H443      1.0  0.00939  0.63588  0.18992  1.0000
  H   H444      1.0  0.06456  0.56360  0.23022  1.0000
  H   H445      1.0  0.03330  0.62693  0.21418  1.0000
  C   C259      1.0  0.47932  0.55679  0.03017  1.0000
  H   H446      1.0  0.43083  0.51554  0.02116  1.0000
  H   H447      1.0  0.99366  0.43772  0.20016  1.0000
  C   C260      1.0  0.01317  0.64687  0.01919  1.0000
  C   C261      1.0  0.46691  0.52768  0.99974  1.0000
  H   H448      1.0  0.40793  0.53211  0.02121  1.0000
  H   H449      1.0  0.36095  0.51000  0.98972  1.0000
  C   C262      1.0  0.43382  0.54660  0.00711  1.0000
  H   H450      1.0  0.99977  0.62675  0.22811  1.0000
  H   H451      1.0  0.42536  0.56146  0.00975  1.0000
  C   C263      1.0  0.49009  0.52559  0.99587  1.0000
  H   H452      1.0  0.12267  0.65084  0.02245  1.0000
  S   S80       1.0  0.49048  0.61191  0.05654  1.0000
  C   C264      1.0  0.37326  0.62444  0.46207  1.0000
  S   S81       1.0  0.45115  0.55506  0.28696  1.0000
  H   H453      1.0  0.12991  0.56968  0.34794  1.0000
  H   H454      1.0  0.44943  0.59833  0.45848  1.0000
  S   S82       1.0  0.46382  0.59080  0.30790  1.0000
  C   C265      1.0  0.28342  0.62178  0.40157  1.0000
  Fe  Fe38      1.0  0.44243  0.56767  0.31647  1.0000
  S   S83       1.0  0.40930  0.57517  0.32864  1.0000
  Fe  Fe39      1.0  0.47451  0.57631  0.27980  1.0000
  H   H455      1.0  0.09019  0.61133  0.34628  1.0000
  H   H456      1.0  0.03583  0.64053  0.40853  1.0000
  H   H457      1.0  0.10814  0.53606  0.34254  1.0000
  H   H458      1.0  0.27324  0.61373  0.43277  1.0000
  S   S84       1.0  0.33869  0.55968  0.46708  1.0000
  H   H459      1.0  0.00816  0.58173  0.24407  1.0000
  Fe  Fe40      1.0  0.29009  0.56936  0.44104  1.0000
  S   S85       1.0  0.31015  0.53977  0.44210  1.0000
  S   S86       1.0  0.25966  0.57512  0.42935  1.0000
  C   C266      1.0  0.26997  0.62656  0.42106  1.0000
  H   H460      1.0  0.40051  0.48257  0.33672  1.0000
  Fe  Fe41      1.0  0.33620  0.55811  0.43454  1.0000
  S   S87       1.0  0.36652  0.54835  0.41646  1.0000
  H   H461      1.0  0.39546  0.53053  0.35301  1.0000
  S   S88       1.0  0.31592  0.58742  0.43057  1.0000
  C   C267      1.0  0.45155  0.63081  0.45561  1.0000
  H   H462      1.0  0.45343  0.47943  0.35685  1.0000
  H   H463      1.0  0.07244  0.53399  0.39550  1.0000
  H   H464      1.0  0.29898  0.62937  0.43931  1.0000
  H   H465      1.0  0.39614  0.53103  0.31299  1.0000
  Fe  Fe42      1.0  0.11272  0.62060  0.45707  1.0000
  S   S89       1.0  0.09966  0.62708  0.42732  1.0000
  H   H466      1.0  0.99433  0.60082  0.25778  1.0000
  Fe  Fe43      1.0  0.02348  0.59296  0.32392  1.0000
  S   S90       1.0  0.01541  0.56890  0.34905  1.0000
  S   S91       1.0  0.04464  0.58942  0.29494  1.0000
  H   H467      1.0  0.06303  0.63900  0.45749  1.0000
  Fe  Fe44      1.0  0.02213  0.58988  0.36941  1.0000
  S   S92       1.0  0.03885  0.57893  0.39643  1.0000
  S   S93       1.0  0.03255  0.61250  0.34425  1.0000
  C   C268      1.0  0.08305  0.61318  0.41897  1.0000
  C   C269      1.0  0.07668  0.59589  0.43025  1.0000
  C   C270      1.0  0.06318  0.58555  0.42312  1.0000
  C   C271      1.0  0.05570  0.59252  0.40483  1.0000
  C   C272      1.0  0.06205  0.60984  0.39359  1.0000
  C   C273      1.0  0.07576  0.62000  0.40056  1.0000
  H   H468      1.0  0.08218  0.59047  0.44444  1.0000
  H   H469      1.0  0.05841  0.57214  0.43192  1.0000
  H   H470      1.0  0.05640  0.61546  0.37953  1.0000
  H   H471      1.0  0.08065  0.63334  0.39171  1.0000
  C   C274      1.0  0.04137  0.54803  0.24801  1.0000
  C   C275      1.0  0.05471  0.56235  0.24423  1.0000
  C   C276      1.0  0.05559  0.57481  0.25880  1.0000
  C   C277      1.0  0.04293  0.57335  0.27714  1.0000
  C   C278      1.0  0.02948  0.55915  0.28084  1.0000
  C   C279      1.0  0.02884  0.54646  0.26641  1.0000
  S   S94       1.0  0.48715  0.59569  0.25177  1.0000
  H   H472      1.0  0.06613  0.58569  0.25584  1.0000
  H   H473      1.0  0.01967  0.55782  0.29488  1.0000
  H   H474      1.0  0.01849  0.53541  0.26950  1.0000
  C   C280      1.0  0.23839  0.58760  0.44311  1.0000
  H   H475      1.0  0.47535  0.60399  0.34500  1.0000
  Fe  Fe45      1.0  0.00041  0.62666  0.34721  1.0000
  H   H476      1.0  0.08138  0.57200  0.31711  1.0000
  H   H477      1.0  0.09771  0.53431  0.38388  1.0000
  C   C281      1.0  0.24032  0.59686  0.45961  1.0000
  H   H478      1.0  0.07960  0.60245  0.32734  1.0000
  C   C282      1.0  0.42340  0.51733  0.32625  1.0000
  H   H479      1.0  0.44614  0.47958  0.32494  1.0000
  H   H480      1.0  0.44401  0.62210  0.41781  1.0000
  H   H481      1.0  0.06679  0.54649  0.30715  1.0000
  H   H482      1.0  0.41472  0.47351  0.35685  1.0000
  C   C283      1.0  0.07393  0.56256  0.32998  1.0000
  C   C284      1.0  0.44917  0.63665  0.41879  1.0000
  C   C285      1.0  0.39796  0.56968  0.35375  1.0000
  C   C286      1.0  0.37697  0.57412  0.35834  1.0000
  C   C287      1.0  0.36716  0.56848  0.37767  1.0000
  C   C288      1.0  0.37823  0.55805  0.39260  1.0000
  C   C289      1.0  0.39926  0.55388  0.38807  1.0000
  C   C290      1.0  0.40911  0.55991  0.36888  1.0000
  H   H483      1.0  0.36818  0.58168  0.34677  1.0000
  H   H484      1.0  0.35098  0.57167  0.38085  1.0000
  H   H485      1.0  0.40798  0.54586  0.39949  1.0000
  H   H486      1.0  0.42527  0.55668  0.36569  1.0000
  C   C291      1.0  0.02246  0.62627  0.43581  1.0000
  N   N21       1.0  0.27203  0.64599  0.42832  1.0000
  C   C292      1.0  0.23497  0.65131  0.44467  1.0000
  C   C293      1.0  0.41500  0.48337  0.34229  1.0000
  C   C294      1.0  0.10656  0.55255  0.34254  1.0000
  Fe  Fe46      1.0  0.48598  0.56752  0.32235  1.0000
  H   H487      1.0  0.07566  0.53155  0.35969  1.0000
  H   H488      1.0  0.47785  0.62819  0.30855  1.0000
  N   N22       1.0  0.46266  0.63488  0.43485  1.0000
  H   H489      1.0  0.35394  0.60448  0.45534  1.0000
  H   H490      1.0  0.01862  0.61420  0.42825  1.0000
  N   N23       1.0  0.08482  0.56069  0.34814  1.0000
  H   H491      1.0  0.06611  0.58603  0.35953  1.0000
  H   H492      1.0  0.43014  0.52087  0.36346  1.0000
  H   H493      1.0  0.20954  0.56618  0.47965  1.0000
  H   H494      1.0  0.46072  0.49891  0.36786  1.0000
  Fe  Fe47      1.0  0.47426  0.53441  0.30322  1.0000
  H   H495      1.0  0.28190  0.60635  0.39906  1.0000
  H   H496      1.0  0.43490  0.45739  0.33272  1.0000
  H   H497      1.0  0.08242  0.55703  0.39130  1.0000
  H   H498      1.0  0.06083  0.53450  0.33182  1.0000
  H   H499      1.0  0.47309  0.63812  0.35466  1.0000
  H   H500      1.0  0.48844  0.61476  0.44422  1.0000
  H   H501      1.0  0.11183  0.55881  0.32693  1.0000
  C   C295      1.0  0.47877  0.61732  0.43193  1.0000
  H   H502      1.0  0.44060  0.64373  0.45975  1.0000
  H   H503      1.0  0.13389  0.54389  0.35673  1.0000
  C   C296      1.0  0.12199  0.55693  0.35549  1.0000
  H   H504      1.0  0.41792  0.52646  0.29536  1.0000
  H   H505      1.0  0.02030  0.60199  0.24956  1.0000
  H   H506      1.0  0.38452  0.51313  0.34268  1.0000
  C   C297      1.0  0.45212  0.49592  0.35617  1.0000
  H   H507      1.0  0.30382  0.64761  0.41845  1.0000
  C   C298      1.0  0.08992  0.59788  0.33892  1.0000
  H   H508      1.0  0.21756  0.58186  0.42421  1.0000
  H   H509      1.0  0.43867  0.51164  0.31959  1.0000
  H   H510      1.0  0.18769  0.60079  0.44207  1.0000
  S   S95       1.0  0.46406  0.54545  0.33297  1.0000
  Fe  Fe48      1.0  0.31679  0.58753  0.46333  1.0000
  S   S96       1.0  0.31518  0.61521  0.47796  1.0000
  S   S97       1.0  0.48080  0.50151  0.30014  1.0000
  H   H511      1.0  0.11593  0.55964  0.37094  1.0000
  C   C299      1.0  0.20229  0.59959  0.44711  1.0000
  H   H512      1.0  0.42615  0.47415  0.31256  1.0000
  H   H513      1.0  0.46506  0.64807  0.29326  1.0000
  H   H514      1.0  0.37029  0.51199  0.37643  1.0000
  H   H515      1.0  0.01049  0.62841  0.44852  1.0000
  H   H516      1.0  0.48504  0.61756  0.39918  1.0000
  H   H517      1.0  0.29959  0.62218  0.40224  1.0000
  H   H518      1.0  0.08683  0.53325  0.32007  1.0000
  C   C300      1.0  0.07455  0.54668  0.36433  1.0000
  C   C301      1.0  0.43160  0.47355  0.32725  1.0000
  H   H519      1.0  0.17919  0.56335  0.46605  1.0000
  C   C302      1.0  0.20442  0.60923  0.46331  1.0000
  C   C303      1.0  0.35489  0.61687  0.46329  1.0000
  H   H520      1.0  0.42462  0.49698  0.37537  1.0000
  C   C304      1.0  0.04932  0.65020  0.45730  1.0000
  H   H521      1.0  0.40506  0.50585  0.30714  1.0000
  S   S98       1.0  0.13862  0.59748  0.46499  1.0000
  C   C305      1.0  0.07220  0.54288  0.32206  1.0000
  H   H522      1.0  0.08960  0.58137  0.36819  1.0000
  H   H523      1.0  0.38647  0.61783  0.45320  1.0000
  H   H524      1.0  0.42483  0.53258  0.32946  1.0000
  C   C306      1.0  0.33791  0.62523  0.47499  1.0000
  H   H525      1.0  0.25435  0.62599  0.41825  1.0000
  H   H526      1.0  0.05814  0.55209  0.36704  1.0000
  H   H527      1.0  0.03718  0.62058  0.44115  1.0000
  H   H528      1.0  0.45967  0.50245  0.34173  1.0000
  C   C307      1.0  0.21925  0.58892  0.43699  1.0000
  N   N24       1.0  0.41635  0.50462  0.34531  1.0000
  C   C308      1.0  0.39559  0.51425  0.35290  1.0000
  C   C309      1.0  0.47952  0.64273  0.29935  1.0000
  S   S99       1.0  0.99211  0.60917  0.32474  1.0000
  C   C310      1.0  0.08254  0.54308  0.38474  1.0000
  H   H529      1.0  0.48788  0.64973  0.43853  1.0000
  C   C311      1.0  0.43960  0.61275  0.45942  1.0000
  H   H530      1.0  0.27856  0.63186  0.38837  1.0000
  H   H531      1.0  0.39356  0.51066  0.38581  1.0000
  H   H532      1.0  0.38734  0.48926  0.37588  1.0000
  S   S100      1.0  0.28998  0.57157  0.47328  1.0000
  S   S101      1.0  0.18419  0.62431  0.47557  1.0000
  C   C312      1.0  0.43006  0.50518  0.36073  1.0000
  C   C313      1.0  0.02384  0.64513  0.42049  1.0000
  H   H533      1.0  0.45774  0.64024  0.40376  1.0000
  C   C314      1.0  0.08227  0.58119  0.35475  1.0000
  H   H534      1.0  0.10534  0.59349  0.33164  1.0000
  C   C315      1.0  0.40968  0.52010  0.30963  1.0000
  Fe  Fe49      1.0  0.31152  0.54343  0.47412  1.0000
  H   H535      1.0  0.25487  0.59622  0.46444  1.0000
  C   C316      1.0  0.38645  0.50577  0.37397  1.0000
  H   H536      1.0  0.05836  0.57035  0.33301  1.0000
  S   S102      1.0  0.12668  0.64574  0.46569  1.0000
  C   C317      1.0  0.22348  0.60765  0.46958  1.0000
  H   H537      1.0  0.26013  0.63378  0.45811  1.0000
  C   C318      1.0  0.37469  0.64007  0.47284  1.0000
  H   H538      1.0  0.41882  0.64837  0.41242  1.0000
  Fe  Fe50      1.0  0.15090  0.62181  0.47637  1.0000
  H   H539      1.0  0.47209  0.60328  0.43258  1.0000
  H   H540      1.0  0.00963  0.64816  0.41357  1.0000
  H   H541      1.0  0.42788  0.61440  0.44930  1.0000
  H   H542      1.0  0.46223  0.62857  0.46692  1.0000
  H   H543      1.0  0.23001  0.63928  0.43803  1.0000
  S   S103      1.0  0.39806  0.64814  0.47270  1.0000
  C   C319      1.0  0.48721  0.62833  0.35441  1.0000
  C   C320      1.0  0.00642  0.59795  0.24525  1.0000
  H   H544      1.0  0.99656  0.42499  0.37784  1.0000
  C   C321      1.0  0.48848  0.60906  0.34891  1.0000
  H   H545      1.0  0.22530  0.61510  0.48206  1.0000
  C   C322      1.0  0.25755  0.64756  0.44728  1.0000
  H   H546      1.0  0.43156  0.61201  0.47489  1.0000
  H   H547      1.0  0.03661  0.64205  0.46415  1.0000
  C   C323      1.0  0.29352  0.64475  0.43257  1.0000
  H   H548      1.0  0.45568  0.59819  0.62124  1.0000
  H   H549      1.0  0.29932  0.37190  0.63733  1.0000
  H   H550      1.0  0.44742  0.34498  0.65056  1.0000
  S   S104      1.0  0.39396  0.61101  0.56395  1.0000
  H   H551      1.0  0.48691  0.63546  0.54858  1.0000
  Fe  Fe51      1.0  0.43085  0.49960  0.66508  1.0000
  S   S105      1.0  0.40785  0.48797  0.68944  1.0000
  H   H552      1.0  0.43415  0.45135  0.66964  1.0000
  Fe  Fe52      1.0  0.41208  0.54339  0.66487  1.0000
  S   S106      1.0  0.38766  0.53563  0.68983  1.0000
  S   S107      1.0  0.41599  0.57532  0.65091  1.0000
  Fe  Fe53      1.0  0.41142  0.51431  0.70448  1.0000
  Fe  Fe54      1.0  0.38585  0.51001  0.67308  1.0000
  S   S108      1.0  0.35580  0.50488  0.66612  1.0000
  S   S109      1.0  0.43621  0.52440  0.68110  1.0000
  S   S110      1.0  0.40854  0.51922  0.64719  1.0000
  Fe  Fe55      1.0  0.34883  0.44099  0.57414  1.0000
  S   S111      1.0  0.33746  0.41682  0.56152  1.0000
  S   S112      1.0  0.36168  0.46731  0.55514  1.0000
  Fe  Fe56      1.0  0.34407  0.41901  0.61606  1.0000
  S   S113      1.0  0.33249  0.39303  0.60677  1.0000
  S   S114      1.0  0.34962  0.41812  0.64794  1.0000
  Fe  Fe57      1.0  0.35719  0.39522  0.58097  1.0000
  S   S115      1.0  0.37790  0.37039  0.56653  1.0000
  Fe  Fe58      1.0  0.31374  0.41691  0.58844  1.0000
  S   S116      1.0  0.28102  0.41397  0.58641  1.0000
  S   S117      1.0  0.37012  0.41950  0.59172  1.0000
  S   S118      1.0  0.32371  0.44278  0.59952  1.0000
  Fe  Fe59      1.0  0.13317  0.45095  0.61856  1.0000
  S   S119      1.0  0.15166  0.44398  0.64423  1.0000
  S   S120      1.0  0.12251  0.42712  0.60376  1.0000
  Fe  Fe60      1.0  0.13467  0.49570  0.61518  1.0000
  S   S121      1.0  0.15256  0.49212  0.64101  1.0000
  S   S122      1.0  0.12599  0.52778  0.60164  1.0000
  Fe  Fe61      1.0  0.17119  0.46632  0.62700  1.0000
  S   S123      1.0  0.20478  0.46631  0.62820  1.0000
  Fe  Fe62      1.0  0.13199  0.47027  0.65642  1.0000
  S   S124      1.0  0.11996  0.46583  0.68960  1.0000
  S   S125      1.0  0.15444  0.47139  0.60008  1.0000
  S   S126      1.0  0.11224  0.47575  0.63181  1.0000
  S   S127      1.0  0.30167  0.52170  0.50090  1.0000
  Fe  Fe63      1.0  0.12131  0.59338  0.49589  1.0000
  S   S128      1.0  0.12362  0.56058  0.50948  1.0000
  S   S129      1.0  0.13450  0.61699  0.50758  1.0000
  S   S130      1.0  0.02628  0.34586  0.59530  1.0000
  C   C324      1.0  0.01339  0.37090  0.69227  1.0000
  H   H553      1.0  0.15636  0.48512  0.71550  1.0000
  H   H554      1.0  0.05353  0.37223  0.69247  1.0000
  Fe  Fe64      1.0  0.02504  0.36392  0.62112  1.0000
  S   S131      1.0  0.04045  0.38875  0.62965  1.0000
  S   S132      1.0  0.02126  0.33718  0.64443  1.0000
  C   C325      1.0  0.09993  0.41614  0.61154  1.0000
  C   C326      1.0  0.08574  0.42264  0.62709  1.0000
  C   C327      1.0  0.06767  0.41408  0.63231  1.0000
  C   C328      1.0  0.06358  0.39882  0.62220  1.0000
  C   C329      1.0  0.07775  0.39233  0.60662  1.0000
  C   C330      1.0  0.09578  0.40102  0.60129  1.0000
  H   H555      1.0  0.08865  0.43432  0.63504  1.0000
  H   H556      1.0  0.05680  0.41932  0.64428  1.0000
  H   H557      1.0  0.07483  0.38064  0.59869  1.0000
  H   H558      1.0  0.10662  0.39590  0.58921  1.0000
  C   C331      1.0  0.12674  0.53669  0.57581  1.0000
  C   C332      1.0  0.12193  0.55727  0.56992  1.0000
  C   C333      1.0  0.12143  0.56489  0.54962  1.0000
  C   C334      1.0  0.12539  0.55191  0.53503  1.0000
  C   C335      1.0  0.13051  0.53133  0.54087  1.0000
  C   C336      1.0  0.13142  0.52377  0.56114  1.0000
  H   H559      1.0  0.11835  0.56739  0.58116  1.0000
  H   H560      1.0  0.11748  0.58075  0.54533  1.0000
  H   H561      1.0  0.13374  0.52122  0.52963  1.0000
  H   H562      1.0  0.13552  0.50798  0.56549  1.0000
  H   H563      1.0  0.24880  0.43433  0.65098  1.0000
  H   H564      1.0  0.11594  0.43782  0.56188  1.0000
  C   C337      1.0  0.12175  0.50312  0.70063  1.0000
  C   C338      1.0  0.17595  0.58463  0.52547  1.0000
  C   C339      1.0  0.01030  0.40662  0.69424  1.0000
  H   H565      1.0  0.30291  0.40835  0.71214  1.0000
  H   H566      1.0  0.28851  0.47971  0.50955  1.0000
  H   H567      1.0  0.12477  0.50837  0.68485  1.0000
  S   S133      1.0  0.48157  0.38987  0.67618  1.0000
  H   H568      1.0  0.09414  0.47804  0.53270  1.0000
  H   H569      1.0  0.48740  0.36662  0.59426  1.0000
  H   H570      1.0  0.28332  0.39691  0.70504  1.0000
  C   C340      1.0  0.25988  0.42912  0.59739  1.0000
  C   C341      1.0  0.24056  0.42355  0.59831  1.0000
  C   C342      1.0  0.22343  0.43504  0.60718  1.0000
  C   C343      1.0  0.22548  0.45223  0.61527  1.0000
  C   C344      1.0  0.24478  0.45799  0.61402  1.0000
  C   C345      1.0  0.26185  0.44660  0.60499  1.0000
  H   H571      1.0  0.23882  0.41014  0.59231  1.0000
  H   H572      1.0  0.20869  0.43041  0.60807  1.0000
  H   H573      1.0  0.24651  0.47135  0.62009  1.0000
  H   H574      1.0  0.27653  0.45138  0.60388  1.0000
  H   H575      1.0  0.29537  0.50007  0.53977  1.0000
  C   C346      1.0  0.39127  0.34663  0.59999  1.0000
  C   C347      1.0  0.39370  0.35103  0.57913  1.0000
  C   C348      1.0  0.40875  0.33935  0.56780  1.0000
  C   C349      1.0  0.08370  0.49583  0.56949  1.0000
  H   H576      1.0  0.37971  0.35546  0.60887  1.0000
  Fe  Fe65      1.0  0.40071  0.64085  0.54637  1.0000
  C   C350      1.0  0.31142  0.49864  0.53508  1.0000
  C   C351      1.0  0.32450  0.48621  0.54715  1.0000
  C   C352      1.0  0.34520  0.48403  0.54100  1.0000
  C   C353      1.0  0.35282  0.49494  0.52310  1.0000
  C   C354      1.0  0.33968  0.50717  0.51086  1.0000
  Fe  Fe66      1.0  0.10931  0.63895  0.49599  1.0000
  H   H577      1.0  0.31856  0.47812  0.56110  1.0000
  H   H578      1.0  0.36886  0.49336  0.51834  1.0000
  C   C355      1.0  0.35339  0.48049  0.66252  1.0000
  C   C356      1.0  0.36435  0.46384  0.67229  1.0000
  C   C357      1.0  0.36256  0.44453  0.66840  1.0000
  C   C358      1.0  0.35035  0.44200  0.65427  1.0000
  C   C359      1.0  0.33918  0.45865  0.64487  1.0000
  C   C360      1.0  0.34043  0.47781  0.64925  1.0000
  H   H579      1.0  0.37414  0.46584  0.68281  1.0000
  H   H580      1.0  0.37116  0.43165  0.67579  1.0000
  H   H581      1.0  0.32952  0.45686  0.63424  1.0000
  H   H582      1.0  0.33181  0.49067  0.64183  1.0000
  H   H583      1.0  0.05896  0.40231  0.70641  1.0000
  C   C361      1.0  0.20669  0.48121  0.69796  1.0000
  C   C362      1.0  0.28498  0.45086  0.65146  1.0000
  H   H584      1.0  0.44796  0.37248  0.60657  1.0000
  H   H585      1.0  0.13859  0.44893  0.55601  1.0000
  C   C363      1.0  0.29124  0.42909  0.64696  1.0000
  H   H586      1.0  0.30965  0.38872  0.69693  1.0000
  C   C364      1.0  0.39925  0.60175  0.58851  1.0000
  C   C365      1.0  0.39881  0.58131  0.59519  1.0000
  C   C366      1.0  0.40356  0.57310  0.61437  1.0000
  C   C367      1.0  0.40878  0.58529  0.62711  1.0000
  C   C368      1.0  0.40896  0.60581  0.62052  1.0000
  C   C369      1.0  0.40411  0.61405  0.60133  1.0000
  H   H587      1.0  0.39494  0.57171  0.58544  1.0000
  H   H588      1.0  0.40330  0.55733  0.61925  1.0000
  H   H589      1.0  0.41281  0.61538  0.63035  1.0000
  H   H590      1.0  0.40407  0.62989  0.59650  1.0000
  C   C370      1.0  0.29828  0.40183  0.69976  1.0000
  C   C371      1.0  0.19919  0.55622  0.48888  1.0000
  H   H591      1.0  0.03335  0.53339  0.71629  1.0000
  H   H592      1.0  0.05147  0.47742  0.58717  1.0000
  C   C372      1.0  0.40349  0.33043  0.60932  1.0000
  C   C373      1.0  0.28364  0.41938  0.53020  1.0000
  N   N25       1.0  0.40277  0.47277  0.60734  1.0000
  C   C374      1.0  0.38862  0.49198  0.60896  1.0000
  C   C375      1.0  0.42202  0.47550  0.61470  1.0000
  C   C376      1.0  0.39292  0.45627  0.62071  1.0000
  C   C377      1.0  0.40582  0.46885  0.58583  1.0000
  C   C378      1.0  0.36777  0.49247  0.60213  1.0000
  C   C379      1.0  0.43398  0.49162  0.60214  1.0000
  C   C380      1.0  0.40671  0.43751  0.62840  1.0000
  C   C381      1.0  0.42163  0.45124  0.58012  1.0000
  H   H593      1.0  0.38600  0.49553  0.62469  1.0000
  H   H594      1.0  0.39514  0.50491  0.59984  1.0000
  H   H595      1.0  0.43271  0.46154  0.61568  1.0000
  H   H596      1.0  0.41884  0.47918  0.63037  1.0000
  H   H597      1.0  0.38456  0.46201  0.63440  1.0000
  H   H598      1.0  0.38147  0.45102  0.61328  1.0000
  H   H599      1.0  0.39156  0.46554  0.58155  1.0000
  H   H600      1.0  0.40906  0.48248  0.57537  1.0000
  H   H601      1.0  0.36886  0.49356  0.58561  1.0000
  H   H602      1.0  0.36011  0.47943  0.60900  1.0000
  H   H603      1.0  0.35791  0.50601  0.60667  1.0000
  H   H604      1.0  0.42629  0.50695  0.60362  1.0000
  H   H605      1.0  0.44867  0.49072  0.60784  1.0000
  H   H606      1.0  0.43737  0.48931  0.58617  1.0000
  H   H607      1.0  0.39716  0.42599  0.63600  1.0000
  H   H608      1.0  0.41549  0.44082  0.63979  1.0000
  H   H609      1.0  0.41696  0.43076  0.61634  1.0000
  H   H610      1.0  0.41476  0.43712  0.58240  1.0000
  H   H611      1.0  0.43498  0.44914  0.58810  1.0000
  H   H612      1.0  0.42757  0.45428  0.56404  1.0000
  H   H613      1.0  0.47406  0.32312  0.66063  1.0000
  H   H614      1.0  0.20246  0.51213  0.52422  1.0000
  C   C382      1.0  0.44953  0.44462  0.66624  1.0000
  C   C383      1.0  0.00772  0.41316  0.67201  1.0000
  H   H615      1.0  0.08581  0.44413  0.57783  1.0000
  C   C384      1.0  0.48705  0.60837  0.57203  1.0000
  C   C385      1.0  0.18622  0.54281  0.52379  1.0000
  N   N26       1.0  0.35244  0.58924  0.52920  1.0000
  C   C386      1.0  0.33381  0.60408  0.53299  1.0000
  C   C387      1.0  0.34803  0.57612  0.51476  1.0000
  C   C388      1.0  0.36927  0.60099  0.51945  1.0000
  C   C389      1.0  0.35724  0.57770  0.54896  1.0000
  C   C390      1.0  0.33575  0.62089  0.54524  1.0000
  C   C391      1.0  0.32962  0.56478  0.52178  1.0000
  C   C392      1.0  0.38982  0.58904  0.51355  1.0000
  C   C393      1.0  0.36985  0.55686  0.54833  1.0000
  H   H616      1.0  0.32862  0.61146  0.51861  1.0000
  H   H617      1.0  0.32106  0.59639  0.54115  1.0000
  H   H618      1.0  0.36095  0.56482  0.51086  1.0000
  H   H619      1.0  0.34544  0.58522  0.50017  1.0000
  H   H620      1.0  0.36484  0.61047  0.50572  1.0000
  H   H621      1.0  0.37235  0.61144  0.52938  1.0000
  H   H622      1.0  0.36513  0.58665  0.55700  1.0000
  H   H623      1.0  0.34305  0.57506  0.55892  1.0000
  H   H624      1.0  0.32052  0.62851  0.55002  1.0000
  H   H625      1.0  0.34296  0.61522  0.55891  1.0000
  H   H626      1.0  0.34417  0.63250  0.53598  1.0000
  H   H627      1.0  0.32932  0.55753  0.53744  1.0000
  C   C394      1.0  0.00723  0.32317  0.54280  1.0000
  H   H628      1.0  0.33001  0.55281  0.51223  1.0000
  H   H629      1.0  0.21239  0.49447  0.70188  1.0000
  H   H630      1.0  0.41071  0.34261  0.55167  1.0000
  C   C395      1.0  0.17910  0.44967  0.69349  1.0000
  H   H631      1.0  0.37970  0.55430  0.56037  1.0000
  H   H632      1.0  0.37984  0.55478  0.53427  1.0000
  H   H633      1.0  0.17586  0.51367  0.52967  1.0000
  H   H634      1.0  0.02099  0.51181  0.72055  1.0000
  C   C396      1.0  0.42121  0.32339  0.57715  1.0000
  C   C397      1.0  0.12097  0.51629  0.71497  1.0000
  C   C398      1.0  0.26959  0.45789  0.54934  1.0000
  H   H635      1.0  0.47190  0.62994  0.51105  1.0000
  H   H636      1.0  0.08399  0.45580  0.54398  1.0000
  H   H637      1.0  0.45873  0.36225  0.58368  1.0000
  H   H638      1.0  0.21583  0.47921  0.66502  1.0000
  H   H639      1.0  0.18334  0.51806  0.69499  1.0000
  H   H640      1.0  0.29900  0.46318  0.53630  1.0000
  H   H641      1.0  0.17516  0.60092  0.52618  1.0000
  H   H642      1.0  0.01314  0.37322  0.67580  1.0000
  C   C399      1.0  0.45061  0.35891  0.59890  1.0000
  H   H643      1.0  0.18519  0.47211  0.66874  1.0000
  H   H644      1.0  0.00728  0.32889  0.55722  1.0000
  C   C400      1.0  0.05872  0.46177  0.58800  1.0000
  H   H645      1.0  0.31538  0.57489  0.52004  1.0000
  H   H646      1.0  0.22534  0.53117  0.50950  1.0000
  H   H647      1.0  0.44172  0.37145  0.64263  1.0000
  C   C401      1.0  0.11870  0.48319  0.70680  1.0000
  Fe  Fe67      1.0  0.99242  0.35331  0.59854  1.0000
  C   C402      1.0  0.46478  0.58803  0.61103  1.0000
  H   H648      1.0  0.06356  0.51706  0.70378  1.0000
  N   N27       1.0  0.18455  0.48592  0.69585  1.0000
  C   C403      1.0  0.04410  0.38651  0.68798  1.0000
  H   H649      1.0  0.11932  0.48320  0.55369  1.0000
  H   H650      1.0  0.05020  0.47861  0.55252  1.0000
  H   H651      1.0  0.25478  0.40998  0.64289  1.0000
  H   H652      1.0  0.20903  0.46916  0.71064  1.0000
  H   H653      1.0  0.31475  0.42944  0.49828  1.0000
  H   H654      1.0  0.05919  0.47732  0.52681  1.0000
  H   H655      1.0  0.26309  0.39727  0.67950  1.0000
  N   N28       1.0  0.46598  0.45413  0.72178  1.0000
  H   H656      1.0  0.08025  0.49191  0.60247  1.0000
  H   H657      1.0  0.05563  0.45558  0.60400  1.0000
  H   H658      1.0  0.29654  0.38118  0.67121  1.0000
  N   N29       1.0  0.20076  0.55558  0.51081  1.0000
  H   H659      1.0  0.45507  0.36290  0.66330  1.0000
  H   H660      1.0  0.26745  0.42219  0.53615  1.0000
  H   H661      1.0  0.47280  0.37581  0.62635  1.0000
  C   C404      1.0  0.45353  0.61411  0.55892  1.0000
  H   H662      1.0  0.46697  0.32919  0.60058  1.0000
  H   H663      1.0  0.47322  0.59043  0.54369  1.0000
  H   H664      1.0  0.07793  0.49791  0.71760  1.0000
  H   H665      1.0  0.04840  0.41831  0.68566  1.0000
  H   H666      1.0  0.44367  0.41497  0.67951  1.0000
  Fe  Fe68      1.0  0.01987  0.31985  0.61889  1.0000
  H   H667      1.0  0.28212  0.44179  0.49330  1.0000
  H   H668      1.0  0.27605  0.41032  0.50260  1.0000
  S   S134      1.0  0.42368  0.63706  0.51944  1.0000
  H   H669      1.0  0.47456  0.50135  0.69670  1.0000
  H   H670      1.0  0.08423  0.51649  0.59082  1.0000
  C   C405      1.0  0.29094  0.45001  0.54010  1.0000
  H   H671      1.0  0.42357  0.46907  0.72871  1.0000
  H   H672      1.0  0.29072  0.43191  0.68668  1.0000
  C   C406      1.0  0.45494  0.42405  0.67176  1.0000
  C   C407      1.0  0.06226  0.50327  0.71460  1.0000
  H   H673      1.0  0.40008  0.59969  0.50539  1.0000
  H   H674      1.0  0.01060  0.37386  0.72855  1.0000
  C   C408      1.0  0.05594  0.40327  0.69076  1.0000
  C   C409      1.0  0.22183  0.54633  0.51431  1.0000
  H   H675      1.0  0.04382  0.38695  0.67164  1.0000
  C   C410      1.0  0.02330  0.34916  0.69708  1.0000
  H   H676      1.0  0.26156  0.46883  0.53857  1.0000
  H   H677      1.0  0.48103  0.58883  0.61079  1.0000
  H   H678      1.0  0.18766  0.54279  0.53989  1.0000
  H   H679      1.0  0.26016  0.42262  0.68342  1.0000
  H   H680      1.0  0.31389  0.42000  0.67567  1.0000
  H   H681      1.0  0.24095  0.55728  0.48688  1.0000
  C   C411      1.0  0.45330  0.35950  0.64823  1.0000
  C   C412      1.0  0.45709  0.59634  0.54658  1.0000
  N   N30       1.0  0.02310  0.38688  0.69902  1.0000
  H   H682      1.0  0.38911  0.57808  0.50326  1.0000
  H   H683      1.0  0.25347  0.55080  0.50853  1.0000
  H   H684      1.0  0.43567  0.35530  0.59682  1.0000
  H   H685      1.0  0.16668  0.51421  0.72583  1.0000
  H   H686      1.0  0.16705  0.44729  0.70621  1.0000
  N   N31       1.0  0.47949  0.34517  0.62008  1.0000
  C   C413      1.0  0.29798  0.41768  0.68113  1.0000
  C   C414      1.0  0.26556  0.41245  0.67181  1.0000
  C   C415      1.0  0.47367  0.36041  0.63463  1.0000
  H   H687      1.0  0.17665  0.46902  0.72487  1.0000
  H   H688      1.0  0.07081  0.40147  0.68138  1.0000
  H   H689      1.0  0.45523  0.47231  0.69571  1.0000
  C   C416      1.0  0.44753  0.44351  0.72494  1.0000
  C   C417      1.0  0.19747  0.57651  0.51679  1.0000
  H   H690      1.0  0.22399  0.45729  0.68159  1.0000
  C   C418      1.0  0.48976  0.32586  0.62993  1.0000
  C   C419      1.0  0.12234  0.45136  0.55421  1.0000
  H   H691      1.0  0.20693  0.57765  0.52855  1.0000
  H   H692      1.0  0.17369  0.57954  0.48489  1.0000
  C   C420      1.0  0.45821  0.59236  0.58991  1.0000
  H   H693      1.0  0.46186  0.57266  0.61765  1.0000
  H   H694      1.0  0.29674  0.47120  0.48546  1.0000
  H   H695      1.0  0.33193  0.45054  0.52755  1.0000
  H   H696      1.0  0.11789  0.46949  0.57802  1.0000
  H   H697      1.0  0.18650  0.51943  0.50436  1.0000
  C   C421      1.0  0.05565  0.48791  0.70321  1.0000
  H   H698      1.0  0.05139  0.45324  0.57905  1.0000
  H   H699      1.0  0.44373  0.44079  0.71027  1.0000
  C   C422      1.0  0.28508  0.40437  0.51496  1.0000
  H   H700      1.0  0.26352  0.45062  0.51168  1.0000
  H   H701      1.0  0.34272  0.44443  0.50351  1.0000
  H   H702      1.0  0.30085  0.39950  0.50886  1.0000
  H   H703      1.0  0.02470  0.34488  0.71319  1.0000
  C   C423      1.0  0.23903  0.55795  0.50324  1.0000
  C   C424      1.0  0.18821  0.52081  0.52001  1.0000
  N   N32       1.0  0.28764  0.41315  0.66441  1.0000
  C   C425      1.0  0.29768  0.39324  0.65841  1.0000
  C   C426      1.0  0.25065  0.41808  0.65612  1.0000
  H   H704      1.0  0.03724  0.37173  0.72482  1.0000
  H   H705      1.0  0.16124  0.47646  0.68225  1.0000
  H   H706      1.0  0.02231  0.41420  0.66246  1.0000
  C   C427      1.0  0.17736  0.47176  0.68418  1.0000
  H   H707      1.0  0.27087  0.46588  0.56211  1.0000
  H   H708      1.0  0.06612  0.48665  0.68913  1.0000
  H   H709      1.0  0.28880  0.39625  0.62788  1.0000
  H   H710      1.0  0.31412  0.39374  0.65375  1.0000
  N   N33       1.0  0.29218  0.43871  0.52242  1.0000
  C   C428      1.0  0.22089  0.47386  0.67976  1.0000
  H   H711      1.0  0.07617  0.53752  0.72074  1.0000
  H   H712      1.0  0.44160  0.59268  0.59184  1.0000
  H   H713      1.0  0.12133  0.45268  0.53797  1.0000
  C   C429      1.0  0.46409  0.45638  0.65628  1.0000
  H   H714      1.0  0.06223  0.49880  0.53754  1.0000
  H   H715      1.0  0.29630  0.45573  0.65932  1.0000
  C   C430      1.0  0.46167  0.47415  0.70938  1.0000
  S   S135      1.0  0.45815  0.48224  0.64949  1.0000
  H   H716      1.0  0.22331  0.54433  0.53059  1.0000
  H   H717      1.0  0.17200  0.57739  0.54096  1.0000
  H   H718      1.0  0.03276  0.41035  0.72765  1.0000
  H   H719      1.0  0.23554  0.41443  0.66310  1.0000
  H   H720      1.0  0.28438  0.46096  0.63715  1.0000
  H   H721      1.0  0.27004  0.45299  0.66051  1.0000
  C   C431      1.0  0.28928  0.38544  0.64164  1.0000
  H   H722      1.0  0.27425  0.38066  0.64688  1.0000
  H   H723      1.0  0.99497  0.40634  0.70275  1.0000
  C   C432      1.0  0.08164  0.45959  0.58178  1.0000
  H   H724      1.0  0.28359  0.42711  0.63426  1.0000
  H   H725      1.0  0.30749  0.42779  0.64093  1.0000
  N   N34       1.0  0.46442  0.61107  0.57713  1.0000
  H   H726      1.0  0.01631  0.41908  0.69922  1.0000
  H   H727      1.0  0.08892  0.45912  0.59550  1.0000
  C   C433      1.0  0.48395  0.44748  0.65171  1.0000
  H   H728      1.0  0.17035  0.54898  0.52220  1.0000
  H   H729      1.0  0.04029  0.49252  0.69906  1.0000
  H   H730      1.0  0.20655  0.51308  0.66516  1.0000
  C   C434      1.0  0.17268  0.48402  0.71650  1.0000
  H   H731      1.0  0.35996  0.54485  0.55191  1.0000
  H   H732      1.0  0.01366  0.33893  0.69297  1.0000
  C   C435      1.0  0.33918  0.64132  0.48517  1.0000
  H   H733      1.0  0.18382  0.52776  0.65890  1.0000
  H   H734      1.0  0.39680  0.58183  0.52698  1.0000
  C   C436      1.0  0.17837  0.56376  0.48239  1.0000
  H   H735      1.0  0.32244  0.46422  0.50538  1.0000
  H   H736      1.0  0.45159  0.60126  0.53187  1.0000
  C   C437      1.0  0.47496  0.41529  0.66776  1.0000
  C   C438      1.0  0.31891  0.50869  0.51668  1.0000
  H   H737      1.0  0.27881  0.39071  0.52273  1.0000
  H   H738      1.0  0.05659  0.47276  0.71184  1.0000
  H   H739      1.0  0.16676  0.55433  0.48984  1.0000
  C   C439      1.0  0.06250  0.48232  0.54066  1.0000
  H   H740      1.0  0.12352  0.53165  0.71012  1.0000
  H   H741      1.0  0.18835  0.50246  0.65417  1.0000
  C   C440      1.0  0.02347  0.38204  0.72142  1.0000
  H   H742      1.0  0.16303  0.51052  0.68537  1.0000
  H   H743      1.0  0.23571  0.47919  0.67923  1.0000
  H   H744      1.0  0.19401  0.44421  0.69844  1.0000
  H   H745      1.0  0.29129  0.41132  0.54305  1.0000
  H   H746      1.0  0.03820  0.34637  0.68803  1.0000
  C   C441      1.0  0.08869  0.50032  0.58958  1.0000
  H   H747      1.0  0.20232  0.58757  0.50396  1.0000
  H   H748      1.0  0.27082  0.48036  0.49308  1.0000
  H   H749      1.0  0.10499  0.49726  0.59069  1.0000
  H   H750      1.0  0.34556  0.51491  0.49669  1.0000
  H   H751      1.0  0.46427  0.57883  0.58249  1.0000
  H   H752      1.0  0.17685  0.44032  0.68213  1.0000
  H   H753      1.0  0.44839  0.58416  0.55411  1.0000
  H   H754      1.0  0.09095  0.50635  0.55741  1.0000
  H   H755      1.0  0.32102  0.41988  0.52251  1.0000
  C   C442      1.0  0.11248  0.47058  0.56319  1.0000
  C   C443      1.0  0.17953  0.50706  0.68608  1.0000
  C   C444      1.0  0.35760  0.64865  0.48421  1.0000
  H   H756      1.0  0.44998  0.48439  0.71723  1.0000
  C   C445      1.0  0.28456  0.47135  0.49828  1.0000
  H   H757      1.0  0.29871  0.44064  0.55220  1.0000
  C   C446      1.0  0.19032  0.51251  0.66489  1.0000
  N   N35       1.0  0.08975  0.47454  0.56510  1.0000
  C   C447      1.0  0.46192  0.34080  0.61086  1.0000
  C   C448      1.0  0.45747  0.62837  0.58907  1.0000
  C   C449      1.0  0.08341  0.47197  0.54536  1.0000
  H   H758      1.0  0.44103  0.62910  0.59419  1.0000
  H   H759      1.0  0.48560  0.35953  0.64452  1.0000
  C   C450      1.0  0.32824  0.44929  0.51250  1.0000
  H   H760      1.0  0.46490  0.62636  0.60285  1.0000
  H   H761      1.0  0.06735  0.50059  0.56957  1.0000
  S   S136      1.0  0.99163  0.37350  0.62210  1.0000
  H   H762      1.0  0.45728  0.62744  0.54846  1.0000
  H   H763      1.0  0.26039  0.44574  0.55549  1.0000
  H   H764      1.0  0.43698  0.61727  0.56334  1.0000
  C   C451      1.0  0.48178  0.63884  0.50076  1.0000
  C   C452      1.0  0.27997  0.44998  0.50658  1.0000
  S   S137      1.0  0.09428  0.61467  0.48697  1.0000
  H   H765      1.0  0.16435  0.58269  0.51634  1.0000
  H   H766      1.0  0.99897  0.42830  0.67053  1.0000
  C   C453      1.0  0.31387  0.43345  0.51368  1.0000
  C   C454      1.0  0.47993  0.48564  0.70234  1.0000
  H   H767      1.0  0.99747  0.37152  0.69921  1.0000
  H   H768      1.0  0.48894  0.48595  0.71457  1.0000
  H   H769      1.0  0.45051  0.33407  0.62210  1.0000
  H   H770      1.0  0.23701  0.57378  0.50603  1.0000
  H   H771      1.0  0.40128  0.32696  0.62542  1.0000
  H   H772      1.0  0.99901  0.40328  0.66613  1.0000
  H   H773      1.0  0.01980  0.32915  0.53242  1.0000
  C   C455      1.0  0.11462  0.47666  0.72734  1.0000
  H   H774      1.0  0.47552  0.41075  0.71626  1.0000
  C   C456      1.0  0.48945  0.42703  0.65764  1.0000
  H   H775      1.0  0.47877  0.44217  0.69432  1.0000
  H   H776      1.0  0.32602  0.64787  0.49413  1.0000
  C   C457      1.0  0.48741  0.41967  0.71815  1.0000
  C   C458      1.0  0.02984  0.52057  0.72776  1.0000
  H   H777      1.0  0.99317  0.32945  0.53640  1.0000
  H   H778      1.0  0.19109  0.50079  0.73081  1.0000
  C   C459      1.0  0.48247  0.44185  0.70968  1.0000
  H   H779      1.0  0.48966  0.47920  0.68964  1.0000
  C   C460      1.0  0.17512  0.49935  0.73027  1.0000
  H   H780      1.0  0.05243  0.55009  0.73169  1.0000
  C   C461      1.0  0.41847  0.31873  0.59795  1.0000
  H   H781      1.0  0.20411  0.54124  0.48390  1.0000
  C   C462      1.0  0.46132  0.64928  0.57862  1.0000
  H   H782      1.0  0.11233  0.46124  0.73223  1.0000
  H   H783      1.0  0.47759  0.65081  0.57612  1.0000
  C   C463      1.0  0.23821  0.41361  0.97425  1.0000
  H   H784      1.0  0.24966  0.44207  0.94186  1.0000
  H   H785      1.0  0.17795  0.56678  0.92995  1.0000
  S   S138      1.0  0.40650  0.54776  0.95770  1.0000
  H   H786      1.0  0.35472  0.48505  0.76905  1.0000
  Fe  Fe69      1.0  0.37263  0.48948  0.87813  1.0000
  S   S139      1.0  0.34569  0.48297  0.86572  1.0000
  S   S140      1.0  0.37086  0.52147  0.88524  1.0000
  Fe  Fe70      1.0  0.39458  0.44754  0.87278  1.0000
  S   S141      1.0  0.36889  0.43786  0.86045  1.0000
  S   S142      1.0  0.42679  0.43207  0.87157  1.0000
  Fe  Fe71      1.0  0.36725  0.46830  0.84233  1.0000
  S   S143      1.0  0.35959  0.47323  0.81044  1.0000
  Fe  Fe72      1.0  0.34912  0.45328  0.88482  1.0000
  S   S144      1.0  0.31969  0.44668  0.90387  1.0000
  S   S145      1.0  0.39390  0.47716  0.85303  1.0000
  S   S146      1.0  0.37502  0.46065  0.89880  1.0000
  C   C464      1.0  0.29305  0.42550  0.95931  1.0000
  C   C465      1.0  0.02432  0.32147  0.82863  1.0000
  S   S147      1.0  0.45866  0.34202  0.90245  1.0000
  C   C466      1.0  0.04431  0.36776  0.85264  1.0000
  Fe  Fe73      1.0  0.22498  0.39674  0.89831  1.0000
  S   S148      1.0  0.21410  0.42816  0.90410  1.0000
  S   S149      1.0  0.25883  0.38722  0.89324  1.0000
  Fe  Fe74      1.0  0.18155  0.38671  0.89685  1.0000
  S   S150      1.0  0.16819  0.41793  0.90290  1.0000
  S   S151      1.0  0.16171  0.36724  0.88490  1.0000
  Fe  Fe75      1.0  0.19380  0.42854  0.88108  1.0000
  S   S152      1.0  0.19271  0.45412  0.85613  1.0000
  Fe  Fe76      1.0  0.18986  0.41489  0.92557  1.0000
  S   S153      1.0  0.18200  0.42515  0.95635  1.0000
  S   S154      1.0  0.20613  0.39793  0.87353  1.0000
  S   S155      1.0  0.20180  0.38277  0.92132  1.0000
  Fe  Fe77      1.0  0.09236  0.50441  0.82695  1.0000
  S   S156      1.0  0.10826  0.53057  0.81253  1.0000
  S   S157      1.0  0.10110  0.48294  0.85337  1.0000
  Fe  Fe78      1.0  0.05655  0.51654  0.80437  1.0000
  S   S158      1.0  0.06891  0.54428  0.78861  1.0000
  S   S159      1.0  0.02628  0.50981  0.79883  1.0000
  Fe  Fe79      1.0  0.09817  0.52398  0.78410  1.0000
  S   S160      1.0  0.11640  0.52665  0.75307  1.0000
  Fe  Fe80      1.0  0.07785  0.54859  0.81820  1.0000
  S   S161      1.0  0.06920  0.57783  0.83207  1.0000
  S   S162      1.0  0.08520  0.49605  0.79833  1.0000
  S   S163      1.0  0.06261  0.52261  0.83415  1.0000
  C   C467      1.0  0.28614  0.52552  0.97901  1.0000
  H   H787      1.0  0.00382  0.38796  0.88300  1.0000
  S   S164      1.0  0.11043  0.61515  0.89439  1.0000
  S   S165      1.0  0.07825  0.62760  0.94531  1.0000
  H   H788      1.0  0.11042  0.48464  0.75739  1.0000
  C   C468      1.0  0.08121  0.58851  0.84876  1.0000
  C   C469      1.0  0.10151  0.58287  0.85120  1.0000
  C   C470      1.0  0.11022  0.59143  0.86499  1.0000
  C   C471      1.0  0.09877  0.60562  0.87662  1.0000
  C   C472      1.0  0.07851  0.61132  0.87411  1.0000
  C   C473      1.0  0.06986  0.60292  0.86016  1.0000
  H   H789      1.0  0.11052  0.57204  0.84236  1.0000
  H   H790      1.0  0.06952  0.62227  0.88283  1.0000
  H   H791      1.0  0.05420  0.60752  0.85829  1.0000
  C   C474      1.0  0.13437  0.34290  0.87899  1.0000
  H   H792      1.0  0.34729  0.57726  0.84638  1.0000
  C   C475      1.0  0.02211  0.48473  0.79959  1.0000
  C   C476      1.0  0.03737  0.46886  0.80290  1.0000
  H   H793      1.0  0.42785  0.37126  0.80522  1.0000
  H   H794      1.0  0.05170  0.47175  0.80618  1.0000
  H   H795      1.0  0.20790  0.48969  0.93513  1.0000
  H   H796      1.0  0.47113  0.44186  0.75205  1.0000
  S   S166      1.0  0.36888  0.59931  0.96392  1.0000
  C   C477      1.0  0.27368  0.41548  0.96240  1.0000
  H   H797      1.0  0.03755  0.40708  0.85130  1.0000
  H   H798      1.0  0.29576  0.52670  0.94734  1.0000
  C   C478      1.0  0.16800  0.46595  0.85594  1.0000
  C   C479      1.0  0.15444  0.46455  0.87345  1.0000
  C   C480      1.0  0.13391  0.47057  0.87268  1.0000
  C   C481      1.0  0.12699  0.47861  0.85449  1.0000
  C   C482      1.0  0.14070  0.48153  0.83721  1.0000
  C   C483      1.0  0.16127  0.47511  0.83792  1.0000
  H   H799      1.0  0.15971  0.45825  0.88751  1.0000
  H   H800      1.0  0.12337  0.46837  0.88611  1.0000
  H   H801      1.0  0.13537  0.48782  0.82312  1.0000
  H   H802      1.0  0.17179  0.47636  0.82437  1.0000
  C   C484      1.0  0.14454  0.34915  0.89318  1.0000
  C   C485      1.0  0.14089  0.34069  0.91316  1.0000
  H   H803      1.0  0.14858  0.34516  0.92429  1.0000
  Fe  Fe81      1.0  0.48738  0.32645  0.88684  1.0000
  N   N36       1.0  0.45839  0.38140  0.82430  1.0000
  H   H804      1.0  0.12097  0.57929  0.92247  1.0000
  S   S167      1.0  0.41739  0.51092  0.73692  1.0000
  C   C486      1.0  0.30334  0.42998  0.90007  1.0000
  C   C487      1.0  0.30996  0.41318  0.89012  1.0000
  C   C488      1.0  0.29631  0.39991  0.88843  1.0000
  C   C489      1.0  0.27595  0.40347  0.89646  1.0000
  C   C490      1.0  0.26942  0.42040  0.90616  1.0000
  C   C491      1.0  0.28302  0.43352  0.90796  1.0000
  H   H805      1.0  0.32562  0.41021  0.88406  1.0000
  H   H806      1.0  0.30153  0.38688  0.88082  1.0000
  H   H807      1.0  0.25390  0.42335  0.91237  1.0000
  H   H808      1.0  0.27775  0.44664  0.91537  1.0000
  C   C492      1.0  0.43508  0.40729  0.88150  1.0000
  C   C493      1.0  0.45585  0.40080  0.87968  1.0000
  C   C494      1.0  0.46322  0.38087  0.88618  1.0000
  C   C495      1.0  0.44986  0.36727  0.89465  1.0000
  C   C496      1.0  0.42909  0.37388  0.89699  1.0000
  C   C497      1.0  0.42169  0.39380  0.89028  1.0000
  H   H809      1.0  0.46631  0.41121  0.87309  1.0000
  C   C498      1.0  0.02519  0.40072  0.84627  1.0000
  H   H810      1.0  0.41868  0.36347  0.90372  1.0000
  H   H811      1.0  0.40566  0.39865  0.89182  1.0000
  C   C499      1.0  0.39606  0.54062  0.93779  1.0000
  C   C500      1.0  0.40034  0.52072  0.93361  1.0000
  C   C501      1.0  0.39263  0.51457  0.91769  1.0000
  C   C502      1.0  0.38083  0.52839  0.90554  1.0000
  C   C503      1.0  0.37659  0.54831  0.90967  1.0000
  C   C504      1.0  0.38398  0.55436  0.92583  1.0000
  H   H812      1.0  0.40972  0.50999  0.94270  1.0000
  H   H813      1.0  0.39604  0.49920  0.91467  1.0000
  H   H814      1.0  0.36748  0.55911  0.90038  1.0000
  H   H815      1.0  0.38069  0.56976  0.92877  1.0000
  C   C505      1.0  0.40153  0.49937  0.75684  1.0000
  C   C506      1.0  0.40826  0.49413  0.77569  1.0000
  C   C507      1.0  0.39576  0.48564  0.79211  1.0000
  C   C508      1.0  0.37630  0.48257  0.78988  1.0000
  C   C509      1.0  0.36972  0.48747  0.77095  1.0000
  C   C510      1.0  0.38230  0.49576  0.75446  1.0000
  H   H816      1.0  0.42314  0.49682  0.77765  1.0000
  H   H817      1.0  0.40113  0.48160  0.80651  1.0000
  S   S168      1.0  0.12244  0.64346  0.93435  1.0000
  H   H818      1.0  0.47252  0.48615  0.74892  1.0000
  H   H819      1.0  0.47768  0.38125  0.84703  1.0000
  C   C511      1.0  0.16586  0.53457  0.95790  1.0000
  C   C512      1.0  0.24829  0.44556  0.95746  1.0000
  C   C513      1.0  0.35868  0.56385  0.84515  1.0000
  H   H820      1.0  0.02938  0.38943  0.88393  1.0000
  H   H821      1.0  0.17988  0.61623  0.96945  1.0000
  H   H822      1.0  0.36866  0.51976  0.84324  1.0000
  S   S169      1.0  0.41236  0.59715  0.98132  1.0000
  C   C514      1.0  0.00026  0.46104  0.79433  1.0000
  N   N37       1.0  0.27021  0.45572  0.84309  1.0000
  C   C515      1.0  0.27441  0.45990  0.82064  1.0000
  C   C516      1.0  0.26793  0.43383  0.84848  1.0000
  C   C517      1.0  0.28721  0.46025  0.85299  1.0000
  C   C518      1.0  0.25131  0.46880  0.85015  1.0000
  C   C519      1.0  0.27982  0.48097  0.81213  1.0000
  C   C520      1.0  0.24805  0.42755  0.84459  1.0000
  C   C521      1.0  0.30822  0.44943  0.84615  1.0000
  C   C522      1.0  0.24435  0.46602  0.87291  1.0000
  H   H823      1.0  0.28686  0.44893  0.81464  1.0000
  H   H824      1.0  0.26114  0.45788  0.81363  1.0000
  H   H825      1.0  0.26950  0.42884  0.86441  1.0000
  H   H826      1.0  0.28029  0.42436  0.84028  1.0000
  H   H827      1.0  0.28819  0.47658  0.85103  1.0000
  H   H828      1.0  0.28437  0.45614  0.86947  1.0000
  H   H829      1.0  0.25333  0.48485  0.84636  1.0000
  H   H830      1.0  0.23850  0.46734  0.84213  1.0000
  H   H831      1.0  0.26728  0.49287  0.81552  1.0000
  H   H832      1.0  0.29367  0.48413  0.81728  1.0000
  H   H833      1.0  0.28290  0.48190  0.79557  1.0000
  H   H834      1.0  0.23513  0.43354  0.85495  1.0000
  H   H835      1.0  0.24500  0.43211  0.82893  1.0000
  H   H836      1.0  0.24897  0.41099  0.84756  1.0000
  H   H837      1.0  0.31358  0.45423  0.83025  1.0000
  H   H838      1.0  0.30868  0.43296  0.84877  1.0000
  H   H839      1.0  0.31922  0.45321  0.85514  1.0000
  H   H840      1.0  0.25097  0.47630  0.88058  1.0000
  H   H841      1.0  0.24818  0.45061  0.88011  1.0000
  H   H842      1.0  0.22766  0.46909  0.87564  1.0000
  N   N38       1.0  0.12397  0.41666  0.85080  1.0000
  C   C523      1.0  0.10996  0.42322  0.86871  1.0000
  C   C524      1.0  0.11860  0.43100  0.83274  1.0000
  C   C525      1.0  0.14526  0.41789  0.85430  1.0000
  C   C526      1.0  0.12123  0.39544  0.84920  1.0000
  C   C527      1.0  0.11407  0.41168  0.88928  1.0000
  C   C528      1.0  0.09695  0.43202  0.82777  1.0000
  C   C529      1.0  0.16117  0.42048  0.83577  1.0000
  C   C530      1.0  0.13286  0.38597  0.83100  1.0000
  H   H843      1.0  0.11028  0.43936  0.86960  1.0000
  H   H844      1.0  0.09410  0.42177  0.86739  1.0000
  H   H845      1.0  0.12872  0.42775  0.81899  1.0000
  H   H846      1.0  0.12084  0.44643  0.83467  1.0000
  H   H847      1.0  0.14567  0.43072  0.86251  1.0000
  H   H848      1.0  0.15113  0.40451  0.86411  1.0000
  H   H849      1.0  0.12619  0.38535  0.86240  1.0000
  H   H850      1.0  0.10508  0.39353  0.85016  1.0000
  H   H851      1.0  0.10361  0.41871  0.90117  1.0000
  H   H852      1.0  0.11130  0.39586  0.89076  1.0000
  H   H853      1.0  0.12949  0.41223  0.89251  1.0000
  H   H854      1.0  0.09318  0.41715  0.82603  1.0000
  H   H855      1.0  0.08572  0.43917  0.83901  1.0000
  H   H856      1.0  0.09553  0.44168  0.81329  1.0000
  H   H857      1.0  0.16210  0.40888  0.82583  1.0000
  H   H858      1.0  0.14823  0.37921  0.83410  1.0000
  H   H859      1.0  0.13379  0.39639  0.81699  1.0000
  H   H860      1.0  0.12474  0.37396  0.82792  1.0000
  N   N39       1.0  0.08109  0.53645  0.89555  1.0000
  C   C531      1.0  0.08952  0.52073  0.91114  1.0000
  C   C532      1.0  0.08560  0.55653  0.89913  1.0000
  C   C533      1.0  0.09049  0.53265  0.87475  1.0000
  C   C534      1.0  0.05873  0.53595  0.89709  1.0000
  C   C535      1.0  0.08793  0.49890  0.90864  1.0000
  C   C536      1.0  0.07591  0.56385  0.91915  1.0000
  C   C537      1.0  0.11371  0.52946  0.87116  1.0000
  C   C538      1.0  0.04703  0.55297  0.88417  1.0000
  H   H861      1.0  0.10559  0.52196  0.91188  1.0000
  H   H862      1.0  0.08163  0.52299  0.92630  1.0000
  H   H863      1.0  0.08088  0.56823  0.88709  1.0000
  H   H864      1.0  0.10205  0.55670  0.89852  1.0000
  H   H865      1.0  0.08509  0.51951  0.87033  1.0000
  H   H866      1.0  0.08569  0.54531  0.86351  1.0000
  H   H867      1.0  0.05564  0.52180  0.89249  1.0000
  H   H868      1.0  0.05155  0.53600  0.91285  1.0000
  H   H869      1.0  0.09545  0.48872  0.92037  1.0000
  H   H870      1.0  0.07207  0.49592  0.91055  1.0000
  H   H871      1.0  0.09555  0.49473  0.89406  1.0000
  H   H872      1.0  0.07961  0.57920  0.91926  1.0000
  H   H873      1.0  0.05929  0.56491  0.92112  1.0000
  H   H874      1.0  0.08203  0.55442  0.93211  1.0000
  H   H875      1.0  0.11855  0.52684  0.85536  1.0000
  H   H876      1.0  0.12025  0.51607  0.88047  1.0000
  H   H877      1.0  0.12030  0.54280  0.87332  1.0000
  H   H878      1.0  0.04732  0.56787  0.88875  1.0000
  H   H879      1.0  0.03099  0.55050  0.88596  1.0000
  H   H880      1.0  0.05262  0.55328  0.86804  1.0000
  C   C539      1.0  0.02102  0.35981  0.89186  1.0000
  C   C540      1.0  0.00102  0.34194  0.80771  1.0000
  H   H881      1.0  0.29225  0.43900  0.94811  1.0000
  C   C541      1.0  0.02076  0.33452  0.81130  1.0000
  C   C542      1.0  0.14636  0.56340  0.97381  1.0000
  H   H882      1.0  0.23203  0.45059  0.96133  1.0000
  H   H883      1.0  0.49007  0.41774  0.73401  1.0000
  H   H884      1.0  0.00816  0.37565  0.83208  1.0000
  H   H885      1.0  0.37344  0.57425  0.81611  1.0000
  H   H886      1.0  0.42868  0.64512  0.96135  1.0000
  H   H887      1.0  0.45292  0.34014  0.83232  1.0000
  H   H888      1.0  0.30568  0.41497  0.95295  1.0000
  C   C543      1.0  0.01917  0.38034  0.87884  1.0000
  H   H889      1.0  0.33785  0.56513  0.93705  1.0000
  H   H890      1.0  0.12218  0.58643  0.94627  1.0000
  H   H891      1.0  0.20067  0.55079  0.95478  1.0000
  H   H892      1.0  0.39299  0.55524  0.79094  1.0000
  C   C544      1.0  0.36771  0.54344  0.78324  1.0000
  H   H893      1.0  0.17175  0.53141  0.97261  1.0000
  H   H894      1.0  0.07414  0.50957  0.74897  1.0000
  Fe  Fe82      1.0  0.39376  0.57549  0.97265  1.0000
  H   H895      1.0  0.22095  0.39705  0.95949  1.0000
  H   H896      1.0  0.42853  0.37309  0.83583  1.0000
  H   H897      1.0  0.37470  0.54455  0.76736  1.0000
  H   H898      1.0  0.04907  0.63654  0.98024  1.0000
  H   H899      1.0  0.33547  0.52843  0.84025  1.0000
  C   C545      1.0  0.14158  0.55841  0.93938  1.0000
  H   H900      1.0  0.01259  0.36111  0.90698  1.0000
  C   C546      1.0  0.13142  0.57985  0.93343  1.0000
  H   H901      1.0  0.11314  0.32404  0.87348  1.0000
  H   H902      1.0  0.12912  0.54931  0.94472  1.0000
  N   N40       1.0  0.02382  0.37974  0.85658  1.0000
  H   H903      1.0  0.42140  0.40737  0.83870  1.0000
  C   C547      1.0  0.34437  0.52587  0.82560  1.0000
  H   H904      1.0  0.07398  0.54561  0.74464  1.0000
  H   H905      1.0  0.30479  0.50432  0.96204  1.0000
  C   C548      1.0  0.42827  0.45387  0.73603  1.0000
  H   H906      1.0  0.35181  0.55085  0.85358  1.0000
  H   H907      1.0  0.45704  0.41047  0.83426  1.0000
  C   C549      1.0  0.11350  0.48990  0.74163  1.0000
  C   C550      1.0  0.42918  0.41102  0.82336  1.0000
  H   H908      1.0  0.35626  0.55672  0.78458  1.0000
  C   C551      1.0  0.03419  0.44920  0.80156  1.0000
  H   H909      1.0  0.16682  0.58513  0.94578  1.0000
  H   H910      1.0  0.99437  0.41255  0.84049  1.0000
  H   H911      1.0  0.45030  0.42854  0.73375  1.0000
  H   H912      1.0  0.39275  0.53848  0.84551  1.0000
  C   C552      1.0  0.01567  0.44525  0.79716  1.0000
  H   H913      1.0  0.04615  0.43703  0.80379  1.0000
  C   C553      1.0  0.05992  0.51880  0.74526  1.0000
  C   C554      1.0  0.44396  0.37101  0.83997  1.0000
  C   C555      1.0  0.18875  0.44826  0.96021  1.0000
  H   H914      1.0  0.40334  0.55479  0.82524  1.0000
  H   H915      1.0  0.15851  0.43556  0.82719  1.0000
  H   H916      1.0  0.29735  0.42882  0.97341  1.0000
  C   C556      1.0  0.36720  0.52390  0.82706  1.0000
  C   C557      1.0  0.04323  0.48917  0.74636  1.0000
  C   C558      1.0  0.11673  0.50978  0.73552  1.0000
  H   H917      1.0  0.40761  0.50918  0.82429  1.0000
  H   H918      1.0  0.14926  0.55268  0.92532  1.0000
  H   H919      1.0  0.43802  0.38930  0.78559  1.0000
  C   C559      1.0  0.39651  0.54058  0.82892  1.0000
  H   H920      1.0  0.37458  0.51064  0.81982  1.0000
  H   H921      1.0  0.34070  0.51138  0.82249  1.0000
  H   H922      1.0  0.42175  0.40511  0.81252  1.0000
  H   H923      1.0  0.14394  0.62619  0.96534  1.0000
  H   H924      1.0  0.19644  0.45852  0.92902  1.0000
  H   H925      1.0  0.46270  0.34539  0.85420  1.0000
  C   C560      1.0  0.41342  0.52355  0.82397  1.0000
  H   H926      1.0  0.20145  0.57709  0.95032  1.0000
  N   N41       1.0  0.15627  0.55610  0.95445  1.0000
  C   C561      1.0  0.19582  0.46175  0.94415  1.0000
  C   C562      1.0  0.12066  0.32868  0.88464  1.0000
  H   H927      1.0  0.17619  0.41934  0.84087  1.0000
  H   H928      1.0  0.42971  0.45414  0.75198  1.0000
  C   C563      1.0  0.17263  0.56895  0.94586  1.0000
  N   N42       1.0  0.37781  0.54192  0.81883  1.0000
  H   H929      1.0  0.48946  0.45691  0.73913  1.0000
  H   H930      1.0  0.42217  0.52738  0.80914  1.0000
  H   H931      1.0  0.03330  0.33911  0.80075  1.0000
  H   H932      1.0  0.18808  0.56672  0.97289  1.0000
  H   H933      1.0  0.36061  0.52946  0.78603  1.0000
  N   N43       1.0  0.25457  0.42707  0.97131  1.0000
  H   H934      1.0  0.42410  0.52133  0.83525  1.0000
  H   H935      1.0  0.42691  0.42760  0.82012  1.0000
  C   C564      1.0  0.47881  0.37745  0.83157  1.0000
  H   H936      1.0  0.34869  0.55875  0.96023  1.0000
  C   C565      1.0  0.45197  0.40374  0.82216  1.0000
  C   C566      1.0  0.19160  0.56547  0.95675  1.0000
  H   H937      1.0  0.45927  0.41111  0.80784  1.0000
  H   H938      1.0  0.43703  0.34220  0.85557  1.0000
  C   C567      1.0  0.38434  0.54242  0.79662  1.0000
  H   H939      1.0  0.39469  0.52878  0.79327  1.0000
  C   C568      1.0  0.01531  0.52917  0.74503  1.0000
  H   H940      1.0  0.44224  0.37788  0.85400  1.0000
  H   H941      1.0  0.04393  0.35175  0.85891  1.0000
  C   C569      1.0  0.31759  0.55121  0.96173  1.0000
  C   C570      1.0  0.33465  0.56406  0.95360  1.0000
  C   C571      1.0  0.00353  0.48072  0.79544  1.0000
  H   H942      1.0  0.99754  0.63069  0.95782  1.0000
  C   C572      1.0  0.00866  0.37011  0.84825  1.0000
  C   C573      1.0  0.06576  0.53913  0.73473  1.0000
  H   H943      1.0  0.17920  0.53165  0.94653  1.0000
  H   H944      1.0  0.16833  0.49441  0.74574  1.0000
  H   H945      1.0  0.99844  0.35204  0.79435  1.0000
  H   H946      1.0  0.99166  0.49292  0.79285  1.0000
  H   H947      1.0  0.05554  0.37316  0.86030  1.0000
  H   H948      1.0  0.02907  0.40080  0.82985  1.0000
  C   C574      1.0  0.06086  0.47386  0.75311  1.0000
  H   H949      1.0  0.44346  0.36273  0.78454  1.0000
  H   H950      1.0  0.44378  0.56402  0.96803  1.0000
  H   H951      1.0  0.15095  0.51725  0.94095  1.0000
  H   H952      1.0  0.14036  0.57943  0.97115  1.0000
  C   C575      1.0  0.11719  0.32008  0.90458  1.0000
  H   H953      1.0  0.32787  0.49478  0.93790  1.0000
  C   C576      1.0  0.34097  0.50241  0.93889  1.0000
  H   H954      1.0  0.32714  0.53204  0.92863  1.0000
  H   H955      1.0  0.35131  0.56404  0.81554  1.0000
  S   S170      1.0  0.01252  0.42047  0.79495  1.0000
  H   H956      1.0  0.04198  0.36466  0.82120  1.0000
  H   H957      1.0  0.06594  0.35541  0.82921  1.0000
  C   C577      1.0  0.20215  0.47952  0.94766  1.0000
  H   H958      1.0  0.14236  0.59001  0.92589  1.0000
  C   C578      1.0  0.12751  0.32614  0.91873  1.0000
  C   C579      1.0  0.33495  0.52468  0.94160  1.0000
  C   C580      1.0  0.15284  0.51807  0.95671  1.0000
  H   H959      1.0  0.35088  0.50133  0.92449  1.0000
  H   H960      1.0  0.12594  0.58703  0.86667  1.0000
  C   C581      1.0  0.05313  0.36759  0.83044  1.0000
  H   H961      1.0  0.05908  0.38180  0.82410  1.0000
  H   H962      1.0  0.28189  0.54177  0.97967  1.0000
  C   C582      1.0  0.44125  0.37453  0.79461  1.0000
  H   H963      1.0  0.06597  0.47784  0.76661  1.0000
  S   S171      1.0  0.21103  0.50579  0.97068  1.0000
  H   H964      1.0  0.00638  0.40805  0.73467  1.0000
  C   C583      1.0  0.23408  0.40553  0.95542  1.0000
  H   H965      1.0  0.24675  0.39487  0.94945  1.0000
  H   H966      1.0  0.34971  0.49423  0.95077  1.0000
  N   N44       1.0  0.32221  0.52891  0.96099  1.0000
  C   C584      1.0  0.44971  0.34838  0.84553  1.0000
  H   H967      1.0  0.03315  0.48145  0.73943  1.0000
  C   C585      1.0  0.46313  0.47374  0.75241  1.0000
  H   H968      1.0  0.22997  0.41774  0.94358  1.0000
  H   H969      1.0  0.00979  0.43094  0.84199  1.0000
  H   H970      1.0  0.46367  0.57901  0.96174  1.0000
  Fe  Fe83      1.0  0.38598  0.62053  0.97527  1.0000
  H   H971      1.0  0.03392  0.49296  0.76038  1.0000
  H   H972      1.0  0.33882  0.53721  0.81373  1.0000
  H   H973      1.0  0.00210  0.53824  0.73882  1.0000
  H   H974      1.0  0.46811  0.35778  0.80531  1.0000
  H   H975      1.0  0.47084  0.38171  0.79320  1.0000
  H   H976      1.0  0.13729  0.34893  0.86344  1.0000
  H   H977      1.0  0.32971  0.57954  0.95728  1.0000
  H   H978      1.0  0.03698  0.35461  0.89393  1.0000
  C   C586      1.0  0.46049  0.37344  0.80449  1.0000
  H   H979      1.0  0.27211  0.41196  0.94735  1.0000
  H   H980      1.0  0.13788  0.51989  0.96564  1.0000
  H   H981      1.0  0.37151  0.56627  0.85254  1.0000
  C   C587      1.0  0.36517  0.56141  0.82285  1.0000
  H   H982      1.0  0.01500  0.34822  0.88542  1.0000
  H   H983      1.0  0.34919  0.53124  0.93954  1.0000
  Fe  Fe84      1.0  0.10118  0.63606  0.96197  1.0000
  H   H984      1.0  0.46254  0.46924  0.76880  1.0000
  H   H985      1.0  0.48480  0.36133  0.83242  1.0000
  H   H986      1.0  0.05122  0.52114  0.76008  1.0000
  C   C588      1.0  0.45943  0.56483  0.97045  1.0000
  H   H987      1.0  0.27681  0.40079  0.97173  1.0000
  C   C589      1.0  0.30250  0.52088  0.96137  1.0000
  C   C590      1.0  0.00607  0.41589  0.84884  1.0000
  C   C591      1.0  0.47303  0.45572  0.74146  1.0000
  Fe  Fe85      1.0  0.09838  0.63708  0.91732  1.0000
  H   H988      1.0  0.30496  0.55775  0.95301  1.0000
  H   H989      1.0  0.16074  0.50335  0.96245  1.0000
  H   H990      1.0  0.24839  0.47677  0.96202  1.0000
  H   H991      1.0  0.02221  0.53928  0.75259  1.0000
  H   H992      1.0  0.01319  0.35374  0.84879  1.0000
  H   H993      1.0  0.02463  0.39391  0.74923  1.0000
  H   H994      1.0  0.26546  0.46910  0.94135  1.0000
  C   C592      1.0  0.20142  0.48402  0.96723  1.0000
  H   H995      1.0  0.36294  0.52468  0.96637  1.0000
  H   H996      1.0  0.27179  0.46190  0.96605  1.0000
  H   H997      1.0  0.47925  0.37605  0.88472  1.0000
  H   H998      1.0  0.37696  0.49971  0.74000  1.0000
  C   C593      1.0  0.02183  0.39976  0.73364  1.0000
  H   H999      1.0  0.05588  0.45878  0.75662  1.0000
  H   H1000     1.0  0.44761  0.47945  0.74962  1.0000
  C   C594      1.0  0.25927  0.46406  0.95698  1.0000
  H   H1001     1.0  0.00004  0.41716  0.86466  1.0000
  H   H1002     1.0  0.46961  0.55245  0.96400  1.0000
  H   H1003     1.0  0.07385  0.47239  0.74135  1.0000
  C   C595      1.0  0.35312  0.52297  0.98078  1.0000
  H   H1004     1.0  0.00936  0.51731  0.75628  1.0000
  H   H1005     1.0  0.11675  0.55275  0.97629  1.0000
  C   C596      1.0  0.33179  0.51861  0.97903  1.0000
  H   H1006     1.0  0.22350  0.42152  0.98025  1.0000
  C   C597      1.0  0.14798  0.61672  0.97859  1.0000
  H   H1007     1.0  0.33193  0.50211  0.98062  1.0000
  C   C598      1.0  0.16831  0.61109  0.98092  1.0000
  H   H1008     1.0  0.27226  0.51950  0.97712  1.0000
  H   H1009     1.0  0.31228  0.55440  0.97731  1.0000
  C   C599      1.0  0.18751  0.45303  0.97978  1.0000
  H   H1010     1.0  0.41570  0.44514  0.73591  1.0000
  N   N45       1.0  0.04884  0.50793  0.73350  1.0000
  H   H1011     1.0  0.12510  0.31956  0.93418  1.0000
  Fe  Fe86      1.0  0.01545  0.83358  0.11632  1.0000
  S   S172      1.0  0.02752  0.80614  0.13520  1.0000
  S   S173      1.0  0.03272  0.84597  0.08717  1.0000
  Fe  Fe87      1.0  0.01551  0.82303  0.16145  1.0000
  S   S174      1.0  0.03543  0.82024  0.18641  1.0000
  H   H1012     1.0  0.13150  0.65663  0.98435  1.0000
  Fe  Fe88      1.0  0.13791  0.81616  0.02422  1.0000
  S   S175      1.0  0.16324  0.79172  0.01761  1.0000
  S   S176      1.0  0.12331  0.81411  0.05660  1.0000
  H   H1013     1.0  0.29406  0.83086  0.02769  1.0000
  Fe  Fe89      1.0  0.17877  0.81582  0.99772  1.0000
  S   S177      1.0  0.21206  0.82072  0.99245  1.0000
  S   S178      1.0  0.12177  0.81213  0.99904  1.0000
  S   S179      1.0  0.15452  0.84052  0.00621  1.0000
  Fe  Fe90      1.0  0.46673  0.90874  0.14674  1.0000
  S   S180      1.0  0.43741  0.92232  0.16224  1.0000
  H   H1014     1.0  0.01917  0.74568  0.09039  1.0000
  Fe  Fe91      1.0  0.45143  0.86871  0.14911  1.0000
  S   S181      1.0  0.42144  0.87886  0.16546  1.0000
  S   S182      1.0  0.45687  0.83897  0.13786  1.0000
  Fe  Fe92      1.0  0.42252  0.90620  0.14279  1.0000
  S   S183      1.0  0.39642  0.91975  0.12535  1.0000
  Fe  Fe93      1.0  0.43945  0.89348  0.18329  1.0000
  S   S184      1.0  0.45176  0.89522  0.12559  1.0000
  S   S185      1.0  0.46956  0.88076  0.16859  1.0000
  Fe  Fe94      1.0  0.29178  0.87184  0.03887  1.0000
  S   S186      1.0  0.30000  0.88888  0.00886  1.0000
  S   S187      1.0  0.26190  0.85875  0.04707  1.0000
  Fe  Fe95      1.0  0.33150  0.87812  0.05416  1.0000
  S   S188      1.0  0.34231  0.89548  0.02492  1.0000
  S   S189      1.0  0.35233  0.86804  0.07849  1.0000
  Fe  Fe96      1.0  0.31043  0.91043  0.02576  1.0000
  S   S190      1.0  0.30239  0.94333  0.01615  1.0000
  Fe  Fe97      1.0  0.33097  0.87251  0.01061  1.0000
  H   H1015     1.0  0.13361  0.70369  0.00332  1.0000
  S   S191      1.0  0.30001  0.89479  0.05615  1.0000
  S   S192      1.0  0.32232  0.85369  0.03958  1.0000
  H   H1016     1.0  0.22686  0.89016  0.00662  1.0000
  C   C600      1.0  0.37041  0.83593  0.00898  1.0000
  C   C601      1.0  0.38454  0.81946  0.01400  1.0000
  C   C602      1.0  0.39560  0.80885  0.99906  1.0000
  S   S193      1.0  0.41319  0.78835  0.00549  1.0000
  H   H1017     1.0  0.41332  0.83423  0.03651  1.0000
  H   H1018     1.0  0.36219  0.84429  0.02054  1.0000
  H   H1019     1.0  0.46757  0.96996  0.14246  1.0000
  H   H1020     1.0  0.48499  0.82769  0.10494  1.0000
  H   H1021     1.0  0.46036  0.78756  0.08845  1.0000
  N   N46       1.0  0.14916  0.67486  0.99671  1.0000
  C   C603      1.0  0.04492  0.86608  0.22680  1.0000
  S   S194      1.0  0.99612  0.76366  0.13398  1.0000
  C   C604      1.0  0.38604  0.90559  0.11037  1.0000
  C   C605      1.0  0.37103  0.91505  0.09867  1.0000
  C   C606      1.0  0.36112  0.90394  0.08811  1.0000
  C   C607      1.0  0.36598  0.88316  0.08931  1.0000
  C   C608      1.0  0.38129  0.87378  0.10068  1.0000
  C   C609      1.0  0.39137  0.88489  0.11103  1.0000
  H   H1022     1.0  0.36678  0.93104  0.09805  1.0000
  H   H1023     1.0  0.34933  0.91137  0.07949  1.0000
  H   H1024     1.0  0.38497  0.85773  0.10195  1.0000
  H   H1025     1.0  0.40282  0.87737  0.12003  1.0000
  H   H1026     1.0  0.46826  0.98284  0.11770  1.0000
  S   S195      1.0  0.43191  0.89348  0.21703  1.0000
  C   C610      1.0  0.03139  0.87146  0.21248  1.0000
  C   C611      1.0  0.33252  0.80612  0.00568  1.0000
  H   H1027     1.0  0.03462  0.75862  0.04591  1.0000
  H   H1028     1.0  0.43638  0.81733  0.03186  1.0000
  H   H1029     1.0  0.48862  0.97332  0.20129  1.0000
  H   H1030     1.0  0.05008  0.75119  0.06515  1.0000
  C   C612      1.0  0.16095  0.65666  0.00704  1.0000
  H   H1031     1.0  0.02363  0.73054  0.07060  1.0000
  C   C613      1.0  0.22549  0.83154  0.00784  1.0000
  C   C614      1.0  0.21801  0.83411  0.02767  1.0000
  C   C615      1.0  0.22928  0.84256  0.03938  1.0000
  C   C616      1.0  0.24798  0.84892  0.03135  1.0000
  C   C617      1.0  0.25518  0.84690  0.01132  1.0000
  C   C618      1.0  0.24414  0.83800  0.99975  1.0000
  H   H1032     1.0  0.20369  0.82928  0.03413  1.0000
  H   H1033     1.0  0.22351  0.84410  0.05482  1.0000
  H   H1034     1.0  0.26927  0.85216  0.00484  1.0000
  H   H1035     1.0  0.35291  0.97294  0.00892  1.0000
  C   C619      1.0  0.03873  0.83838  0.20157  1.0000
  H   H1036     1.0  0.99527  0.72231  0.13073  1.0000
  H   H1037     1.0  0.48642  0.97296  0.16717  1.0000
  Fe  Fe98      1.0  0.14753  0.78851  0.99147  1.0000
  H   H1038     1.0  0.35143  0.77704  0.00944  1.0000
  C   C620      1.0  0.01950  0.74618  0.07403  1.0000
  C   C621      1.0  0.12924  0.66933  0.99334  1.0000
  C   C622      1.0  0.05754  0.83610  0.07839  1.0000
  C   C623      1.0  0.06849  0.82067  0.08973  1.0000
  C   C624      1.0  0.08848  0.81376  0.08260  1.0000
  C   C625      1.0  0.09758  0.82190  0.06394  1.0000
  C   C626      1.0  0.08639  0.83679  0.05224  1.0000
  C   C627      1.0  0.06649  0.84396  0.05953  1.0000
  H   H1039     1.0  0.06171  0.81422  0.10409  1.0000
  H   H1040     1.0  0.09703  0.80214  0.09166  1.0000
  H   H1041     1.0  0.09328  0.84321  0.03786  1.0000
  H   H1042     1.0  0.05809  0.85581  0.05060  1.0000
  H   H1043     1.0  0.03269  0.79805  0.09043  1.0000
  H   H1044     1.0  0.00960  0.81078  0.22553  1.0000
  H   H1045     1.0  0.39974  0.82061  0.10297  1.0000
  H   H1046     1.0  0.05074  0.80514  0.05958  1.0000
  H   H1047     1.0  0.01855  0.82172  0.05137  1.0000
  H   H1048     1.0  0.38067  0.89552  0.18762  1.0000
  C   C628      1.0  0.05255  0.83313  0.21558  1.0000
  H   H1049     1.0  0.40907  0.84435  0.07446  1.0000
  H   H1050     1.0  0.48056  0.83987  0.06845  1.0000
  H   H1051     1.0  0.44863  0.84139  0.09487  1.0000
  H   H1052     1.0  0.06525  0.77660  0.09143  1.0000
  C   C629      1.0  0.06956  0.77999  0.04797  1.0000
  H   H1053     1.0  0.04871  0.77200  0.11388  1.0000
  H   H1054     1.0  0.48853  0.91838  0.17827  1.0000
  H   H1055     1.0  0.29799  0.78584  0.02360  1.0000
  H   H1056     1.0  0.32237  0.89508  0.20230  1.0000
  H   H1057     1.0  0.34603  0.87926  0.20616  1.0000
  C   C630      1.0  0.33102  0.88010  0.20119  1.0000
  C   C631      1.0  0.48918  0.71914  0.05153  1.0000
  H   H1058     1.0  0.99994  0.78371  0.07106  1.0000
  H   H1059     1.0  0.07606  0.77168  0.06115  1.0000
  C   C632      1.0  0.42986  0.83317  0.03237  1.0000
  H   H1060     1.0  0.04357  0.79766  0.03818  1.0000
  C   C633      1.0  0.05111  0.77047  0.09767  1.0000
  H   H1061     1.0  0.08015  0.79069  0.04070  1.0000
  H   H1062     1.0  0.33569  0.92524  0.99036  1.0000
  H   H1063     1.0  0.19032  0.66806  0.00564  1.0000
  H   H1064     1.0  0.15669  0.71431  0.02167  1.0000
  H   H1065     1.0  0.10697  0.73291  0.98979  1.0000
  H   H1066     1.0  0.00125  0.68533  0.98320  1.0000
  N   N47       1.0  0.34253  0.88687  0.16303  1.0000
  C   C634      1.0  0.34176  0.87804  0.14409  1.0000
  C   C635      1.0  0.33023  0.90725  0.16121  1.0000
  C   C636      1.0  0.33277  0.87357  0.18024  1.0000
  C   C637      1.0  0.36426  0.88755  0.16527  1.0000
  C   C638      1.0  0.35195  0.85633  0.14317  1.0000
  C   C639      1.0  0.33754  0.92224  0.14335  1.0000
  H   H1067     1.0  0.20207  0.90326  0.00749  1.0000
  C   C640      1.0  0.36862  0.90270  0.17849  1.0000
  H   H1068     1.0  0.32590  0.87852  0.14119  1.0000
  H   H1069     1.0  0.34916  0.88700  0.13088  1.0000
  H   H1070     1.0  0.32925  0.91473  0.17472  1.0000
  H   H1071     1.0  0.31430  0.90584  0.15989  1.0000
  H   H1072     1.0  0.31733  0.87177  0.17754  1.0000
  H   H1073     1.0  0.34130  0.85830  0.18161  1.0000
  H   H1074     1.0  0.37150  0.87250  0.17109  1.0000
  H   H1075     1.0  0.37291  0.89127  0.15037  1.0000
  H   H1076     1.0  0.34351  0.84539  0.15342  1.0000
  H   H1077     1.0  0.35197  0.85251  0.12785  1.0000
  H   H1078     1.0  0.36786  0.85441  0.14601  1.0000
  H   H1079     1.0  0.35383  0.92319  0.14228  1.0000
  H   H1080     1.0  0.33409  0.91851  0.12900  1.0000
  H   H1081     1.0  0.32949  0.93740  0.14519  1.0000
  H   H1082     1.0  0.01041  0.78772  0.04550  1.0000
  H   H1083     1.0  0.17308  0.88699  0.00116  1.0000
  H   H1084     1.0  0.17264  0.69113  0.02256  1.0000
  C   C641      1.0  0.31457  0.78836  0.98668  1.0000
  H   H1085     1.0  0.35587  0.90830  0.18910  1.0000
  H   H1086     1.0  0.37487  0.91560  0.16899  1.0000
  H   H1087     1.0  0.38692  0.81499  0.02946  1.0000
  C   C642      1.0  0.05556  0.84682  0.22818  1.0000
  C   C643      1.0  0.11508  0.66290  0.01233  1.0000
  S   S196      1.0  0.00546  0.85137  0.14228  1.0000
  H   H1088     1.0  0.48762  0.75150  0.03991  1.0000
  H   H1089     1.0  0.42360  0.80585  0.10117  1.0000
  H   H1090     1.0  0.10848  0.67577  0.02045  1.0000
  H   H1091     1.0  0.17100  0.70781  0.99910  1.0000
  N   N48       1.0  0.44056  0.83327  0.06744  1.0000
  C   C644      1.0  0.43970  0.84367  0.04634  1.0000
  C   C645      1.0  0.44816  0.84733  0.07894  1.0000
  C   C646      1.0  0.41936  0.83002  0.07629  1.0000
  C   C647      1.0  0.45407  0.81363  0.06645  1.0000
  H   H1092     1.0  0.20521  0.86837  0.99796  1.0000
  H   H1093     1.0  0.31926  0.77385  0.99564  1.0000
  H   H1094     1.0  0.43754  0.86147  0.07942  1.0000
  H   H1095     1.0  0.11195  0.85114  0.09335  1.0000
  H   H1096     1.0  0.43140  0.85908  0.04649  1.0000
  H   H1097     1.0  0.45507  0.84556  0.03861  1.0000
  C   C648      1.0  0.14460  0.69152  0.00972  1.0000
  S   S197      1.0  0.34771  0.86045  0.98298  1.0000
  C   C649      1.0  0.48260  0.83079  0.13612  1.0000
  H   H1098     1.0  0.10226  0.65687  0.00785  1.0000
  H   H1099     1.0  0.44612  0.80249  0.06134  1.0000
  H   H1100     1.0  0.46730  0.81552  0.05485  1.0000
  H   H1101     1.0  0.01926  0.77723  0.09713  1.0000
  H   H1102     1.0  0.18970  0.65152  0.98740  1.0000
  C   C650      1.0  0.17443  0.89572  0.98594  1.0000
  C   C651      1.0  0.41608  0.82138  0.09853  1.0000
  H   H1103     1.0  0.48184  0.74590  0.06622  1.0000
  H   H1104     1.0  0.01755  0.86198  0.18930  1.0000
  C   C652      1.0  0.16255  0.70145  0.01319  1.0000
  C   C653      1.0  0.03513  0.75917  0.06210  1.0000
  H   H1105     1.0  0.06915  0.76944  0.03711  1.0000
  H   H1106     1.0  0.29020  0.97618  0.98707  1.0000
  H   H1107     1.0  0.00418  0.75106  0.06979  1.0000
  H   H1108     1.0  0.47939  0.80355  0.08375  1.0000
  H   H1109     1.0  0.17577  0.91128  0.98828  1.0000
  H   H1110     1.0  0.12076  0.68194  0.98446  1.0000
  H   H1111     1.0  0.46909  0.86359  0.05677  1.0000
  C   C654      1.0  0.00773  0.81313  0.06166  1.0000
  H   H1112     1.0  0.33235  0.81950  0.01335  1.0000
  H   H1113     1.0  0.47448  0.87753  0.21063  1.0000
  C   C655      1.0  0.20939  0.88075  0.98620  1.0000
  H   H1114     1.0  0.45640  0.80999  0.09961  1.0000
  H   H1115     1.0  0.47439  0.86104  0.08193  1.0000
  C   C656      1.0  0.46281  0.80354  0.08577  1.0000
  H   H1116     1.0  0.05264  0.75424  0.09667  1.0000
  C   C657      1.0  0.04854  0.79173  0.05304  1.0000
  C   C658      1.0  0.46928  0.85311  0.07083  1.0000
  C   C659      1.0  0.18413  0.65475  0.00287  1.0000
  H   H1117     1.0  0.28990  0.82678  0.98518  1.0000
  N   N49       1.0  0.08284  0.84770  0.14065  1.0000
  C   C660      1.0  0.08461  0.83078  0.15756  1.0000
  C   C661      1.0  0.08856  0.86588  0.14759  1.0000
  C   C662      1.0  0.09789  0.84172  0.12322  1.0000
  C   C663      1.0  0.06160  0.85091  0.13534  1.0000
  C   C664      1.0  0.08122  0.81009  0.15300  1.0000
  C   C665      1.0  0.07659  0.87187  0.16742  1.0000
  C   C666      1.0  0.09906  0.85676  0.10405  1.0000
  C   C667      1.0  0.05361  0.87213  0.12602  1.0000
  H   H1118     1.0  0.09965  0.82903  0.16285  1.0000
  H   H1119     1.0  0.07349  0.83404  0.17075  1.0000
  H   H1120     1.0  0.08698  0.87918  0.13617  1.0000
  H   H1121     1.0  0.10480  0.86353  0.14967  1.0000
  H   H1122     1.0  0.11331  0.83825  0.12774  1.0000
  H   H1123     1.0  0.09465  0.82781  0.11836  1.0000
  H   H1124     1.0  0.05991  0.84045  0.12480  1.0000
  H   H1125     1.0  0.05059  0.84718  0.14873  1.0000
  H   H1126     1.0  0.09443  0.80304  0.14368  1.0000
  H   H1127     1.0  0.07918  0.79998  0.16730  1.0000
  H   H1128     1.0  0.06749  0.81082  0.14578  1.0000
  H   H1129     1.0  0.08235  0.86224  0.18051  1.0000
  H   H1130     1.0  0.07846  0.88748  0.16892  1.0000
  H   H1131     1.0  0.06028  0.87100  0.16829  1.0000
  H   H1132     1.0  0.10169  0.87176  0.10663  1.0000
  H   H1133     1.0  0.08553  0.85768  0.09639  1.0000
  H   H1134     1.0  0.00726  0.81686  0.07699  1.0000
  H   H1135     1.0  0.05013  0.88273  0.13731  1.0000
  H   H1136     1.0  0.03931  0.87152  0.12012  1.0000
  H   H1137     1.0  0.06381  0.87837  0.11327  1.0000
  H   H1138     1.0  0.32982  0.77907  0.02821  1.0000
  C   C668      1.0  0.31210  0.95010  0.99111  1.0000
  H   H1139     1.0  0.41351  0.81949  0.06821  1.0000
  H   H1140     1.0  0.02328  0.88640  0.21107  1.0000
  H   H1141     1.0  0.48267  0.81830  0.02005  1.0000
  C   C669      1.0  0.02816  0.85766  0.20007  1.0000
  C   C670      1.0  0.03305  0.78222  0.08801  1.0000
  N   N50       1.0  0.03267  0.78062  0.06622  1.0000
  H   H1142     1.0  0.13732  0.68620  0.02488  1.0000
  H   H1143     1.0  0.32273  0.86944  0.21208  1.0000
  H   H1144     1.0  0.35027  0.79206  0.02939  1.0000
  C   C671      1.0  0.00924  0.67183  0.99022  1.0000
  C   C672      1.0  0.01231  0.79035  0.06085  1.0000
  H   H1145     1.0  0.47760  0.69115  0.03224  1.0000
  H   H1146     1.0  0.28119  0.80449  0.01186  1.0000
  H   H1147     1.0  0.42049  0.83092  0.10858  1.0000
  C   C673      1.0  0.46994  0.87736  0.22650  1.0000
  H   H1148     1.0  0.47272  0.71874  0.05201  1.0000
  C   C674      1.0  0.21493  0.89704  0.99720  1.0000
  H   H1149     1.0  0.06102  0.81835  0.21669  1.0000
  H   H1150     1.0  0.00705  0.78491  0.22844  1.0000
  Fe  Fe99      1.0  0.99675  0.79670  0.13688  1.0000
  C   C675      1.0  0.47463  0.98180  0.13199  1.0000
  H   H1151     1.0  0.99258  0.81852  0.05710  1.0000
  H   H1152     1.0  0.47806  0.72464  0.01512  1.0000
  C   C676      1.0  0.00312  0.66460  0.01029  1.0000
  H   H1153     1.0  0.15687  0.65557  0.02356  1.0000
  C   C677      1.0  0.30608  0.82512  0.98722  1.0000
  H   H1154     1.0  0.47910  0.80119  0.99133  1.0000
  C   C678      1.0  0.29647  0.80173  0.01673  1.0000
  C   C679      1.0  0.34135  0.78740  0.01883  1.0000
  H   H1155     1.0  0.28220  0.81236  0.04464  1.0000
  H   H1156     1.0  0.43234  0.84090  0.01686  1.0000
  S   S198      1.0  0.13690  0.75826  0.99033  1.0000
  H   H1157     1.0  0.22123  0.90924  0.98669  1.0000
  C   C680      1.0  0.29563  0.81478  0.03351  1.0000
  H   H1158     1.0  0.30900  0.81083  0.04162  1.0000
  H   H1159     1.0  0.14214  0.90514  0.98828  1.0000
  C   C681      1.0  0.36685  0.84135  0.98910  1.0000
  N   N51       1.0  0.31241  0.80528  0.99910  1.0000
  H   H1160     1.0  0.30745  0.83770  0.99550  1.0000
  H   H1161     1.0  0.48577  0.67947  0.06659  1.0000
  H   H1162     1.0  0.48498  0.83294  0.16691  1.0000
  H   H1163     1.0  0.24996  0.83633  0.98435  1.0000
  H   H1164     1.0  0.34411  0.80831  0.99251  1.0000
  H   H1165     1.0  0.28355  0.78085  0.99030  1.0000
  C   C682      1.0  0.99337  0.82622  0.33922  1.0000
  H   H1166     1.0  0.00002  0.69155  0.46451  1.0000
  S   S199      1.0  0.37399  0.79597  0.48196  1.0000
  C   C683      1.0  0.04819  0.66051  0.43559  1.0000
  Fe  Fe100     1.0  0.37927  0.86741  0.47064  1.0000
  S   S200      1.0  0.40094  0.88344  0.44729  1.0000
  S   S201      1.0  0.35674  0.85016  0.46224  1.0000
  C   C684      1.0  0.01074  0.67007  0.44344  1.0000
  Fe  Fe101     1.0  0.21104  0.89124  0.42558  1.0000
  S   S202      1.0  0.20105  0.89705  0.45717  1.0000
  S   S203      1.0  0.24472  0.88311  0.41638  1.0000
  Fe  Fe102     1.0  0.16712  0.89476  0.41548  1.0000
  S   S204      1.0  0.15471  0.90136  0.44679  1.0000
  S   S205      1.0  0.14114  0.88964  0.39908  1.0000
  Fe  Fe103     1.0  0.17885  0.92116  0.44414  1.0000
  H   H1167     1.0  0.08142  0.85575  0.44610  1.0000
  Fe  Fe104     1.0  0.17808  0.87677  0.45710  1.0000
  C   C685      1.0  0.01449  0.94863  0.30313  1.0000
  S   S206      1.0  0.18986  0.91677  0.41196  1.0000
  S   S207      1.0  0.18944  0.86887  0.42634  1.0000
  Fe  Fe105     1.0  0.08450  0.88501  0.30511  1.0000
  S   S208      1.0  0.06135  0.87680  0.33061  1.0000
  S   S209      1.0  0.11384  0.89394  0.31205  1.0000
  Fe  Fe106     1.0  0.05689  0.88036  0.27369  1.0000
  S   S210      1.0  0.03194  0.87245  0.29774  1.0000
  H   H1168     1.0  0.05830  0.93349  0.32215  1.0000
  Fe  Fe107     1.0  0.03914  0.89692  0.31310  1.0000
  S   S211      1.0  0.01544  0.91563  0.33190  1.0000
  Fe  Fe108     1.0  0.05635  0.85318  0.31308  1.0000
  S   S212      1.0  0.05409  0.82216  0.32913  1.0000
  S   S213      1.0  0.06241  0.90671  0.28812  1.0000
  S   S214      1.0  0.08124  0.85957  0.28830  1.0000
  H   H1169     1.0  0.07841  0.94305  0.38665  1.0000
  C   C686      1.0  0.02948  0.81647  0.33641  1.0000
  C   C687      1.0  0.01296  0.83097  0.33338  1.0000
  C   C688      1.0  0.45004  0.88413  0.23361  1.0000
  C   C689      1.0  0.26735  0.66280  0.41204  1.0000
  H   H1170     1.0  0.03996  0.81086  0.25173  1.0000
  C   C690      1.0  0.02633  0.79731  0.34583  1.0000
  H   H1171     1.0  0.01519  0.84591  0.32680  1.0000
  C   C691      1.0  0.10374  0.87556  0.44053  1.0000
  H   H1172     1.0  0.03907  0.78608  0.34834  1.0000
  H   H1173     1.0  0.03912  0.84003  0.26905  1.0000
  H   H1174     1.0  0.99874  0.86842  0.42980  1.0000
  H   H1175     1.0  0.29370  0.94985  0.45961  1.0000
  H   H1176     1.0  0.47129  0.89020  0.41469  1.0000
  H   H1177     1.0  0.11643  0.81234  0.40612  1.0000
  C   C692      1.0  0.46911  0.77085  0.35406  1.0000
  H   H1178     1.0  0.03726  0.79454  0.27451  1.0000
  H   H1179     1.0  0.05401  0.67508  0.43482  1.0000
  S   S215      1.0  0.04897  0.88430  0.24157  1.0000
  C   C693      1.0  0.27290  0.83300  0.47895  1.0000
  H   H1180     1.0  0.12823  0.83109  0.38941  1.0000
  H   H1181     1.0  0.05758  0.82023  0.27677  1.0000
  C   C694      1.0  0.13418  0.89104  0.37458  1.0000
  C   C695      1.0  0.14600  0.89847  0.35727  1.0000
  C   C696      1.0  0.13960  0.89924  0.33828  1.0000
  C   C697      1.0  0.12145  0.89240  0.33630  1.0000
  C   C698      1.0  0.10969  0.88492  0.35362  1.0000
  C   C699      1.0  0.11589  0.88447  0.37258  1.0000
  H   H1182     1.0  0.16007  0.90364  0.35848  1.0000
  H   H1183     1.0  0.14888  0.90504  0.32502  1.0000
  H   H1184     1.0  0.09583  0.87942  0.35241  1.0000
  H   H1185     1.0  0.10646  0.87889  0.38577  1.0000
  C   C700      1.0  0.48834  0.92193  0.26250  1.0000
  H   H1186     1.0  0.11982  0.87631  0.44083  1.0000
  H   H1187     1.0  0.09522  0.88652  0.45024  1.0000
  H   H1188     1.0  0.04812  0.70183  0.47769  1.0000
  C   C701      1.0  0.28803  0.88303  0.46244  1.0000
  C   C702      1.0  0.29434  0.87284  0.44574  1.0000
  C   C703      1.0  0.28111  0.87322  0.43143  1.0000
  C   C704      1.0  0.26160  0.88379  0.43375  1.0000
  C   C705      1.0  0.25569  0.89437  0.45017  1.0000
  C   C706      1.0  0.26874  0.89382  0.46447  1.0000
  C   C707      1.0  0.01992  0.79505  0.47227  1.0000
  H   H1189     1.0  0.28581  0.86498  0.41877  1.0000
  H   H1190     1.0  0.24109  0.90313  0.45181  1.0000
  H   H1191     1.0  0.47987  0.93351  0.27155  1.0000
  C   C708      1.0  0.41477  0.87105  0.42754  1.0000
  C   C709      1.0  0.41111  0.85214  0.42454  1.0000
  C   C710      1.0  0.42143  0.84317  0.40798  1.0000
  C   C711      1.0  0.43583  0.85280  0.39453  1.0000
  C   C712      1.0  0.43982  0.87155  0.39774  1.0000
  C   C713      1.0  0.42917  0.88071  0.41410  1.0000
  H   H1192     1.0  0.40014  0.84450  0.43483  1.0000
  H   H1193     1.0  0.41819  0.82870  0.40560  1.0000
  H   H1194     1.0  0.45070  0.87919  0.38734  1.0000
  H   H1195     1.0  0.43195  0.89542  0.41627  1.0000
  C   C714      1.0  0.45149  0.76895  0.38792  1.0000
  H   H1196     1.0  0.42101  0.78379  0.39430  1.0000
  C   C715      1.0  0.06273  0.96618  0.34151  1.0000
  H   H1197     1.0  0.04094  0.84244  0.36912  1.0000
  C   C716      1.0  0.45869  0.87684  0.26788  1.0000
  C   C717      1.0  0.44450  0.88381  0.25438  1.0000
  C   C718      1.0  0.23218  0.84219  0.46266  1.0000
  H   H1198     1.0  0.43477  0.66750  0.41213  1.0000
  H   H1199     1.0  0.42915  0.88902  0.26004  1.0000
  N   N52       1.0  0.06984  0.94419  0.34621  1.0000
  H   H1200     1.0  0.10629  0.80590  0.43912  1.0000
  H   H1201     1.0  0.46128  0.75803  0.35235  1.0000
  H   H1202     1.0  0.48701  0.90935  0.40608  1.0000
  H   H1203     1.0  0.26959  0.84640  0.46826  1.0000
  H   H1204     1.0  0.48423  0.73975  0.37453  1.0000
  C   C719      1.0  0.03868  0.73598  0.44585  1.0000
  C   C720      1.0  0.48410  0.87047  0.23994  1.0000
  H   H1205     1.0  0.08245  0.80049  0.46834  1.0000
  H   H1206     1.0  0.26041  0.68594  0.43299  1.0000
  H   H1207     1.0  0.04271  0.81031  0.38783  1.0000
  H   H1208     1.0  0.08797  0.75146  0.46932  1.0000
  H   H1209     1.0  0.14571  0.85578  0.45039  1.0000
  C   C721      1.0  0.09752  0.85470  0.44837  1.0000
  S   S216      1.0  0.44756  0.84125  0.37343  1.0000
  C   C722      1.0  0.00657  0.96795  0.29532  1.0000
  C   C723      1.0  0.03567  0.85662  0.37550  1.0000
  C   C724      1.0  0.28074  0.94373  0.46920  1.0000
  H   H1210     1.0  0.03237  0.69403  0.41492  1.0000
  C   C725      1.0  0.11295  0.84185  0.41685  1.0000
  H   H1211     1.0  0.02998  0.79198  0.23294  1.0000
  H   H1212     1.0  0.03044  0.80193  0.46078  1.0000
  H   H1213     1.0  0.43911  0.80079  0.38705  1.0000
  C   C726      1.0  0.03217  0.80983  0.26725  1.0000
  H   H1214     1.0  0.48689  0.89660  0.43128  1.0000
  H   H1215     1.0  0.10087  0.94966  0.34386  1.0000
  C   C727      1.0  0.05400  0.93489  0.36109  1.0000
  C   C728      1.0  0.14653  0.84353  0.44117  1.0000
  H   H1216     1.0  0.47294  0.73826  0.41026  1.0000
  H   H1217     1.0  0.28073  0.69002  0.41313  1.0000
  C   C729      1.0  0.00671  0.79272  0.35224  1.0000
  H   H1218     1.0  0.45945  0.78459  0.34847  1.0000
  C   C730      1.0  0.02338  0.85363  0.39641  1.0000
  C   C731      1.0  0.00258  0.83288  0.25636  1.0000
  H   H1219     1.0  0.03506  0.82492  0.29314  1.0000
  C   C732      1.0  0.12915  0.83083  0.44829  1.0000
  C   C733      1.0  0.01193  0.68973  0.45159  1.0000
  H   H1220     1.0  0.47095  0.80313  0.36922  1.0000
  H   H1221     1.0  0.08787  0.93436  0.29711  1.0000
  C   C734      1.0  0.99581  0.83993  0.41929  1.0000
  N   N53       1.0  0.05143  0.73241  0.48028  1.0000
  H   H1222     1.0  0.00529  0.79451  0.29617  1.0000
  C   C735      1.0  0.48013  0.92610  0.24210  1.0000
  H   H1223     1.0  0.29265  0.67457  0.44256  1.0000
  H   H1224     1.0  0.04694  0.90794  0.38052  1.0000
  H   H1225     1.0  0.09992  0.88072  0.42516  1.0000
  H   H1226     1.0  0.01427  0.82472  0.37406  1.0000
  C   C736      1.0  0.04265  0.67575  0.39158  1.0000
  C   C737      1.0  0.43488  0.78657  0.38397  1.0000
  H   H1227     1.0  0.23713  0.84185  0.43049  1.0000
  H   H1228     1.0  0.46357  0.92594  0.24468  1.0000
  C   C738      1.0  0.99972  0.85135  0.26781  1.0000
  C   C739      1.0  0.99977  0.80963  0.28882  1.0000
  H   H1229     1.0  0.21910  0.95586  0.45889  1.0000
  C   C740      1.0  0.00316  0.78816  0.46698  1.0000
  H   H1230     1.0  0.12075  0.85522  0.41204  1.0000
  C   C741      1.0  0.04416  0.97141  0.33011  1.0000
  H   H1231     1.0  0.13532  0.81505  0.44642  1.0000
  H   H1232     1.0  0.25531  0.82511  0.44317  1.0000
  H   H1233     1.0  0.01894  0.86886  0.40090  1.0000
  C   C742      1.0  0.09747  0.81978  0.44416  1.0000
  H   H1234     1.0  0.27125  0.93937  0.45904  1.0000
  H   H1235     1.0  0.13978  0.81974  0.41092  1.0000
  H   H1236     1.0  0.04149  0.74393  0.43047  1.0000
  H   H1237     1.0  0.02796  0.94111  0.29547  1.0000
  H   H1238     1.0  0.25999  0.65980  0.45533  1.0000
  H   H1239     1.0  0.01401  0.97522  0.28163  1.0000
  H   H1240     1.0  0.48945  0.92677  0.30204  1.0000
  H   H1241     1.0  0.04368  0.68986  0.38124  1.0000
  H   H1242     1.0  0.22696  0.80247  0.47435  1.0000
  C   C743      1.0  0.04109  0.82475  0.27722  1.0000
  C   C744      1.0  0.06006  0.91322  0.37046  1.0000
  H   H1243     1.0  0.22210  0.97678  0.47050  1.0000
  H   H1244     1.0  0.09823  0.84597  0.41091  1.0000
  H   H1245     1.0  0.27906  0.66184  0.39881  1.0000
  C   C745      1.0  0.12505  0.82508  0.40546  1.0000
  C   C746      1.0  0.08739  0.94270  0.31002  1.0000
  C   C747      1.0  0.48663  0.74531  0.40396  1.0000
  S   S217      1.0  0.17429  0.95163  0.45484  1.0000
  H   H1246     1.0  0.04029  0.93456  0.35399  1.0000
  H   H1247     1.0  0.09752  0.85266  0.46483  1.0000
  C   C748      1.0  0.46211  0.67082  0.44426  1.0000
  N   N54       1.0  0.10973  0.83708  0.43930  1.0000
  H   H1248     1.0  0.08691  0.71777  0.45825  1.0000
  H   H1249     1.0  0.25483  0.69422  0.40851  1.0000
  H   H1250     1.0  0.00891  0.78150  0.26502  1.0000
  H   H1251     1.0  0.02658  0.68976  0.45689  1.0000
  H   H1252     1.0  0.12634  0.83060  0.46479  1.0000
  H   H1253     1.0  0.07911  0.91793  0.33105  1.0000
  C   C749      1.0  0.02819  0.68022  0.41058  1.0000
  N   N55       1.0  0.47174  0.77084  0.37572  1.0000
  H   H1254     1.0  0.99620  0.67200  0.43714  1.0000
  S   S218      1.0  0.48251  0.87715  0.33376  1.0000
  H   H1255     1.0  0.26548  0.97369  0.47167  1.0000
  H   H1256     1.0  0.44654  0.67559  0.44085  1.0000
  H   H1257     1.0  0.08536  0.96643  0.37306  1.0000
  C   C750      1.0  0.08963  0.94181  0.35448  1.0000
  H   H1258     1.0  0.05134  0.66113  0.46720  1.0000
  C   C751      1.0  0.07290  0.93388  0.32767  1.0000
  H   H1259     1.0  0.06644  0.84263  0.23868  1.0000
  H   H1260     1.0  0.16105  0.83386  0.44279  1.0000
  H   H1261     1.0  0.01293  0.68459  0.40592  1.0000
  H   H1262     1.0  0.10306  0.94075  0.31360  1.0000
  C   C752      1.0  0.08901  0.94993  0.37458  1.0000
  C   C753      1.0  0.08976  0.81431  0.46650  1.0000
  H   H1263     1.0  0.02617  0.79361  0.40064  1.0000
  H   H1264     1.0  0.03176  0.81253  0.41360  1.0000
  H   H1265     1.0  0.07253  0.91193  0.37961  1.0000
  H   H1266     1.0  0.01314  0.83616  0.24252  1.0000
  H   H1267     1.0  0.10420  0.94627  0.37953  1.0000
  H   H1268     1.0  0.00769  0.86337  0.25861  1.0000
  C   C754      1.0  0.29793  0.65866  0.44690  1.0000
  H   H1269     1.0  0.45232  0.76716  0.40420  1.0000
  C   C755      1.0  0.22996  0.96238  0.46597  1.0000
  H   H1270     1.0  0.46208  0.66688  0.46068  1.0000
  H   H1271     1.0  0.10204  0.81126  0.47606  1.0000
  H   H1272     1.0  0.07407  0.69816  0.45291  1.0000
  C   C756      1.0  0.23912  0.83110  0.44418  1.0000
  H   H1273     1.0  0.04880  0.94405  0.37357  1.0000
  C   C757      1.0  0.26595  0.68431  0.41716  1.0000
  H   H1274     1.0  0.24277  0.96504  0.45424  1.0000
  H   H1275     1.0  0.30914  0.86433  0.44411  1.0000
  N   N56       1.0  0.35290  0.89455  0.40474  1.0000
  C   C758      1.0  0.33918  0.90553  0.42033  1.0000
  C   C759      1.0  0.34198  0.89688  0.38660  1.0000
  C   C760      1.0  0.37171  0.90463  0.39949  1.0000
  C   C761      1.0  0.35779  0.87300  0.41342  1.0000
  C   C762      1.0  0.34820  0.90733  0.43940  1.0000
  C   C763      1.0  0.32135  0.88900  0.39022  1.0000
  C   C764      1.0  0.38775  0.89632  0.38330  1.0000
  C   C765      1.0  0.36423  0.85738  0.39853  1.0000
  H   H1276     1.0  0.33368  0.92101  0.41385  1.0000
  H   H1277     1.0  0.32546  0.89808  0.42564  1.0000
  H   H1278     1.0  0.35101  0.88949  0.37420  1.0000
  H   H1279     1.0  0.33940  0.91295  0.38030  1.0000
  H   H1280     1.0  0.36777  0.92090  0.39466  1.0000
  H   H1281     1.0  0.37975  0.90358  0.41279  1.0000
  H   H1282     1.0  0.36989  0.87157  0.42315  1.0000
  H   H1283     1.0  0.34442  0.86787  0.42327  1.0000
  H   H1284     1.0  0.33592  0.91237  0.45098  1.0000
  H   H1285     1.0  0.35581  0.89286  0.44583  1.0000
  H   H1286     1.0  0.35887  0.91861  0.43660  1.0000
  H   H1287     1.0  0.32193  0.87379  0.39865  1.0000
  H   H1288     1.0  0.30966  0.89924  0.39822  1.0000
  H   H1289     1.0  0.31626  0.88827  0.37559  1.0000
  H   H1290     1.0  0.38202  0.89674  0.36882  1.0000
  H   H1291     1.0  0.39470  0.88104  0.38852  1.0000
  H   H1292     1.0  0.40019  0.90573  0.38042  1.0000
  H   H1293     1.0  0.37574  0.84570  0.40471  1.0000
  H   H1294     1.0  0.37098  0.86314  0.38345  1.0000
  H   H1295     1.0  0.35143  0.84934  0.39734  1.0000
  H   H1296     1.0  0.09643  0.92588  0.35619  1.0000
  H   H1297     1.0  0.00397  0.81987  0.29815  1.0000
  S   S219      1.0  0.00050  0.79016  0.44140  1.0000
  H   H1298     1.0  0.08400  0.82279  0.43601  1.0000
  H   H1299     1.0  0.99777  0.81397  0.39392  1.0000
  H   H1300     1.0  0.45428  0.87683  0.28379  1.0000
  C   C766      1.0  0.48665  0.75289  0.38149  1.0000
  H   H1301     1.0  0.08253  0.95859  0.30483  1.0000
  H   H1302     1.0  0.22594  0.65181  0.45963  1.0000
  H   H1303     1.0  0.22991  0.81908  0.44371  1.0000
  H   H1304     1.0  0.48286  0.94098  0.23406  1.0000
  H   H1305     1.0  0.03682  0.66541  0.38331  1.0000
  H   H1306     1.0  0.28654  0.82448  0.47157  1.0000
  H   H1307     1.0  0.06419  0.90293  0.35900  1.0000
  N   N57       1.0  0.00514  0.84300  0.39776  1.0000
  H   H1308     1.0  0.14781  0.84977  0.42524  1.0000
  H   H1309     1.0  0.46858  0.78983  0.40997  1.0000
  H   H1310     1.0  0.07814  0.82611  0.47218  1.0000
  H   H1311     1.0  0.99705  0.85631  0.36867  1.0000
  H   H1312     1.0  0.21615  0.84864  0.46206  1.0000
  H   H1313     1.0  0.23093  0.66588  0.43570  1.0000
  H   H1314     1.0  0.20585  0.81992  0.48100  1.0000
  H   H1315     1.0  0.47833  0.81162  0.39821  1.0000
  C   C767      1.0  0.26937  0.95983  0.48194  1.0000
  H   H1316     1.0  0.24028  0.85543  0.46022  1.0000
  H   H1317     1.0  0.24195  0.93295  0.47853  1.0000
  H   H1318     1.0  0.47051  0.68392  0.43986  1.0000
  H   H1319     1.0  0.28701  0.93022  0.47861  1.0000
  S   S220      1.0  0.48745  0.82932  0.32971  1.0000
  H   H1320     1.0  0.25966  0.80736  0.47453  1.0000
  H   H1321     1.0  0.00882  0.65855  0.45653  1.0000
  H   H1322     1.0  0.00541  0.84884  0.28241  1.0000
  H   H1323     1.0  0.00887  0.70289  0.44027  1.0000
  H   H1324     1.0  0.07502  0.97416  0.33274  1.0000
  H   H1325     1.0  0.04519  0.75975  0.46043  1.0000
  H   H1326     1.0  0.04931  0.86340  0.37669  1.0000
  H   H1327     1.0  0.48165  0.65364  0.30919  1.0000
  H   H1328     1.0  0.04284  0.71979  0.44498  1.0000
  C   C768      1.0  0.00512  0.93926  0.32095  1.0000
  H   H1329     1.0  0.08924  0.69383  0.47252  1.0000
  H   H1330     1.0  0.00701  0.83175  0.42896  1.0000
  C   C769      1.0  0.02894  0.80948  0.39882  1.0000
  H   H1331     1.0  0.00433  0.77792  0.35956  1.0000
  H   H1332     1.0  0.02709  0.86714  0.36481  1.0000
  H   H1333     1.0  0.44587  0.75505  0.38544  1.0000
  H   H1334     1.0  0.43087  0.78826  0.36857  1.0000
  C   C770      1.0  0.47861  0.87021  0.26067  1.0000
  H   H1335     1.0  0.25326  0.66133  0.40605  1.0000
  H   H1336     1.0  0.29165  0.65392  0.46257  1.0000
  C   C771      1.0  0.01072  0.82280  0.39052  1.0000
  H   H1337     1.0  0.03380  0.84585  0.40709  1.0000
  H   H1338     1.0  0.39500  0.75690  0.47960  1.0000
  C   C772      1.0  0.05985  0.71061  0.48036  1.0000
  H   H1339     1.0  0.02229  0.73934  0.45066  1.0000
  H   H1340     1.0  0.26373  0.90159  0.47738  1.0000
  H   H1341     1.0  0.06648  0.74419  0.45131  1.0000
  Fe  Fe109     1.0  0.47632  0.84893  0.35403  1.0000
  H   H1342     1.0  0.05809  0.66970  0.39487  1.0000
  C   C773      1.0  0.00439  0.79658  0.25694  1.0000
  H   H1343     1.0  0.48624  0.91434  0.23240  1.0000
  N   N58       1.0  0.02794  0.66369  0.42801  1.0000
  C   C774      1.0  0.48860  0.76983  0.33907  1.0000
  H   H1344     1.0  0.31449  0.65735  0.44687  1.0000
  H   H1345     1.0  0.05868  0.97328  0.35550  1.0000
  H   H1346     1.0  0.48842  0.75705  0.41290  1.0000
  C   C775      1.0  0.17794  0.95292  0.47973  1.0000
  H   H1347     1.0  0.48350  0.90748  0.27002  1.0000
  C   C776      1.0  0.47955  0.79007  0.37735  1.0000
  S   S221      1.0  0.99277  0.66047  0.34433  1.0000
  H   H1348     1.0  0.42359  0.65458  0.43516  1.0000
  N   N59       1.0  0.00964  0.81281  0.26745  1.0000
  S   S222      1.0  0.30315  0.88266  0.48155  1.0000
  H   H1349     1.0  0.03094  0.96456  0.33821  1.0000
  H   H1350     1.0  0.47628  0.65970  0.41696  1.0000
  C   C777      1.0  0.07842  0.70532  0.46498  1.0000
  C   C778      1.0  0.43074  0.65284  0.41980  1.0000
  H   H1351     1.0  0.48459  0.77012  0.32379  1.0000
  C   C779      1.0  0.47298  0.65343  0.43295  1.0000
  C   C780      1.0  0.05121  0.74373  0.45953  1.0000
  C   C781      1.0  0.48056  0.79509  0.39850  1.0000
  H   H1352     1.0  0.04735  0.96703  0.31481  1.0000
  C   C782      1.0  0.01346  0.79633  0.23479  1.0000
  C   C783      1.0  0.48621  0.89469  0.41554  1.0000
  H   H1353     1.0  0.05949  0.65173  0.42561  1.0000
  S   S223      1.0  0.08880  0.66322  0.51195  1.0000
  S   S224      1.0  0.41273  0.66762  0.55373  1.0000
  C   C784      1.0  0.18924  0.91816  0.69080  1.0000
  H   H1354     1.0  0.03560  0.92287  0.66568  1.0000
  Fe  Fe110     1.0  0.39166  0.68622  0.53331  1.0000
  S   S225      1.0  0.37304  0.71511  0.54192  1.0000
  C   C785      1.0  0.23625  0.94757  0.48404  1.0000
  C   C786      1.0  0.38516  0.75637  0.49363  1.0000
  Fe  Fe111     1.0  0.34892  0.96657  0.62611  1.0000
  H   H1355     1.0  0.01977  0.91097  0.69733  1.0000
  Fe  Fe112     1.0  0.37916  0.94510  0.65499  1.0000
  S   S226      1.0  0.40623  0.95212  0.63301  1.0000
  S   S227      1.0  0.37712  0.93112  0.68774  1.0000
  H   H1356     1.0  0.17744  0.96969  0.69725  1.0000
  Fe  Fe113     1.0  0.38891  0.94456  0.60957  1.0000
  S   S228      1.0  0.40263  0.92944  0.58208  1.0000
  H   H1357     1.0  0.00899  0.88347  0.62190  1.0000
  S   S229      1.0  0.36346  0.93475  0.63205  1.0000
  S   S230      1.0  0.37758  0.65952  0.52856  1.0000
  H   H1358     1.0  0.31658  0.92636  0.53102  1.0000
  H   H1359     1.0  0.34986  0.78592  0.52069  1.0000
  Fe  Fe114     1.0  0.36374  0.86043  0.51541  1.0000
  S   S231      1.0  0.36315  0.86417  0.54814  1.0000
  S   S232      1.0  0.34041  0.84208  0.51005  1.0000
  Fe  Fe115     1.0  0.07638  0.81473  0.52892  1.0000
  S   S233      1.0  0.09530  0.79835  0.55207  1.0000
  S   S234      1.0  0.08319  0.84265  0.50881  1.0000
  Fe  Fe116     1.0  0.04391  0.78771  0.53972  1.0000
  S   S235      1.0  0.05970  0.76948  0.56450  1.0000
  S   S236      1.0  0.01490  0.77937  0.53244  1.0000
  Fe  Fe117     1.0  0.06595  0.79903  0.57234  1.0000
  S   S237      1.0  0.06132  0.80491  0.60512  1.0000
  Fe  Fe118     1.0  0.08751  0.77042  0.54220  1.0000
  S   S238      1.0  0.11110  0.74394  0.53548  1.0000
  S   S239      1.0  0.04738  0.81691  0.54959  1.0000
  S   S240      1.0  0.07143  0.78712  0.51709  1.0000
  Fe  Fe119     1.0  0.08675  0.88726  0.67701  1.0000
  S   S241      1.0  0.09474  0.91276  0.65406  1.0000
  S   S242      1.0  0.07322  0.86075  0.66952  1.0000
  Fe  Fe120     1.0  0.09856  0.90709  0.71141  1.0000
  S   S243      1.0  0.10700  0.93394  0.69059  1.0000
  Fe  Fe121     1.0  0.07915  0.93249  0.67686  1.0000
  S   S244      1.0  0.06136  0.96088  0.66409  1.0000
  Fe  Fe122     1.0  0.12163  0.91185  0.66982  1.0000
  S   S245      1.0  0.15236  0.91358  0.65260  1.0000
  S   S246      1.0  0.06921  0.90717  0.69925  1.0000
  S   S247      1.0  0.11510  0.88473  0.69136  1.0000
  C   C787      1.0  0.18062  0.93563  0.49340  1.0000
  C   C788      1.0  0.03647  0.96899  0.67395  1.0000
  C   C789      1.0  0.02565  0.95740  0.68929  1.0000
  H   H1360     1.0  0.99460  0.94780  0.63723  1.0000
  H   H1361     1.0  0.33642  0.96871  0.56485  1.0000
  H   H1362     1.0  0.03281  0.94324  0.69587  1.0000
  H   H1363     1.0  0.27313  0.97034  0.62308  1.0000
  C   C790      1.0  0.10491  0.72127  0.52945  1.0000
  C   C791      1.0  0.08571  0.71554  0.53518  1.0000
  C   C792      1.0  0.08123  0.69751  0.53010  1.0000
  C   C793      1.0  0.09580  0.68506  0.51906  1.0000
  C   C794      1.0  0.11507  0.69071  0.51346  1.0000
  C   C795      1.0  0.11962  0.70865  0.51877  1.0000
  H   H1364     1.0  0.07430  0.72496  0.54362  1.0000
  H   H1365     1.0  0.06635  0.69321  0.53468  1.0000
  H   H1366     1.0  0.12645  0.68127  0.50502  1.0000
  H   H1367     1.0  0.13457  0.71285  0.51440  1.0000
  C   C796      1.0  0.06553  0.82180  0.62141  1.0000
  C   C797      1.0  0.05750  0.81801  0.64152  1.0000
  C   C798      1.0  0.06026  0.83009  0.65562  1.0000
  C   C799      1.0  0.07120  0.84634  0.65013  1.0000
  C   C800      1.0  0.07932  0.85046  0.62993  1.0000
  C   C801      1.0  0.07649  0.83819  0.61557  1.0000
  H   H1368     1.0  0.04896  0.80556  0.64631  1.0000
  H   H1369     1.0  0.05383  0.82672  0.67104  1.0000
  H   H1370     1.0  0.08782  0.86296  0.62540  1.0000
  H   H1371     1.0  0.08282  0.84133  0.60010  1.0000
  H   H1372     1.0  0.03358  0.87130  0.65764  1.0000
  C   C802      1.0  0.00996  0.78389  0.50735  1.0000
  C   C803      1.0  0.17868  0.97159  0.48582  1.0000
  C   C804      1.0  0.38959  0.92703  0.72492  1.0000
  H   H1373     1.0  0.03626  0.79831  0.49623  1.0000
  H   H1374     1.0  0.37374  0.92991  0.73031  1.0000
  C   C805      1.0  0.10876  0.84546  0.50401  1.0000
  H   H1375     1.0  0.30290  0.90613  0.56810  1.0000
  H   H1376     1.0  0.14065  0.90936  0.71109  1.0000
  H   H1377     1.0  0.00099  0.90939  0.68179  1.0000
  H   H1378     1.0  0.23226  0.79418  0.51111  1.0000
  C   C806      1.0  0.18023  0.96157  0.62875  1.0000
  C   C807      1.0  0.17635  0.94191  0.63550  1.0000
  C   C808      1.0  0.15737  0.93826  0.64535  1.0000
  C   C809      1.0  0.14245  0.95430  0.64883  1.0000
  C   C810      1.0  0.21792  0.80146  0.50586  1.0000
  C   C811      1.0  0.02651  0.72570  0.51260  1.0000
  H   H1379     1.0  0.18794  0.92954  0.63277  1.0000
  H   H1380     1.0  0.12760  0.95165  0.65583  1.0000
  H   H1381     1.0  0.19464  0.92124  0.57501  1.0000
  C   C812      1.0  0.37263  0.77367  0.49868  1.0000
  C   C813      1.0  0.39146  0.91131  0.57285  1.0000
  C   C814      1.0  0.38057  0.89763  0.58568  1.0000
  C   C815      1.0  0.37212  0.88323  0.57785  1.0000
  C   C816      1.0  0.37436  0.88241  0.55714  1.0000
  C   C817      1.0  0.38530  0.89604  0.54428  1.0000
  C   C818      1.0  0.39396  0.91029  0.55214  1.0000
  H   H1382     1.0  0.37887  0.89803  0.60167  1.0000
  H   H1383     1.0  0.36382  0.87265  0.58794  1.0000
  H   H1384     1.0  0.38722  0.89552  0.52832  1.0000
  H   H1385     1.0  0.40254  0.92069  0.54213  1.0000
  H   H1386     1.0  0.27689  0.83761  0.49270  1.0000
  C   C819      1.0  0.43040  0.91888  0.71131  1.0000
  C   C820      1.0  0.41623  0.92300  0.69752  1.0000
  C   C821      1.0  0.39571  0.92698  0.70427  1.0000
  C   C822      1.0  0.29949  0.98216  0.60693  1.0000
  Fe  Fe123     1.0  0.43390  0.66507  0.52527  1.0000
  H   H1387     1.0  0.44619  0.91542  0.70597  1.0000
  H   H1388     1.0  0.42112  0.92260  0.68172  1.0000
  N   N60       1.0  0.17795  0.92673  0.70905  1.0000
  C   C823      1.0  0.37277  0.73744  0.52492  1.0000
  C   C824      1.0  0.38529  0.73840  0.50668  1.0000
  C   C825      1.0  0.00930  0.91700  0.63999  1.0000
  H   H1389     1.0  0.22755  0.92790  0.52345  1.0000
  C   C826      1.0  0.22110  0.81359  0.48491  1.0000
  S   S248      1.0  0.37377  0.97606  0.60263  1.0000
  H   H1390     1.0  0.39514  0.72532  0.50259  1.0000
  H   H1391     1.0  0.01728  0.88731  0.69046  1.0000
  H   H1392     1.0  0.30945  0.95343  0.54587  1.0000
  H   H1393     1.0  0.32874  0.89960  0.56847  1.0000
  H   H1394     1.0  0.28055  0.96384  0.49061  1.0000
  H   H1395     1.0  0.14908  0.96991  0.59772  1.0000
  H   H1396     1.0  0.35133  0.92345  0.56810  1.0000
  C   C827      1.0  0.02332  0.79294  0.49235  1.0000
  H   H1397     1.0  0.21686  0.90259  0.70272  1.0000
  H   H1398     1.0  0.20162  0.94516  0.70833  1.0000
  H   H1399     1.0  0.27615  0.93935  0.57905  1.0000
  H   H1400     1.0  0.20927  0.81080  0.51707  1.0000
  H   H1401     1.0  0.18263  0.90141  0.58905  1.0000
  C   C828      1.0  0.46079  0.97292  0.67474  1.0000
  H   H1402     1.0  0.03079  0.73607  0.52193  1.0000
  C   C829      1.0  0.27908  0.97932  0.60971  1.0000
  H   H1403     1.0  0.24746  0.91762  0.53783  1.0000
  C   C830      1.0  0.14943  0.84978  0.49205  1.0000
  H   H1404     1.0  0.39790  0.97239  0.67476  1.0000
  H   H1405     1.0  0.23743  0.94324  0.53828  1.0000
  C   C831      1.0  0.35999  0.75471  0.52991  1.0000
  H   H1406     1.0  0.05545  0.75848  0.49323  1.0000
  H   H1407     1.0  0.12564  0.95733  0.53913  1.0000
  C   C832      1.0  0.24138  0.93125  0.52846  1.0000
  N   N61       1.0  0.25104  0.95395  0.49562  1.0000
  H   H1408     1.0  0.11730  0.93500  0.55255  1.0000
  S   S249      1.0  0.41386  0.68525  0.50545  1.0000
  Fe  Fe124     1.0  0.33445  0.86598  0.48432  1.0000
  H   H1409     1.0  0.99707  0.95519  0.70780  1.0000
  H   H1410     1.0  0.19484  0.96435  0.62096  1.0000
  H   H1411     1.0  0.12358  0.97554  0.60831  1.0000
  C   C833      1.0  0.13338  0.96839  0.59609  1.0000
  H   H1412     1.0  0.02036  0.94619  0.64067  1.0000
  H   H1413     1.0  0.42536  0.83728  0.55759  1.0000
  C   C834      1.0  0.18429  0.93700  0.51290  1.0000
  C   C835      1.0  0.02987  0.73365  0.49011  1.0000
  H   H1414     1.0  0.39893  0.83845  0.55875  1.0000
  S   S250      1.0  0.19162  0.95640  0.54292  1.0000
  H   H1415     1.0  0.34238  0.95381  0.58799  1.0000
  H   H1416     1.0  0.03457  0.71049  0.51607  1.0000
  H   H1417     1.0  0.06383  0.70416  0.49543  1.0000
  H   H1418     1.0  0.04298  0.93440  0.61637  1.0000
  H   H1419     1.0  0.24451  0.97808  0.53558  1.0000
  Fe  Fe125     1.0  0.36484  0.82789  0.48858  1.0000
  C   C836      1.0  0.16159  0.94277  0.70243  1.0000
  H   H1420     1.0  0.43709  0.95559  0.68776  1.0000
  H   H1421     1.0  0.23199  0.83457  0.51375  1.0000
  C   C837      1.0  0.14657  0.97396  0.64276  1.0000
  C   C838      1.0  0.04537  0.90360  0.63159  1.0000
  C   C839      1.0  0.19258  0.93511  0.71924  1.0000
  C   C840      1.0  0.03235  0.90728  0.66655  1.0000
  C   C841      1.0  0.40677  0.97902  0.70271  1.0000
  H   H1422     1.0  0.21064  0.84523  0.50166  1.0000
  H   H1423     1.0  0.15192  0.93677  0.69346  1.0000
  H   H1424     1.0  0.32416  0.91350  0.62046  1.0000
  C   C842      1.0  0.12342  0.94877  0.55430  1.0000
  H   H1425     1.0  0.33115  0.89850  0.60055  1.0000
  C   C843      1.0  0.25746  0.93655  0.51074  1.0000
  C   C844      1.0  0.48164  0.65900  0.50270  1.0000
  C   C845      1.0  0.30443  0.94803  0.56176  1.0000
  C   C846      1.0  0.05317  0.92400  0.62561  1.0000
  C   C847      1.0  0.01879  0.87299  0.63148  1.0000
  H   H1426     1.0  0.01156  0.85914  0.63612  1.0000
  H   H1427     1.0  0.14885  0.88775  0.72718  1.0000
  H   H1428     1.0  0.34436  0.91942  0.60190  1.0000
  H   H1429     1.0  0.43132  0.97274  0.66677  1.0000
  H   H1430     1.0  0.05569  0.93093  0.63857  1.0000
  N   N62       1.0  0.09667  0.75189  0.62105  1.0000
  C   C848      1.0  0.10821  0.76488  0.60480  1.0000
  C   C849      1.0  0.08957  0.76396  0.63825  1.0000
  C   C850      1.0  0.07864  0.74746  0.61264  1.0000
  C   C851      1.0  0.11027  0.73291  0.62676  1.0000
  C   C852      1.0  0.11558  0.75597  0.58503  1.0000
  C   C853      1.0  0.10614  0.77211  0.64678  1.0000
  C   C854      1.0  0.06386  0.73521  0.62686  1.0000
  C   C855      1.0  0.10525  0.72158  0.64790  1.0000
  H   H1431     1.0  0.09905  0.77957  0.60101  1.0000
  H   H1432     1.0  0.12196  0.76846  0.60992  1.0000
  H   H1433     1.0  0.08103  0.75554  0.65097  1.0000
  H   H1434     1.0  0.07860  0.77704  0.63370  1.0000
  H   H1435     1.0  0.06974  0.76167  0.60688  1.0000
  H   H1436     1.0  0.08333  0.73891  0.59966  1.0000
  H   H1437     1.0  0.11090  0.72219  0.61573  1.0000
  H   H1438     1.0  0.12598  0.73628  0.62606  1.0000
  H   H1439     1.0  0.12420  0.74087  0.58729  1.0000
  H   H1440     1.0  0.10295  0.75555  0.57652  1.0000
  H   H1441     1.0  0.12576  0.76577  0.57529  1.0000
  H   H1442     1.0  0.11126  0.78530  0.63682  1.0000
  H   H1443     1.0  0.09985  0.77742  0.66136  1.0000
  H   H1444     1.0  0.11920  0.76062  0.64930  1.0000
  H   H1445     1.0  0.07075  0.71958  0.63069  1.0000
  H   H1446     1.0  0.05084  0.73435  0.61895  1.0000
  H   H1447     1.0  0.05759  0.74225  0.64048  1.0000
  H   H1448     1.0  0.10956  0.70529  0.64724  1.0000
  H   H1449     1.0  0.08925  0.72351  0.65427  1.0000
  H   H1450     1.0  0.11461  0.72547  0.65849  1.0000
  N   N63       1.0  0.14348  0.93375  0.58364  1.0000
  C   C856      1.0  0.12987  0.94629  0.59794  1.0000
  C   C857      1.0  0.13567  0.91392  0.58509  1.0000
  C   C858      1.0  0.14390  0.94391  0.56241  1.0000
  C   C859      1.0  0.16452  0.93098  0.58924  1.0000
  C   C860      1.0  0.16537  0.97759  0.63249  1.0000
  C   C861      1.0  0.13634  0.90058  0.60541  1.0000
  C   C862      1.0  0.34500  0.95482  0.57147  1.0000
  C   C863      1.0  0.17988  0.91541  0.57872  1.0000
  H   H1451     1.0  0.11375  0.94606  0.59656  1.0000
  H   H1452     1.0  0.13150  0.93995  0.61371  1.0000
  H   H1453     1.0  0.14381  0.90501  0.57325  1.0000
  H   H1454     1.0  0.11965  0.91618  0.58237  1.0000
  H   H1455     1.0  0.15070  0.95806  0.56058  1.0000
  H   H1456     1.0  0.15378  0.93466  0.55183  1.0000
  H   H1457     1.0  0.17096  0.94540  0.58623  1.0000
  H   H1458     1.0  0.16418  0.92629  0.60558  1.0000
  C   C864      1.0  0.24099  0.97180  0.50566  1.0000
  S   S251      1.0  0.46639  0.66966  0.52259  1.0000
  S   S252      1.0  0.21124  0.98290  0.57990  1.0000
  H   H1459     1.0  0.13009  0.88656  0.60469  1.0000
  H   H1460     1.0  0.15184  0.89615  0.60924  1.0000
  H   H1461     1.0  0.12699  0.90782  0.61778  1.0000
  H   H1462     1.0  0.33789  0.90765  0.53464  1.0000
  C   C865      1.0  0.00672  0.93869  0.64517  1.0000
  C   C866      1.0  0.28249  0.94380  0.56337  1.0000
  H   H1463     1.0  0.01020  0.72492  0.51722  1.0000
  H   H1464     1.0  0.17588  0.91191  0.56458  1.0000
  H   H1465     1.0  0.30390  0.96131  0.56964  1.0000
  N   N64       1.0  0.40225  0.79845  0.54551  1.0000
  C   C867      1.0  0.41643  0.81393  0.54354  1.0000
  C   C868      1.0  0.38065  0.80837  0.54698  1.0000
  C   C869      1.0  0.40621  0.78898  0.52636  1.0000
  C   C870      1.0  0.40614  0.78285  0.56305  1.0000
  C   C871      1.0  0.41293  0.82789  0.55987  1.0000
  C   C872      1.0  0.36947  0.81080  0.56812  1.0000
  C   C873      1.0  0.42779  0.77887  0.52068  1.0000
  C   C874      1.0  0.39483  0.76442  0.56499  1.0000
  H   H1466     1.0  0.43225  0.80667  0.54354  1.0000
  H   H1467     1.0  0.41590  0.82374  0.52896  1.0000
  H   H1468     1.0  0.37105  0.80002  0.54014  1.0000
  H   H1469     1.0  0.37961  0.82338  0.53792  1.0000
  H   H1470     1.0  0.39622  0.77738  0.52686  1.0000
  H   H1471     1.0  0.40234  0.80026  0.51344  1.0000
  H   H1472     1.0  0.42246  0.77726  0.56249  1.0000
  H   H1473     1.0  0.40283  0.78920  0.57746  1.0000
  Fe  Fe126     1.0  0.40148  0.65738  0.50223  1.0000
  C   C875      1.0  0.34009  0.93623  0.56366  1.0000
  H   H1474     1.0  0.41287  0.81958  0.57511  1.0000
  H   H1475     1.0  0.36599  0.79622  0.57642  1.0000
  H   H1476     1.0  0.37763  0.81816  0.57725  1.0000
  H   H1477     1.0  0.35484  0.82032  0.56662  1.0000
  H   H1478     1.0  0.43871  0.78988  0.51680  1.0000
  H   H1479     1.0  0.42805  0.77156  0.50707  1.0000
  H   H1480     1.0  0.43277  0.76695  0.53246  1.0000
  H   H1481     1.0  0.40394  0.75242  0.55691  1.0000
  H   H1482     1.0  0.38016  0.76812  0.55910  1.0000
  H   H1483     1.0  0.39135  0.75850  0.58100  1.0000
  H   H1484     1.0  0.18653  0.92353  0.52331  1.0000
  H   H1485     1.0  0.00194  0.93941  0.66135  1.0000
  C   C876      1.0  0.14393  0.83137  0.50152  1.0000
  H   H1486     1.0  0.21202  0.89487  0.68018  1.0000
  H   H1487     1.0  0.31211  0.94275  0.59859  1.0000
  H   H1488     1.0  0.99482  0.91121  0.64620  1.0000
  N   N65       1.0  0.31905  0.93106  0.57006  1.0000
  C   C877      1.0  0.00549  0.96421  0.69606  1.0000
  C   C878      1.0  0.02181  0.88176  0.65031  1.0000
  S   S253      1.0  0.31488  0.97016  0.62534  1.0000
  C   C879      1.0  0.08527  0.74375  0.48472  1.0000
  C   C880      1.0  0.12356  0.82918  0.50746  1.0000
  C   C881      1.0  0.18545  0.95562  0.51883  1.0000
  H   H1489     1.0  0.11929  0.81477  0.51407  1.0000
  H   H1490     1.0  0.35012  0.75406  0.54392  1.0000
  N   N66       1.0  0.02701  0.90291  0.64705  1.0000
  C   C882      1.0  0.35986  0.77278  0.51682  1.0000
  C   C883      1.0  0.25580  0.81975  0.48399  1.0000
  H   H1491     1.0  0.31306  0.90083  0.53502  1.0000
  H   H1492     1.0  0.15528  0.97203  0.68548  1.0000
  S   S254      1.0  0.38876  0.84437  0.49575  1.0000
  C   C884      1.0  0.32949  0.91400  0.60420  1.0000
  C   C885      1.0  0.39165  0.98074  0.68755  1.0000
  C   C886      1.0  0.23426  0.86344  0.49687  1.0000
  H   H1493     1.0  0.15127  0.94780  0.71550  1.0000
  C   C887      1.0  0.22740  0.84253  0.49934  1.0000
  H   H1494     1.0  0.15534  0.81864  0.50367  1.0000
  H   H1495     1.0  0.11220  0.95818  0.56362  1.0000
  H   H1496     1.0  0.02253  0.74935  0.48845  1.0000
  C   C888      1.0  0.32159  0.91184  0.53948  1.0000
  H   H1497     1.0  0.19768  0.92947  0.68098  1.0000
  H   H1498     1.0  0.25723  0.81206  0.49936  1.0000
  H   H1499     1.0  0.05806  0.89262  0.63675  1.0000
  C   C889      1.0  0.18252  0.97295  0.50529  1.0000
  C   C890      1.0  0.31413  0.92823  0.59253  1.0000
  H   H1500     1.0  0.06795  0.92184  0.61616  1.0000
  H   H1501     1.0  0.27102  0.93893  0.51704  1.0000
  H   H1502     1.0  0.40880  0.96305  0.70924  1.0000
  C   C891      1.0  0.20473  0.89950  0.69478  1.0000
  H   H1503     1.0  0.00984  0.91794  0.62347  1.0000
  H   H1504     1.0  0.03345  0.86839  0.62265  1.0000
  H   H1505     1.0  0.04656  0.89789  0.67008  1.0000
  H   H1506     1.0  0.17869  0.91429  0.68135  1.0000
  C   C892      1.0  0.01649  0.90353  0.68494  1.0000
  C   C893      1.0  0.11436  0.86401  0.49524  1.0000
  C   C894      1.0  0.31754  0.91175  0.56241  1.0000
  H   H1507     1.0  0.34330  0.93889  0.54707  1.0000
  H   H1508     1.0  0.22738  0.87363  0.48480  1.0000
  H   H1509     1.0  0.29946  0.92237  0.59710  1.0000
  H   H1510     1.0  0.19761  0.88659  0.70308  1.0000
  H   H1511     1.0  0.00765  0.88059  0.66074  1.0000
  H   H1512     1.0  0.27308  0.95779  0.55804  1.0000
  H   H1513     1.0  0.36124  0.95618  0.56695  1.0000
  H   H1514     1.0  0.06247  0.73548  0.50781  1.0000
  C   C895      1.0  0.06281  0.74286  0.49218  1.0000
  H   H1515     1.0  0.04256  0.89917  0.61730  1.0000
  C   C896      1.0  0.99287  0.77745  0.50212  1.0000
  C   C897      1.0  0.16870  0.96152  0.68938  1.0000
  H   H1516     1.0  0.46958  0.96779  0.68744  1.0000
  H   H1517     1.0  0.25074  0.86312  0.49437  1.0000
  H   H1518     1.0  0.28101  0.93232  0.55389  1.0000
  C   C898      1.0  0.15424  0.89942  0.71527  1.0000
  H   H1519     1.0  0.22887  0.87027  0.51084  1.0000
  Fe  Fe127     1.0  0.38907  0.98282  0.62773  1.0000
  H   H1520     1.0  0.46673  0.96302  0.66305  1.0000
  H   H1521     1.0  0.10294  0.87666  0.49271  1.0000
  H   H1522     1.0  0.26220  0.92272  0.50347  1.0000
  C   C899      1.0  0.13466  0.86618  0.48934  1.0000
  C   C900      1.0  0.16844  0.91090  0.72365  1.0000
  H   H1523     1.0  0.17754  0.95794  0.67505  1.0000
  H   H1524     1.0  0.45406  0.66055  0.58857  1.0000
  H   H1525     1.0  0.20879  0.78938  0.50514  1.0000
  H   H1526     1.0  0.22606  0.96888  0.51391  1.0000
  C   C901      1.0  0.43819  0.97125  0.68090  1.0000
  H   H1527     1.0  0.16166  0.89172  0.70238  1.0000
  H   H1528     1.0  0.26821  0.97070  0.52143  1.0000
  H   H1529     1.0  0.35855  0.66099  0.49220  1.0000
  H   H1530     1.0  0.12935  0.97698  0.58181  1.0000
  H   H1531     1.0  0.09140  0.75242  0.49450  1.0000
  S   S255      1.0  0.35638  0.88505  0.49102  1.0000
  S   S256      1.0  0.36266  0.97618  0.65067  1.0000
  C   C902      1.0  0.25304  0.97897  0.52031  1.0000
  H   H1532     1.0  0.20370  0.92293  0.72533  1.0000
  C   C903      1.0  0.44236  0.96728  0.72544  1.0000
  C   C904      1.0  0.99627  0.98278  0.68777  1.0000
  H   H1533     1.0  0.37807  0.97403  0.69501  1.0000
  H   H1534     1.0  0.09405  0.72866  0.48622  1.0000
  H   H1535     1.0  0.45036  0.95497  0.71720  1.0000
  H   H1536     1.0  0.22211  0.94493  0.49391  1.0000
  H   H1537     1.0  0.17981  0.92122  0.48896  1.0000
  H   H1538     1.0  0.45464  0.65338  0.56450  1.0000
  C   C905      1.0  0.42428  0.91901  0.73195  1.0000
  H   H1539     1.0  0.43893  0.98445  0.62403  1.0000
  H   H1540     1.0  0.13882  0.88055  0.48264  1.0000
  N   N67       1.0  0.23457  0.82983  0.48262  1.0000
  H   H1541     1.0  0.18006  0.89977  0.73044  1.0000
  H   H1542     1.0  0.02087  0.72523  0.48267  1.0000
  S   S257      1.0  0.17458  0.85173  0.48234  1.0000
  C   C906      1.0  0.38195  0.84368  0.90943  1.0000
  S   S258      1.0  0.44276  0.91372  0.74868  1.0000
  S   S259      1.0  0.12645  0.85883  0.95852  1.0000
  C   C907      1.0  0.40363  0.76455  0.89523  1.0000
  H   H1543     1.0  0.38250  0.69549  0.96116  1.0000
  S   S260      1.0  0.16502  0.96088  0.87498  1.0000
  C   C908      1.0  0.40380  0.66868  0.96157  1.0000
  Fe  Fe128     1.0  0.15539  0.95329  0.82107  1.0000
  S   S261      1.0  0.13548  0.94283  0.84892  1.0000
  S   S262      1.0  0.14942  0.95534  0.78843  1.0000
  C   C909      1.0  0.18659  0.90926  0.93946  1.0000
  Fe  Fe129     1.0  0.16412  0.93214  0.86270  1.0000
  S   S263      1.0  0.17358  0.90171  0.87988  1.0000
  C   C910      1.0  0.26840  0.96205  0.82610  1.0000
  S   S264      1.0  0.18410  0.94056  0.83397  1.0000
  C   C911      1.0  0.25497  0.94536  0.82716  1.0000
  C   C912      1.0  0.41338  0.97809  0.86199  1.0000
  S   S265      1.0  0.08401  0.66939  0.91490  1.0000
  C   C913      1.0  0.36641  0.96588  0.81911  1.0000
  H   H1544     1.0  0.41327  0.85587  0.92427  1.0000
  Fe  Fe130     1.0  0.10656  0.67496  0.93424  1.0000
  S   S266      1.0  0.12487  0.70146  0.92764  1.0000
  H   H1545     1.0  0.37002  0.84425  0.92242  1.0000
  H   H1546     1.0  0.46855  0.74888  0.86640  1.0000
  Fe  Fe131     1.0  0.40889  0.92568  0.81937  1.0000
  S   S267      1.0  0.42362  0.89678  0.80865  1.0000
  S   S268      1.0  0.37785  0.92782  0.83637  1.0000
  Fe  Fe132     1.0  0.44666  0.94643  0.80769  1.0000
  S   S269      1.0  0.46434  0.91875  0.79686  1.0000
  Fe  Fe133     1.0  0.43707  0.91677  0.78206  1.0000
  Fe  Fe134     1.0  0.44901  0.90163  0.82453  1.0000
  S   S270      1.0  0.46518  0.87950  0.84744  1.0000
  S   S271      1.0  0.42009  0.94522  0.79183  1.0000
  S   S272      1.0  0.43357  0.92984  0.83632  1.0000
  Fe  Fe135     1.0  0.44878  0.74421  0.95435  1.0000
  H   H1547     1.0  0.47931  0.85537  0.88201  1.0000
  H   H1548     1.0  0.39889  0.73347  0.87675  1.0000
  Fe  Fe136     1.0  0.44393  0.78763  0.93311  1.0000
  S   S273      1.0  0.45201  0.80035  0.95914  1.0000
  S   S274      1.0  0.43210  0.80540  0.90510  1.0000
  H   H1549     1.0  0.19551  0.95200  0.74320  1.0000
  H   H1550     1.0  0.17573  0.92265  0.94262  1.0000
  H   H1551     1.0  0.15314  0.90345  0.96311  1.0000
  S   S275      1.0  0.46989  0.76278  0.93348  1.0000
  S   S276      1.0  0.42223  0.76806  0.95208  1.0000
  H   H1552     1.0  0.16698  0.65338  0.96522  1.0000
  H   H1553     1.0  0.39884  0.92339  0.75449  1.0000
  C   C914      1.0  0.44142  0.82621  0.88954  1.0000
  C   C915      1.0  0.45873  0.83362  0.89265  1.0000
  C   C916      1.0  0.46569  0.84999  0.87970  1.0000
  C   C917      1.0  0.45531  0.85936  0.86369  1.0000
  C   C918      1.0  0.43776  0.85219  0.86083  1.0000
  C   C919      1.0  0.43099  0.83560  0.87357  1.0000
  H   H1554     1.0  0.42969  0.85913  0.84850  1.0000
  H   H1555     1.0  0.41764  0.82995  0.87094  1.0000
  C   C920      1.0  0.39822  0.68947  0.96068  1.0000
  H   H1556     1.0  0.46287  0.71765  0.89169  1.0000
  C   C921      1.0  0.36744  0.95277  0.83685  1.0000
  C   C922      1.0  0.36012  0.95963  0.85522  1.0000
  Fe  Fe137     1.0  0.18329  0.96991  0.84569  1.0000
  H   H1557     1.0  0.17246  0.67450  0.94723  1.0000
  H   H1558     1.0  0.36111  0.94956  0.86898  1.0000
  C   C923      1.0  0.41325  0.87036  0.91436  1.0000
  H   H1559     1.0  0.46649  0.76252  0.88777  1.0000
  H   H1560     1.0  0.17527  0.87118  0.95788  1.0000
  C   C924      1.0  0.32869  0.96221  0.95169  1.0000
  C   C925      1.0  0.35193  0.97963  0.85590  1.0000
  H   H1561     1.0  0.42990  0.76039  0.91032  1.0000
  H   H1562     1.0  0.40912  0.73666  0.85118  1.0000
  C   C926      1.0  0.18329  0.94671  0.73696  1.0000
  H   H1563     1.0  0.46694  0.82656  0.90483  1.0000
  C   C927      1.0  0.41285  0.70255  0.95900  1.0000
  C   C928      1.0  0.43328  0.69497  0.95744  1.0000
  C   C929      1.0  0.31141  0.97326  0.96039  1.0000
  C   C930      1.0  0.13227  0.74475  0.97141  1.0000
  C   C931      1.0  0.33730  0.94481  0.96252  1.0000
  Fe  Fe138     1.0  0.14075  0.83404  0.98009  1.0000
  C   C932      1.0  0.13524  0.94109  0.77713  1.0000
  C   C933      1.0  0.13063  0.94794  0.75761  1.0000
  C   C934      1.0  0.12032  0.93669  0.74758  1.0000
  C   C935      1.0  0.11456  0.91837  0.75693  1.0000
  C   C936      1.0  0.11873  0.91179  0.77663  1.0000
  C   C937      1.0  0.12900  0.92305  0.78669  1.0000
  H   H1564     1.0  0.13517  0.96198  0.75014  1.0000
  H   H1565     1.0  0.40045  0.89148  0.86693  1.0000
  H   H1566     1.0  0.11422  0.89771  0.78408  1.0000
  H   H1567     1.0  0.13240  0.91757  0.80170  1.0000
  H   H1568     1.0  0.37710  0.83484  0.89896  1.0000
  Fe  Fe139     1.0  0.13803  0.97241  0.85879  1.0000
  H   H1569     1.0  0.15184  0.69741  0.97096  1.0000
  N   N68       1.0  0.43403  0.73654  0.89184  1.0000
  C   C938      1.0  0.12668  0.71874  0.94427  1.0000
  H   H1570     1.0  0.45460  0.66817  0.95730  1.0000
  H   H1571     1.0  0.08406  0.97920  0.83593  1.0000
  H   H1572     1.0  0.42164  0.89942  0.91953  1.0000
  H   H1573     1.0  0.26691  0.93996  0.86557  1.0000
  S   S277      1.0  0.34089  0.97074  0.92811  1.0000
  C   C939      1.0  0.13977  0.87056  0.93669  1.0000
  C   C940      1.0  0.13140  0.88920  0.92768  1.0000
  C   C941      1.0  0.14154  0.89897  0.91028  1.0000
  C   C942      1.0  0.16005  0.89004  0.90161  1.0000
  C   C943      1.0  0.16831  0.87129  0.91053  1.0000
  C   C944      1.0  0.15824  0.86159  0.92799  1.0000
  H   H1574     1.0  0.11705  0.89619  0.93423  1.0000
  H   H1575     1.0  0.13501  0.91337  0.90354  1.0000
  H   H1576     1.0  0.18262  0.86427  0.90390  1.0000
  H   H1577     1.0  0.16478  0.84719  0.93469  1.0000
  N   N69       1.0  0.11849  0.80418  0.92651  1.0000
  C   C945      1.0  0.13633  0.81508  0.91789  1.0000
  C   C946      1.0  0.09998  0.81742  0.92030  1.0000
  C   C947      1.0  0.12100  0.78500  0.91727  1.0000
  C   C948      1.0  0.11817  0.80006  0.94893  1.0000
  C   C949      1.0  0.15732  0.80300  0.91939  1.0000
  C   C950      1.0  0.09625  0.83829  0.92742  1.0000
  C   C951      1.0  0.10424  0.77150  0.92347  1.0000
  H   H1578     1.0  0.43386  0.76863  0.88427  1.0000
  H   H1579     1.0  0.13570  0.82077  0.90176  1.0000
  H   H1580     1.0  0.13613  0.82857  0.92541  1.0000
  H   H1581     1.0  0.08609  0.81044  0.92546  1.0000
  H   H1582     1.0  0.10076  0.81977  0.90368  1.0000
  H   H1583     1.0  0.12276  0.78828  0.90063  1.0000
  H   H1584     1.0  0.13494  0.77526  0.92105  1.0000
  H   H1585     1.0  0.48554  0.74189  0.88473  1.0000
  H   H1586     1.0  0.12278  0.81299  0.95463  1.0000
  H   H1587     1.0  0.16886  0.81345  0.91640  1.0000
  H   H1588     1.0  0.15862  0.79453  0.93439  1.0000
  H   H1589     1.0  0.16115  0.79257  0.90791  1.0000
  H   H1590     1.0  0.09657  0.83751  0.94372  1.0000
  H   H1591     1.0  0.10727  0.84813  0.91931  1.0000
  H   H1592     1.0  0.08114  0.84573  0.92422  1.0000
  H   H1593     1.0  0.10382  0.76498  0.93939  1.0000
  H   H1594     1.0  0.10773  0.75856  0.91475  1.0000
  H   H1595     1.0  0.08926  0.77909  0.92022  1.0000
  H   H1596     1.0  0.28908  0.79944  0.96918  1.0000
  H   H1597     1.0  0.08665  0.79154  0.95354  1.0000
  C   C952      1.0  0.31505  0.93794  0.85195  1.0000
  S   S278      1.0  0.08720  0.66778  0.96326  1.0000
  C   C953      1.0  0.46965  0.74751  0.88261  1.0000
  H   H1598     1.0  0.26790  0.95565  0.89434  1.0000
  H   H1599     1.0  0.17515  0.68570  0.97776  1.0000
  H   H1600     1.0  0.20099  0.84579  0.94617  1.0000
  H   H1601     1.0  0.39942  0.76552  0.87998  1.0000
  H   H1602     1.0  0.39606  0.83528  0.91427  1.0000
  H   H1603     1.0  0.11687  0.94214  0.73260  1.0000
  H   H1604     1.0  0.37039  0.87138  0.89300  1.0000
  H   H1605     1.0  0.36228  0.87885  0.92712  1.0000
  C   C954      1.0  0.42316  0.72225  0.90720  1.0000
  C   C955      1.0  0.29117  0.97888  0.84029  1.0000
  H   H1606     1.0  0.38198  0.86662  0.94078  1.0000
  C   C956      1.0  0.45594  0.73282  0.89509  1.0000
  H   H1607     1.0  0.15698  0.75319  0.94974  1.0000
  H   H1608     1.0  0.44388  0.72096  0.86599  1.0000
  S   S279      1.0  0.38508  0.65309  0.96139  1.0000
  H   H1609     1.0  0.17284  0.96014  0.73240  1.0000
  C   C957      1.0  0.39125  0.89898  0.89781  1.0000
  H   H1610     1.0  0.39571  0.86223  0.88473  1.0000
  C   C958      1.0  0.42418  0.66106  0.96088  1.0000
  C   C959      1.0  0.38498  0.86471  0.89841  1.0000
  H   H1611     1.0  0.41914  0.98062  0.83014  1.0000
  H   H1612     1.0  0.37206  0.96055  0.80488  1.0000
  H   H1613     1.0  0.42417  0.72560  0.92250  1.0000
  H   H1614     1.0  0.39500  0.91062  0.90589  1.0000
  H   H1615     1.0  0.15191  0.73062  0.92579  1.0000
  H   H1616     1.0  0.35068  0.93624  0.95589  1.0000
  H   H1617     1.0  0.41989  0.69077  0.91616  1.0000
  C   C960      1.0  0.40379  0.92333  0.73867  1.0000
  H   H1618     1.0  0.44533  0.69560  0.91270  1.0000
  C   C961      1.0  0.48342  0.97013  0.83163  1.0000
  H   H1619     1.0  0.45203  0.96947  0.73656  1.0000
  H   H1620     1.0  0.44103  0.87933  0.92020  1.0000
  C   C962      1.0  0.29799  0.94200  0.83862  1.0000
  N   N70       1.0  0.39215  0.87873  0.91029  1.0000
  H   H1621     1.0  0.17827  0.89751  0.93648  1.0000
  H   H1622     1.0  0.26388  0.93056  0.82560  1.0000
  C   C963      1.0  0.42460  0.88323  0.92450  1.0000
  S   S280      1.0  0.10220  0.90326  0.74467  1.0000
  C   C964      1.0  0.37654  0.89853  0.94013  1.0000
  C   C965      1.0  0.15379  0.89635  0.97867  1.0000
  S   S281      1.0  0.16545  0.81032  0.97063  1.0000
  H   H1623     1.0  0.21549  0.89781  0.94942  1.0000
  H   H1624     1.0  0.29308  0.95495  0.88202  1.0000
  H   H1625     1.0  0.40020  0.77997  0.89940  1.0000
  H   H1626     1.0  0.39329  0.98313  0.83962  1.0000
  H   H1627     1.0  0.40380  0.91593  0.87063  1.0000
  C   C966      1.0  0.14188  0.73132  0.93965  1.0000
  H   H1628     1.0  0.32876  0.93032  0.84372  1.0000
  H   H1629     1.0  0.42293  0.86622  0.90055  1.0000
  H   H1630     1.0  0.42127  0.88033  0.94104  1.0000
  C   C967      1.0  0.40508  0.90013  0.87767  1.0000
  H   H1631     1.0  0.20891  0.86955  0.93667  1.0000
  N   N71       1.0  0.19287  0.88713  0.97304  1.0000
  H   H1632     1.0  0.41282  0.71265  0.86504  1.0000
  H   H1633     1.0  0.31794  0.97271  0.81826  1.0000
  H   H1634     1.0  0.10922  0.95648  0.81677  1.0000
  H   H1635     1.0  0.10182  0.71052  0.96581  1.0000
  C   C968      1.0  0.37792  0.83071  0.97414  1.0000
  H   H1636     1.0  0.36862  0.91178  0.93163  1.0000
  H   H1637     1.0  0.31078  0.92821  0.86602  1.0000
  H   H1638     1.0  0.14923  0.88116  0.98031  1.0000
  Fe  Fe140     1.0  0.47607  0.77389  0.96121  1.0000
  C   C969      1.0  0.26954  0.95592  0.86218  1.0000
  C   C970      1.0  0.14471  0.74424  0.95314  1.0000
  H   H1639     1.0  0.17541  0.93719  0.74934  1.0000
  C   C971      1.0  0.11383  0.71979  0.96223  1.0000
  H   H1640     1.0  0.29101  0.92794  0.84094  1.0000
  H   H1641     1.0  0.42744  0.98264  0.86533  1.0000
  H   H1642     1.0  0.09242  0.95685  0.79830  1.0000
  C   C972      1.0  0.43884  0.67417  0.95855  1.0000
  C   C973      1.0  0.39247  0.81460  0.97909  1.0000
  N   N72       1.0  0.28218  0.95961  0.84210  1.0000
  H   H1643     1.0  0.25805  0.97635  0.82644  1.0000
  H   H1644     1.0  0.24581  0.94894  0.81453  1.0000
  H   H1645     1.0  0.10072  0.78396  0.97393  1.0000
  H   H1646     1.0  0.37505  0.83468  0.95880  1.0000
  C   C974      1.0  0.37802  0.87971  0.92960  1.0000
  H   H1647     1.0  0.36733  0.89612  0.95499  1.0000
  H   H1648     1.0  0.42115  0.89540  0.87949  1.0000
  H   H1649     1.0  0.18571  0.85680  0.97815  1.0000
  C   C975      1.0  0.09785  0.79615  0.96156  1.0000
  H   H1650     1.0  0.24407  0.94446  0.84100  1.0000
  H   H1651     1.0  0.43649  0.74698  0.86010  1.0000
  S   S282      1.0  0.45800  0.97677  0.80237  1.0000
  H   H1652     1.0  0.30498  0.94284  0.82272  1.0000
  C   C976      1.0  0.42628  0.75775  0.89558  1.0000
  H   H1653     1.0  0.40833  0.71850  0.95825  1.0000
  H   H1654     1.0  0.41586  0.96160  0.86213  1.0000
  C   C977      1.0  0.43255  0.73359  0.87059  1.0000
  Fe  Fe141     1.0  0.06572  0.66005  0.94441  1.0000
  H   H1655     1.0  0.12955  0.78714  0.95297  1.0000
  H   H1656     1.0  0.40102  0.80643  0.96750  1.0000
  H   H1657     1.0  0.31989  0.95160  0.85558  1.0000
  H   H1658     1.0  0.30036  0.97908  0.85241  1.0000
  H   H1659     1.0  0.21991  0.85391  0.95732  1.0000
  H   H1660     1.0  0.40683  0.72403  0.90633  1.0000
  C   C978      1.0  0.27734  0.96138  0.88056  1.0000
  H   H1661     1.0  0.39129  0.90188  0.94283  1.0000
  H   H1662     1.0  0.45747  0.73303  0.91112  1.0000
  S   S283      1.0  0.45241  0.71087  0.95196  1.0000
  C   C979      1.0  0.47577  0.98322  0.81598  1.0000
  H   H1663     1.0  0.19622  0.91307  0.92514  1.0000
  C   C980      1.0  0.41211  0.72885  0.86614  1.0000
  H   H1664     1.0  0.37556  0.90430  0.89452  1.0000
  H   H1665     1.0  0.39407  0.75529  0.90629  1.0000
  S   S284      1.0  0.03291  0.67020  0.95393  1.0000
  H   H1666     1.0  0.08629  0.94618  0.82357  1.0000
  H   H1667     1.0  0.31443  0.81988  0.95562  1.0000
  H   H1668     1.0  0.27711  0.96293  0.81090  1.0000
  C   C981      1.0  0.20586  0.85921  0.95058  1.0000
  H   H1669     1.0  0.40087  0.98117  0.87406  1.0000
  Fe  Fe142     1.0  0.43243  0.77908  0.97792  1.0000
  C   C982      1.0  0.29535  0.78570  0.97821  1.0000
  H   H1670     1.0  0.47832  0.95560  0.83581  1.0000
  H   H1671     1.0  0.27571  0.97784  0.88029  1.0000
  C   C983      1.0  0.09328  0.95863  0.81405  1.0000
  H   H1672     1.0  0.48972  0.96566  0.75877  1.0000
  H   H1673     1.0  0.06581  0.97764  0.82010  1.0000
  H   H1674     1.0  0.43238  0.69557  0.89124  1.0000
  H   H1675     1.0  0.42831  0.96245  0.73408  1.0000
  C   C984      1.0  0.43081  0.69985  0.90650  1.0000
  H   H1676     1.0  0.09098  0.80945  0.96896  1.0000
  C   C985      1.0  0.16162  0.66913  0.96004  1.0000
  C   C986      1.0  0.19992  0.90264  0.95639  1.0000
  C   C987      1.0  0.18892  0.86857  0.96543  1.0000
  H   H1677     1.0  0.33434  0.82767  0.96645  1.0000
  C   C988      1.0  0.08202  0.97874  0.82003  1.0000
  H   H1678     1.0  0.20139  0.91658  0.96244  1.0000
  H   H1679     1.0  0.31335  0.84519  0.96011  1.0000
  H   H1680     1.0  0.14704  0.66992  0.95419  1.0000
  H   H1681     1.0  0.32690  0.78990  0.97403  1.0000
  H   H1682     1.0  0.15925  0.91753  0.73651  1.0000
  C   C989      1.0  0.31788  0.82940  0.96621  1.0000
  C   C990      1.0  0.15975  0.68266  0.97666  1.0000
  H   H1683     1.0  0.34534  0.98386  0.97364  1.0000
  H   H1684     1.0  0.25431  0.96466  0.86199  1.0000
  H   H1685     1.0  0.20506  0.98274  0.88483  1.0000
  H   H1686     1.0  0.29902  0.77376  0.96828  1.0000
  S   S285      1.0  0.15627  0.98350  0.83043  1.0000
  H   H1687     1.0  0.22362  0.87473  0.97753  1.0000
  C   C991      1.0  0.11671  0.73262  0.97573  1.0000
  C   C992      1.0  0.30473  0.98423  0.82057  1.0000
  C   C993      1.0  0.30334  0.96741  0.98021  1.0000
  C   C994      1.0  0.02581  0.66170  0.97928  1.0000
  H   H1688     1.0  0.11918  0.98463  0.80186  1.0000
  C   C995      1.0  0.32888  0.93863  0.98210  1.0000
  S   S286      1.0  0.45700  0.75369  0.98188  1.0000
  Fe  Fe143     1.0  0.87440  0.09463  0.00054  1.0000
  S   S287      1.0  0.85167  0.11768  0.01431  1.0000
  S   S288      1.0  0.88761  0.06473  0.01605  1.0000
  Fe  Fe144     1.0  0.87201  0.14038  0.99909  1.0000
  S   S289      1.0  0.88567  0.16019  0.01683  1.0000
  S   S290      1.0  0.88777  0.98869  0.13548  1.0000
  Fe  Fe145     1.0  0.85905  0.00142  0.12257  1.0000
  H   H1689     1.0  0.67052  0.98750  0.18672  1.0000
  S   S291      1.0  0.85211  0.03216  0.10472  1.0000
  H   H1690     1.0  0.51671  0.20678  0.11203  1.0000
  H   H1691     1.0  0.78340  0.29512  0.99208  1.0000
  S   S292      1.0  0.63174  0.27442  0.01380  1.0000
  Fe  Fe146     1.0  0.89826  0.27308  0.03449  1.0000
  S   S293      1.0  0.91565  0.28873  0.00768  1.0000
  S   S294      1.0  0.87682  0.25352  0.02590  1.0000
  Fe  Fe147     1.0  0.91452  0.29707  0.06344  1.0000
  C   C996      1.0  0.64143  0.10496  0.98472  1.0000
  H   H1692     1.0  0.65700  0.15450  0.01920  1.0000
  H   H1693     1.0  0.94255  0.25988  0.98333  1.0000
  H   H1694     1.0  0.83602  0.06206  0.07517  1.0000
  Fe  Fe148     1.0  0.94094  0.28319  0.02638  1.0000
  C   C997      1.0  0.67272  0.00032  0.02212  1.0000
  S   S295      1.0  0.88706  0.30195  0.04744  1.0000
  S   S296      1.0  0.92397  0.26641  0.05301  1.0000
  Fe  Fe149     1.0  0.54758  0.02833  0.17501  1.0000
  S   S297      1.0  0.56292  0.00019  0.16309  1.0000
  S   S298      1.0  0.53084  0.04888  0.15170  1.0000
  Fe  Fe150     1.0  0.56191  0.01426  0.21649  1.0000
  N   N73       1.0  0.75483  0.03145  0.99891  1.0000
  Fe  Fe151     1.0  0.58851  0.00512  0.17844  1.0000
  H   H1695     1.0  0.76788  0.03459  0.02530  1.0000
  C   C998      1.0  0.57446  0.17022  0.14035  1.0000
  H   H1696     1.0  0.62242  0.18851  0.00435  1.0000
  S   S299      1.0  0.57377  0.03405  0.18907  1.0000
  S   S300      1.0  0.53387  0.01147  0.20347  1.0000
  Fe  Fe152     1.0  0.56796  0.18474  0.05110  1.0000
  S   S301      1.0  0.58124  0.16808  0.02533  1.0000
  S   S302      1.0  0.56355  0.21879  0.04924  1.0000
  Fe  Fe153     1.0  0.55976  0.14584  0.07873  1.0000
  S   S303      1.0  0.57215  0.12637  0.05480  1.0000
  S   S304      1.0  0.55246  0.13488  0.11186  1.0000
  Fe  Fe154     1.0  0.59659  0.14597  0.04775  1.0000
  S   S305      1.0  0.62887  0.13233  0.04310  1.0000
  Fe  Fe155     1.0  0.55549  0.14988  0.03424  1.0000
  S   S306      1.0  0.54443  0.14122  0.00734  1.0000
  S   S307      1.0  0.58564  0.16408  0.07290  1.0000
  S   S308      1.0  0.54082  0.16807  0.05881  1.0000
  H   H1697     1.0  0.92280  0.09888  0.05058  1.0000
  C   C999      1.0  0.63345  0.12069  0.02128  1.0000
  H   H1698     1.0  0.79076  0.05838  0.99113  1.0000
  H   H1699     1.0  0.66458  0.11026  0.02442  1.0000
  C   C1000     1.0  0.87609  0.02452  0.22647  1.0000
  H   H1700     1.0  0.68427  0.14004  0.99444  1.0000
  C   C1001     1.0  0.61815  0.12195  0.00930  1.0000
  H   H1701     1.0  0.60496  0.05181  0.15526  1.0000
  Fe  Fe156     1.0  0.90667  0.31667  0.02207  1.0000
  C   C1002     1.0  0.73445  0.03782  0.00999  1.0000
  C   C1003     1.0  0.54625  0.21598  0.13237  1.0000
  C   C1004     1.0  0.54777  0.11028  0.12196  1.0000
  C   C1005     1.0  0.53852  0.09857  0.11170  1.0000
  C   C1006     1.0  0.53352  0.07975  0.12096  1.0000
  C   C1007     1.0  0.53832  0.07215  0.14024  1.0000
  C   C1008     1.0  0.54819  0.08357  0.15022  1.0000
  C   C1009     1.0  0.55256  0.10268  0.14125  1.0000
  H   H1702     1.0  0.53456  0.10432  0.09694  1.0000
  H   H1703     1.0  0.52575  0.07110  0.11318  1.0000
  H   H1704     1.0  0.55181  0.07798  0.16513  1.0000
  H   H1705     1.0  0.55959  0.11166  0.14936  1.0000
  S   S309      1.0  0.97152  0.26945  0.01317  1.0000
  H   H1706     1.0  0.84942  0.07511  0.04056  1.0000
  H   H1707     1.0  0.59454  0.07463  0.14171  1.0000
  H   H1708     1.0  0.55519  0.17705  0.10354  1.0000
  H   H1709     1.0  0.71962  0.99009  0.10548  1.0000
  C   C1010     1.0  0.54578  0.18722  0.11356  1.0000
  C   C1011     1.0  0.58698  0.03902  0.12169  1.0000
  H   H1710     1.0  0.96792  0.20959  0.99351  1.0000
  C   C1012     1.0  0.61234  0.25943  0.02354  1.0000
  C   C1013     1.0  0.61653  0.23859  0.02347  1.0000
  C   C1014     1.0  0.60177  0.22596  0.03125  1.0000
  C   C1015     1.0  0.58266  0.23405  0.03933  1.0000
  C   C1016     1.0  0.57851  0.25485  0.03961  1.0000
  C   C1017     1.0  0.59321  0.26752  0.03163  1.0000
  H   H1711     1.0  0.63132  0.23223  0.01738  1.0000
  H   H1712     1.0  0.60517  0.20999  0.03110  1.0000
  H   H1713     1.0  0.56389  0.26117  0.04621  1.0000
  H   H1714     1.0  0.58988  0.28348  0.03205  1.0000
  C   C1018     1.0  0.65272  0.11122  0.01515  1.0000
  H   H1715     1.0  0.96016  0.22034  0.02699  1.0000
  H   H1716     1.0  0.83995  0.27393  0.01111  1.0000
  H   H1717     1.0  0.94530  0.18704  0.99833  1.0000
  H   H1718     1.0  0.50486  0.99063  0.18831  1.0000
  C   C1019     1.0  0.87374  0.01284  0.21164  1.0000
  H   H1719     1.0  0.50201  0.20375  0.98818  1.0000
  C   C1020     1.0  0.53543  0.20637  0.15206  1.0000
  H   H1720     1.0  0.72600  0.99522  0.16149  1.0000
  H   H1721     1.0  0.86473  0.01916  0.19984  1.0000
  C   C1021     1.0  0.88338  0.18635  0.01844  1.0000
  C   C1022     1.0  0.86975  0.20035  0.00850  1.0000
  C   C1023     1.0  0.86811  0.22082  0.01082  1.0000
  C   C1024     1.0  0.88023  0.22765  0.02286  1.0000
  C   C1025     1.0  0.89404  0.21368  0.03259  1.0000
  C   C1026     1.0  0.89558  0.19320  0.03039  1.0000
  C   C1027     1.0  0.50291  0.14829  0.01689  1.0000
  H   H1722     1.0  0.65981  0.17932  0.04152  1.0000
  H   H1723     1.0  0.90324  0.21862  0.04214  1.0000
  H   H1724     1.0  0.90615  0.18255  0.03820  1.0000
  C   C1028     1.0  0.87681  0.05465  0.04006  1.0000
  C   C1029     1.0  0.88752  0.03835  0.05080  1.0000
  C   C1030     1.0  0.87979  0.03068  0.07032  1.0000
  C   C1031     1.0  0.86129  0.03936  0.07933  1.0000
  C   C1032     1.0  0.85040  0.05535  0.06839  1.0000
  C   C1033     1.0  0.85803  0.06288  0.04882  1.0000
  H   H1725     1.0  0.90201  0.03178  0.04412  1.0000
  H   H1726     1.0  0.88836  0.01841  0.07860  1.0000
  N   N74       1.0  0.60132  0.05273  0.11006  1.0000
  C   C1034     1.0  0.61207  0.04447  0.09144  1.0000
  C   C1035     1.0  0.58951  0.07264  0.10377  1.0000
  C   C1036     1.0  0.61667  0.05481  0.12327  1.0000
  C   C1037     1.0  0.62365  0.02322  0.09454  1.0000
  C   C1038     1.0  0.60187  0.09018  0.09644  1.0000
  C   C1039     1.0  0.60832  0.06383  0.14285  1.0000
  H   H1727     1.0  0.60144  0.04444  0.08044  1.0000
  H   H1728     1.0  0.62327  0.05429  0.08356  1.0000
  H   H1729     1.0  0.57800  0.07732  0.11606  1.0000
  H   H1730     1.0  0.58069  0.07156  0.09150  1.0000
  H   H1731     1.0  0.62486  0.03993  0.12812  1.0000
  H   H1732     1.0  0.62883  0.06328  0.11500  1.0000
  H   H1733     1.0  0.61396  0.01195  0.10225  1.0000
  H   H1734     1.0  0.62982  0.01845  0.07969  1.0000
  H   H1735     1.0  0.57421  0.15868  0.13050  1.0000
  H   H1736     1.0  0.60915  0.09421  0.10859  1.0000
  H   H1737     1.0  0.61328  0.08716  0.08345  1.0000
  H   H1738     1.0  0.59152  0.10363  0.09151  1.0000
  C   C1040     1.0  0.97987  0.27837  0.98816  1.0000
  H   H1739     1.0  0.61964  0.07224  0.14692  1.0000
  H   H1740     1.0  0.86020  0.19537  0.99932  1.0000
  S   S310      1.0  0.80389  0.12175  0.98729  1.0000
  N   N75       1.0  0.82363  0.30174  0.99864  1.0000
  H   H1741     1.0  0.52677  0.29370  0.01920  1.0000
  C   C1041     1.0  0.83331  0.31655  0.00719  1.0000
  H   H1742     1.0  0.50701  0.00475  0.11633  1.0000
  C   C1042     1.0  0.75482  0.99669  0.02043  1.0000
  S   S311      1.0  0.83926  0.99458  0.15193  1.0000
  H   H1743     1.0  0.72237  0.03297  0.00301  1.0000
  S   S312      1.0  0.61859  0.00646  0.15986  1.0000
  H   H1744     1.0  0.57300  0.24123  0.10954  1.0000
  H   H1745     1.0  0.53468  0.22611  0.12443  1.0000
  C   C1043     1.0  0.84118  0.30905  0.02739  1.0000
  H   H1746     1.0  0.91093  0.07874  0.04503  1.0000
  H   H1747     1.0  0.78210  0.06341  0.01582  1.0000
  H   H1748     1.0  0.83105  0.27260  0.98835  1.0000
  H   H1749     1.0  0.89168  0.09441  0.11295  1.0000
  H   H1750     1.0  0.94674  0.06639  0.98994  1.0000
  H   H1751     1.0  0.64785  0.20752  0.99043  1.0000
  C   C1044     1.0  0.72894  0.06028  0.01175  1.0000
  C   C1045     1.0  0.52715  0.19631  0.10317  1.0000
  H   H1752     1.0  0.56097  0.17020  0.15163  1.0000
  C   C1046     1.0  0.65178  0.18401  0.02817  1.0000
  C   C1047     1.0  0.51926  0.13979  0.00445  1.0000
  H   H1753     1.0  0.77858  0.28156  0.01634  1.0000
  C   C1048     1.0  0.62949  0.17548  0.99654  1.0000
  H   H1754     1.0  0.50551  0.15508  0.02952  1.0000
  C   C1049     1.0  0.85875  0.28497  0.98472  1.0000
  H   H1755     1.0  0.77227  0.00330  0.99213  1.0000
  N   N76       1.0  0.55834  0.20182  0.11873  1.0000
  C   C1050     1.0  0.56570  0.21405  0.09946  1.0000
  C   C1051     1.0  0.57662  0.19075  0.12780  1.0000
  H   H1756     1.0  0.67462  0.02131  0.99508  1.0000
  H   H1757     1.0  0.57338  0.20401  0.08837  1.0000
  H   H1758     1.0  0.58937  0.18745  0.11588  1.0000
  H   H1759     1.0  0.58227  0.20019  0.13724  1.0000
  C   C1052     1.0  0.95806  0.22398  0.99512  1.0000
  H   H1760     1.0  0.55598  0.22599  0.13671  1.0000
  H   H1761     1.0  0.57835  0.04583  0.13478  1.0000
  C   C1053     1.0  0.68241  0.98954  0.17377  1.0000
  C   C1054     1.0  0.80525  0.29664  0.01275  1.0000
  H   H1762     1.0  0.64506  0.99358  0.12636  1.0000
  H   H1763     1.0  0.55296  0.22323  0.09247  1.0000
  H   H1764     1.0  0.76405  0.00116  0.03077  1.0000
  H   H1765     1.0  0.82889  0.30551  0.03945  1.0000
  C   C1055     1.0  0.58040  0.22888  0.10103  1.0000
  H   H1766     1.0  0.88982  0.14995  0.06222  1.0000
  H   H1767     1.0  0.91515  0.10022  0.02674  1.0000
  S   S313      1.0  0.89573  0.11674  0.98708  1.0000
  H   H1768     1.0  0.92103  0.24897  0.99469  1.0000
  H   H1769     1.0  0.50222  0.02952  0.12372  1.0000
  H   H1770     1.0  0.54021  0.17723  0.12693  1.0000
  H   H1771     1.0  0.95382  0.30011  0.98433  1.0000
  H   H1772     1.0  0.91765  0.21628  0.99643  1.0000
  H   H1773     1.0  0.76178  0.11778  0.99102  1.0000
  H   H1774     1.0  0.96865  0.23538  0.99286  1.0000
  H   H1775     1.0  0.65835  0.00758  0.02834  1.0000
  H   H1776     1.0  0.57844  0.02462  0.09769  1.0000
  H   H1777     1.0  0.67442  0.99622  0.16078  1.0000
  C   C1056     1.0  0.68191  0.00812  0.00332  1.0000
  H   H1778     1.0  0.56160  0.04683  0.10382  1.0000
  C   C1057     1.0  0.75716  0.00897  0.99949  1.0000
  C   C1058     1.0  0.79076  0.28556  0.00427  1.0000
  H   H1779     1.0  0.67671  0.16876  0.01089  1.0000
  H   H1780     1.0  0.93948  0.23796  0.02009  1.0000
  H   H1781     1.0  0.52661  0.28232  0.98653  1.0000
  H   H1782     1.0  0.54625  0.19806  0.16194  1.0000
  H   H1783     1.0  0.52660  0.21839  0.16028  1.0000
  C   C1059     1.0  0.77155  0.03687  0.00872  1.0000
  C   C1060     1.0  0.70022  0.99849  0.99502  1.0000
  H   H1784     1.0  0.63562  0.18309  0.03347  1.0000
  H   H1785     1.0  0.73305  0.03048  0.02570  1.0000
  H   H1786     1.0  0.86538  0.09466  0.11041  1.0000
  C   C1061     1.0  0.54151  0.28476  0.99018  1.0000
  H   H1787     1.0  0.78566  0.02663  0.00520  1.0000
  H   H1788     1.0  0.52458  0.19659  0.14956  1.0000
  C   C1062     1.0  0.66012  0.16976  0.01243  1.0000
  C   C1063     1.0  0.57133  0.03346  0.10987  1.0000
  H   H1789     1.0  0.59523  0.02488  0.12837  1.0000
  H   H1790     1.0  0.69207  0.00006  0.17716  1.0000
  C   C1064     1.0  0.94816  0.22338  0.01704  1.0000
  Fe  Fe157     1.0  0.83814  0.12126  0.98529  1.0000
  H   H1791     1.0  0.59408  0.22150  0.10754  1.0000
  H   H1792     1.0  0.80970  0.28697  0.02645  1.0000
  C   C1065     1.0  0.62219  0.11425  0.99098  1.0000
  H   H1793     1.0  0.63672  0.02283  0.10271  1.0000
  H   H1794     1.0  0.73003  0.06980  0.99713  1.0000
  H   H1795     1.0  0.88154  0.07161  0.11318  1.0000
  C   C1066     1.0  0.53990  0.28363  0.01311  1.0000
  H   H1796     1.0  0.56131  0.02398  0.12021  1.0000
  H   H1797     1.0  0.73882  0.99753  0.02718  1.0000
  S   S314      1.0  0.93376  0.31286  0.03827  1.0000
  H   H1798     1.0  0.53763  0.26817  0.01997  1.0000
  H   H1799     1.0  0.60321  0.12907  0.01398  1.0000
  H   H1800     1.0  0.58781  0.16539  0.14841  1.0000
  H   H1801     1.0  0.58552  0.23588  0.08569  1.0000
  N   N77       1.0  0.88516  0.10842  0.07151  1.0000
  C   C1067     1.0  0.86438  0.11984  0.07512  1.0000
  C   C1068     1.0  0.89992  0.12010  0.07775  1.0000
  C   C1069     1.0  0.88653  0.08795  0.08345  1.0000
  C   C1070     1.0  0.88973  0.10589  0.04965  1.0000
  C   C1071     1.0  0.84665  0.10870  0.07324  1.0000
  C   C1072     1.0  0.90386  0.13959  0.06402  1.0000
  C   C1073     1.0  0.88090  0.08747  0.10626  1.0000
  C   C1074     1.0  0.91084  0.09522  0.04285  1.0000
  H   H1802     1.0  0.86156  0.12491  0.09020  1.0000
  H   H1803     1.0  0.86295  0.13381  0.06439  1.0000
  H   H1804     1.0  0.91470  0.11082  0.07925  1.0000
  H   H1805     1.0  0.89467  0.12443  0.09298  1.0000
  H   H1806     1.0  0.87707  0.07832  0.07814  1.0000
  H   H1807     1.0  0.90208  0.07997  0.08107  1.0000
  H   H1808     1.0  0.87902  0.09685  0.04548  1.0000
  H   H1809     1.0  0.88708  0.12032  0.03985  1.0000
  H   H1810     1.0  0.84736  0.10442  0.05810  1.0000
  H   H1811     1.0  0.84550  0.09532  0.08452  1.0000
  H   H1812     1.0  0.83237  0.11885  0.07586  1.0000
  H   H1813     1.0  0.91384  0.14753  0.07076  1.0000
  H   H1814     1.0  0.91168  0.13660  0.04907  1.0000
  H   H1815     1.0  0.71302  0.06295  0.01863  1.0000
  Fe  Fe158     1.0  0.63092  0.30835  0.00613  1.0000
  H   H1816     1.0  0.85284  0.29587  0.02647  1.0000
  C   C1075     1.0  0.65670  0.10323  0.99688  1.0000
  H   H1817     1.0  0.59711  0.29349  0.98998  1.0000
  H   H1818     1.0  0.65424  0.19967  0.02264  1.0000
  H   H1819     1.0  0.93840  0.21138  0.02137  1.0000
  H   H1820     1.0  0.67160  0.09611  0.99204  1.0000
  C   C1076     1.0  0.83770  0.28265  0.99629  1.0000
  H   H1821     1.0  0.73658  0.99269  0.12220  1.0000
  H   H1822     1.0  0.85724  0.23142  0.00335  1.0000
  H   H1823     1.0  0.86879  0.03978  0.22589  1.0000
  C   C1077     1.0  0.51570  0.13108  0.98811  1.0000
  C   C1078     1.0  0.77737  0.05828  0.00268  1.0000
  H   H1824     1.0  0.86748  0.29343  0.99232  1.0000
  H   H1825     1.0  0.53136  0.20365  0.08780  1.0000
  C   C1079     1.0  0.50984  0.01422  0.12727  1.0000
  H   H1826     1.0  0.79839  0.27144  0.99891  1.0000
  C   C1080     1.0  0.50407  0.00491  0.14905  1.0000
  H   H1827     1.0  0.73816  0.06518  0.02184  1.0000
  S   S315      1.0  0.90836  0.30722  0.09471  1.0000
  H   H1828     1.0  0.51869  0.18398  0.10155  1.0000
  H   H1829     1.0  0.70255  0.99701  0.13871  1.0000
  H   H1830     1.0  0.74618  0.00453  0.99085  1.0000
  C   C1081     1.0  0.89417  0.98502  0.22804  1.0000
  H   H1831     1.0  0.91892  0.04563  0.98798  1.0000
  H   H1832     1.0  0.52625  0.01522  0.12489  1.0000
  N   N78       1.0  0.65209  0.17495  0.99255  1.0000
  H   H1833     1.0  0.79637  0.31021  0.01841  1.0000
  H   H1834     1.0  0.55380  0.28700  0.01795  1.0000
  H   H1835     1.0  0.62539  0.16204  0.00679  1.0000
  H   H1836     1.0  0.56693  0.31260  0.99796  1.0000
  H   H1837     1.0  0.51122  0.01268  0.15889  1.0000
  H   H1838     1.0  0.86746  0.26988  0.98411  1.0000
  C   C1082     1.0  0.88262  0.99292  0.21241  1.0000
  H   H1839     1.0  0.54032  0.18967  0.99144  1.0000
  H   H1840     1.0  0.76527  0.06971  0.99766  1.0000
  C   C1083     1.0  0.49605  0.13126  0.98384  1.0000
  C   C1084     1.0  0.93714  0.19149  0.98510  1.0000
  H   H1841     1.0  0.92436  0.18250  0.98749  1.0000
  H   H1842     1.0  0.51223  0.98954  0.15009  1.0000
  H   H1843     1.0  0.58232  0.27625  0.98508  1.0000
  H   H1844     1.0  0.51188  0.17912  0.98511  1.0000
  H   H1845     1.0  0.55184  0.27141  0.98602  1.0000
  H   H1846     1.0  0.60199  0.17759  0.98298  1.0000
  H   H1847     1.0  0.68777  0.19220  0.99017  1.0000
  H   H1848     1.0  0.65145  0.14598  0.98325  1.0000
  H   H1849     1.0  0.51672  0.31736  0.98368  1.0000
  C   C1085     1.0  0.92860  0.21386  0.98292  1.0000
  S   S316      1.0  0.57892  0.98576  0.20685  1.0000
  H   H1850     1.0  0.53274  0.21555  0.98279  1.0000
  C   C1086     1.0  0.65651  0.19526  0.98232  1.0000
  C   C1087     1.0  0.56788  0.30804  0.98277  1.0000
  Fe  Fe159     1.0  0.64209  0.27948  0.44782  1.0000
  S   S317      1.0  0.63181  0.27304  0.41973  1.0000
  H   H1851     1.0  0.90340  0.12572  0.47596  1.0000
  H   H1852     1.0  0.84412  0.03243  0.28276  1.0000
  S   S318      1.0  0.58807  0.26833  0.44714  1.0000
  H   H1853     1.0  0.97434  0.09863  0.27153  1.0000
  Fe  Fe160     1.0  0.61732  0.24853  0.44041  1.0000
  S   S319      1.0  0.61572  0.21698  0.43411  1.0000
  Fe  Fe161     1.0  0.60358  0.29338  0.42899  1.0000
  H   H1854     1.0  0.56039  0.30081  0.47415  1.0000
  H   H1855     1.0  0.88339  0.02261  0.47195  1.0000
  S   S320      1.0  0.61511  0.30130  0.45563  1.0000
  C   C1088     1.0  0.57047  0.08571  0.35488  1.0000
  Fe  Fe162     1.0  0.64851  0.07377  0.46139  1.0000
  H   H1856     1.0  0.90557  0.00938  0.46072  1.0000
  S   S321      1.0  0.64969  0.06643  0.42961  1.0000
  H   H1857     1.0  0.58825  0.06847  0.33364  1.0000
  H   H1858     1.0  0.67777  0.02706  0.44515  1.0000
  C   C1089     1.0  0.61438  1.00000  0.26535  1.0000
  H   H1859     1.0  0.56828  0.05660  0.34668  1.0000
  H   H1860     1.0  0.55963  0.03745  0.40302  1.0000
  H   H1861     1.0  0.91216  0.20795  0.41351  1.0000
  C   C1090     1.0  0.96643  0.22592  0.48099  1.0000
  H   H1862     1.0  0.88993  0.04594  0.38541  1.0000
  N   N79       1.0  0.89707  0.19925  0.39098  1.0000
  Fe  Fe163     1.0  0.97023  0.15346  0.44345  1.0000
  S   S322      1.0  0.95184  0.17322  0.42153  1.0000
  H   H1863     1.0  0.60104  0.00647  0.23780  1.0000
  Fe  Fe164     1.0  0.94058  0.12343  0.45229  1.0000
  S   S323      1.0  0.91916  0.14118  0.43221  1.0000
  S   S324      1.0  0.93471  0.09331  0.46826  1.0000
  Fe  Fe165     1.0  0.94707  0.14463  0.41051  1.0000
  S   S325      1.0  0.94760  0.14331  0.37709  1.0000
  Fe  Fe166     1.0  0.92568  0.16798  0.44494  1.0000
  S   S326      1.0  0.90146  0.19221  0.45583  1.0000
  S   S327      1.0  0.96834  0.12557  0.43007  1.0000
  S   S328      1.0  0.94417  0.14956  0.46734  1.0000
  Fe  Fe167     1.0  0.90796  0.02849  0.28695  1.0000
  H   H1864     1.0  0.83417  0.02742  0.32494  1.0000
  Fe  Fe168     1.0  0.92365  0.05473  0.31425  1.0000
  S   S329      1.0  0.93729  0.02787  0.33301  1.0000
  S   S330      1.0  0.92523  0.08721  0.31810  1.0000
  H   H1865     1.0  0.59996  0.09037  0.37513  1.0000
  H   H1866     1.0  0.86568  0.06152  0.42303  1.0000
  Fe  Fe169     1.0  0.90866  0.01548  0.33175  1.0000
  H   H1867     1.0  0.81914  0.01233  0.30572  1.0000
  S   S331      1.0  0.93616  0.04286  0.28505  1.0000
  S   S332      1.0  0.89436  0.04306  0.31441  1.0000
  H   H1868     1.0  0.70281  0.00869  0.37573  1.0000
  C   C1091     1.0  0.53301  0.31437  0.44799  1.0000
  C   C1092     1.0  0.61272  0.07833  0.37623  1.0000
  H   H1869     1.0  0.62956  0.14474  0.45535  1.0000
  H   H1870     1.0  0.61240  0.07105  0.39195  1.0000
  H   H1871     1.0  0.87442  0.15632  0.41170  1.0000
  C   C1093     1.0  0.91326  0.25652  0.45837  1.0000
  C   C1094     1.0  0.92735  0.24360  0.44744  1.0000
  C   C1095     1.0  0.92412  0.22378  0.44686  1.0000
  C   C1096     1.0  0.90637  0.21687  0.45668  1.0000
  C   C1097     1.0  0.89195  0.22997  0.46705  1.0000
  C   C1098     1.0  0.89543  0.24967  0.46806  1.0000
  H   H1872     1.0  0.71528  0.13668  0.44022  1.0000
  H   H1873     1.0  0.93531  0.21393  0.43872  1.0000
  C   C1099     1.0  0.55842  0.31709  0.46908  1.0000
  C   C1100     1.0  0.88206  0.99152  0.42192  1.0000
  H   H1874     1.0  0.99025  0.11212  0.29648  1.0000
  C   C1101     1.0  0.61335  0.06284  0.36164  1.0000
  S   S333      1.0  0.67473  0.08802  0.46686  1.0000
  C   C1102     1.0  0.94124  0.12617  0.36229  1.0000
  C   C1103     1.0  0.93640  0.10683  0.36971  1.0000
  C   C1104     1.0  0.93163  0.09428  0.35656  1.0000
  C   C1105     1.0  0.93151  0.10115  0.33604  1.0000
  C   C1106     1.0  0.93633  0.12040  0.32895  1.0000
  C   C1107     1.0  0.94127  0.13265  0.34183  1.0000
  H   H1875     1.0  0.93634  0.10159  0.38548  1.0000
  H   H1876     1.0  0.92778  0.07950  0.36231  1.0000
  H   H1877     1.0  0.93620  0.12598  0.31326  1.0000
  H   H1878     1.0  0.94498  0.14744  0.33585  1.0000
  H   H1879     1.0  0.82192  0.99493  0.28830  1.0000
  C   C1108     1.0  0.63965  0.04595  0.42341  1.0000
  C   C1109     1.0  0.62583  0.03572  0.43683  1.0000
  C   C1110     1.0  0.61732  0.02025  0.43082  1.0000
  C   C1111     1.0  0.62301  0.01447  0.41162  1.0000
  C   C1112     1.0  0.63733  0.02426  0.39845  1.0000
  C   C1113     1.0  0.64530  0.04018  0.40420  1.0000
  H   H1880     1.0  0.62127  0.04012  0.45162  1.0000
  H   H1881     1.0  0.60610  0.01290  0.44105  1.0000
  H   H1882     1.0  0.64184  0.02000  0.38363  1.0000
  H   H1883     1.0  0.65595  0.04807  0.39373  1.0000
  C   C1114     1.0  0.57896  0.01139  0.26328  1.0000
  H   H1884     1.0  0.68445  0.01855  0.39459  1.0000
  H   H1885     1.0  0.86944  0.99449  0.27793  1.0000
  S   S334      1.0  0.92009  0.99982  0.30456  1.0000
  H   H1886     1.0  0.91259  0.17920  0.36994  1.0000
  C   C1115     1.0  0.86960  0.04913  0.41359  1.0000
  H   H1887     1.0  0.88059  0.19580  0.36713  1.0000
  H   H1888     1.0  0.76273  0.08995  0.46812  1.0000
  H   H1889     1.0  0.70065  0.15662  0.45193  1.0000
  H   H1890     1.0  0.96546  0.07600  0.26945  1.0000
  C   C1116     1.0  0.62796  0.19574  0.44786  1.0000
  H   H1891     1.0  0.92258  0.17620  0.39296  1.0000
  C   C1117     1.0  0.85898  0.00527  0.31382  1.0000
  C   C1118     1.0  0.88193  0.16572  0.39888  1.0000
  H   H1892     1.0  0.51892  0.28787  0.46320  1.0000
  H   H1893     1.0  0.88209  0.00164  0.45910  1.0000
  C   C1119     1.0  0.93343  0.19956  0.37194  1.0000
  H   H1894     1.0  0.69483  0.30013  0.47874  1.0000
  H   H1895     1.0  0.55641  0.21293  0.46251  1.0000
  H   H1896     1.0  0.89587  0.15640  0.39320  1.0000
  H   H1897     1.0  0.71891  0.09566  0.45883  1.0000
  H   H1898     1.0  0.89463  0.98834  0.43109  1.0000
  H   H1899     1.0  0.88771  0.04506  0.44413  1.0000
  H   H1900     1.0  0.96402  0.06523  0.30252  1.0000
  C   C1120     1.0  0.84697  0.01700  0.33029  1.0000
  H   H1901     1.0  0.73791  0.11133  0.44950  1.0000
  N   N80       1.0  0.84748  0.99251  0.30448  1.0000
  C   C1121     1.0  0.90236  0.21505  0.40197  1.0000
  C   C1122     1.0  0.64556  0.16140  0.47086  1.0000
  H   H1902     1.0  0.59595  0.04012  0.39316  1.0000
  H   H1903     1.0  0.62675  0.08548  0.37277  1.0000
  C   C1123     1.0  0.88752  0.05493  0.39810  1.0000
  H   H1904     1.0  0.89027  0.23976  0.41889  1.0000
  C   C1124     1.0  0.89690  0.99683  0.24260  1.0000
  Fe  Fe170     1.0  0.89938  0.30380  0.47796  1.0000
  H   H1905     1.0  0.61729  0.01760  0.33041  1.0000
  H   H1906     1.0  0.69650  0.02368  0.42433  1.0000
  H   H1907     1.0  0.88440  0.25949  0.47645  1.0000
  H   H1908     1.0  0.83102  0.03539  0.46282  1.0000
  H   H1909     1.0  0.83752  0.05534  0.44412  1.0000
  C   C1125     1.0  0.60097  0.03288  0.35486  1.0000
  H   H1910     1.0  0.60476  0.04133  0.32194  1.0000
  N   N81       1.0  0.59464  0.05292  0.36245  1.0000
  C   C1126     1.0  0.91599  0.18770  0.38156  1.0000
  H   H1911     1.0  0.94108  0.24886  0.43972  1.0000
  H   H1912     1.0  0.90162  0.05370  0.40488  1.0000
  H   H1913     1.0  0.91153  0.22561  0.39210  1.0000
  H   H1914     1.0  0.61772  0.07033  0.34628  1.0000
  S   S335      1.0  0.89046  0.00504  0.36070  1.0000
  C   C1127     1.0  0.63278  0.15942  0.45710  1.0000
  C   C1128     1.0  0.56622  0.03787  0.38706  1.0000
  H   H1915     1.0  0.58034  0.06289  0.39082  1.0000
  C   C1129     1.0  0.88318  0.20774  0.37562  1.0000
  H   H1916     1.0  0.61004  0.02261  0.36543  1.0000
  H   H1917     1.0  0.85388  0.01087  0.44783  1.0000
  H   H1918     1.0  0.74400  0.07389  0.48013  1.0000
  C   C1130     1.0  0.97298  0.06000  0.34336  1.0000
  S   S336      1.0  0.63188  0.99073  0.29974  1.0000
  H   H1919     1.0  0.57918  0.19626  0.46398  1.0000
  H   H1920     1.0  0.96573  0.09054  0.30459  1.0000
  H   H1921     1.0  0.97982  0.04417  0.34584  1.0000
  H   H1922     1.0  0.82209  0.02988  0.27247  1.0000
  H   H1923     1.0  0.85699  0.98939  0.38497  1.0000
  C   C1131     1.0  0.57068  0.21010  0.46926  1.0000
  H   H1924     1.0  0.87809  0.22481  0.47456  1.0000
  H   H1925     1.0  0.61411  0.17492  0.43508  1.0000
  S   S337      1.0  0.64795  0.99027  0.35397  1.0000
  H   H1926     1.0  0.85701  0.02623  0.33530  1.0000
  H   H1927     1.0  0.62937  0.99598  0.25791  1.0000
  H   H1928     1.0  0.68053  0.99719  0.38325  1.0000
  C   C1132     1.0  0.97430  0.07693  0.29873  1.0000
  H   H1929     1.0  0.72686  0.15147  0.45446  1.0000
  S   S338      1.0  0.61020  0.99676  0.40374  1.0000
  C   C1133     1.0  0.97714  0.08218  0.27569  1.0000
  H   H1930     1.0  0.94062  0.20481  0.38351  1.0000
  H   H1931     1.0  0.87400  0.23586  0.40187  1.0000
  H   H1932     1.0  0.85655  0.04974  0.40516  1.0000
  H   H1933     1.0  0.98982  0.22322  0.45555  1.0000
  H   H1934     1.0  0.84188  0.00682  0.34366  1.0000
  H   H1935     1.0  0.52997  0.28623  0.43797  1.0000
  C   C1134     1.0  0.90914  0.09365  0.47700  1.0000
  C   C1135     1.0  0.68883  0.01565  0.43796  1.0000
  H   H1936     1.0  0.92889  0.21229  0.36086  1.0000
  S   S339      1.0  0.55850  0.01892  0.24927  1.0000
  H   H1937     1.0  0.95890  0.06109  0.33664  1.0000
  C   C1136     1.0  0.98777  0.07347  0.33074  1.0000
  H   H1938     1.0  0.87613  0.21929  0.42515  1.0000
  C   C1137     1.0  0.88630  0.18481  0.40634  1.0000
  H   H1939     1.0  0.62644  0.05148  0.36492  1.0000
  C   C1138     1.0  0.80900  0.98951  0.47368  1.0000
  C   C1139     1.0  0.88767  0.01665  0.24205  1.0000
  S   S340      1.0  0.91923  0.28053  0.46036  1.0000
  C   C1140     1.0  0.85304  0.02552  0.43846  1.0000
  Fe  Fe171     1.0  0.60180  0.27498  0.47291  1.0000
  H   H1940     1.0  0.97202  0.20602  0.45745  1.0000
  C   C1141     1.0  0.61115  0.99901  0.28629  1.0000
  C   C1142     1.0  0.64962  0.18055  0.47293  1.0000
  H   H1941     1.0  0.87155  0.16914  0.38735  1.0000
  C   C1143     1.0  0.84377  0.04119  0.45256  1.0000
  H   H1942     1.0  0.57900  0.22297  0.46325  1.0000
  N   N82       1.0  0.87299  0.02917  0.42640  1.0000
  C   C1144     1.0  0.74835  0.08457  0.46694  1.0000
  H   H1943     1.0  0.94528  0.18938  0.36399  1.0000
  C   C1145     1.0  0.58034  0.06516  0.34901  1.0000
  H   H1944     1.0  0.55610  0.08989  0.34836  1.0000
  H   H1945     1.0  0.84504  0.01529  0.26452  1.0000
  C   C1146     1.0  0.88968  0.01496  0.45864  1.0000
  C   C1147     1.0  0.57575  0.01081  0.28423  1.0000
  H   H1946     1.0  0.86616  0.01616  0.30220  1.0000
  H   H1947     1.0  0.56609  0.08587  0.37111  1.0000
  H   H1948     1.0  0.61522  0.30884  0.38011  1.0000
  H   H1949     1.0  0.62782  0.03926  0.33320  1.0000
  H   H1950     1.0  0.81587  0.99442  0.33779  1.0000
  H   H1951     1.0  0.88412  0.07078  0.39156  1.0000
  H   H1952     1.0  0.54592  0.28320  0.45698  1.0000
  H   H1953     1.0  0.66547  0.00682  0.42421  1.0000
  H   H1954     1.0  0.86842  0.01476  0.40145  1.0000
  H   H1955     1.0  0.87659  0.23407  0.35429  1.0000
  C   C1148     1.0  0.73166  0.10206  0.46312  1.0000
  H   H1956     1.0  0.66916  0.99332  0.44769  1.0000
  H   H1957     1.0  0.91021  0.06166  0.47968  1.0000
  C   C1149     1.0  0.67178  0.30933  0.45940  1.0000
  H   H1958     1.0  0.87164  0.99605  0.32076  1.0000
  C   C1150     1.0  0.89006  0.22459  0.35956  1.0000
  H   H1959     1.0  0.55440  0.04549  0.37795  1.0000
  H   H1960     1.0  0.89412  0.01576  0.40336  1.0000
  H   H1961     1.0  0.58040  0.09740  0.34902  1.0000
  C   C1151     1.0  0.83605  0.02144  0.27772  1.0000
  H   H1962     1.0  0.87154  0.19213  0.41292  1.0000
  C   C1152     1.0  0.53192  0.29164  0.45209  1.0000
  H   H1963     1.0  0.56078  0.01510  0.29156  1.0000
  C   C1153     1.0  0.71332  0.14439  0.45377  1.0000
  H   H1964     1.0  0.58770  0.02535  0.35399  1.0000
  C   C1154     1.0  0.59835  0.00591  0.25391  1.0000
  H   H1965     1.0  0.90433  0.02786  0.43035  1.0000
  C   C1155     1.0  0.58490  0.04900  0.38378  1.0000
  C   C1156     1.0  0.67741  0.99926  0.43323  1.0000
  S   S341      1.0  0.62981  0.25369  0.46758  1.0000
  S   S342      1.0  0.97988  0.00228  0.29504  1.0000
  C   C1157     1.0  0.88918  0.02994  0.43923  1.0000
  C   C1158     1.0  0.87939  0.01348  0.41241  1.0000
  S   S343      1.0  0.62605  0.09609  0.47704  1.0000
  C   C1159     1.0  0.61339  0.03320  0.33392  1.0000
  H   H1966     1.0  0.57025  0.02205  0.38429  1.0000
  H   H1967     1.0  0.89829  0.23503  0.36513  1.0000
  H   H1968     1.0  0.89512  0.17976  0.41913  1.0000
  Fe  Fe172     1.0  0.94760  0.01493  0.30418  1.0000
  C   C1160     1.0  0.83032  0.00484  0.29470  1.0000
  H   H1969     1.0  0.71488  0.99821  0.40851  1.0000
  C   C1161     1.0  0.64092  0.19762  0.46147  1.0000
  H   H1970     1.0  0.86780  0.21294  0.38276  1.0000
  H   H1971     1.0  0.89936  0.21832  0.34654  1.0000
  H   H1972     1.0  0.64436  0.21221  0.46312  1.0000
  C   C1162     1.0  0.62405  0.17654  0.44563  1.0000
  C   C1163     1.0  0.88443  0.22805  0.41242  1.0000
  H   H1973     1.0  0.75120  0.07596  0.45395  1.0000
  S   S344      1.0  0.67277  0.28559  0.45202  1.0000
  H   H1974     1.0  0.84172  0.02468  0.42836  1.0000
  H   H1975     1.0  0.69971  0.00975  0.44871  1.0000
  S   S345      1.0  0.88889  0.03177  0.26108  1.0000
  C   C1164     1.0  0.68427  0.31239  0.47307  1.0000
  H   H1976     1.0  0.98816  0.03938  0.31376  1.0000
  N   N83       1.0  0.72425  0.11455  0.47993  1.0000
  H   H1977     1.0  0.85461  0.04435  0.46201  1.0000
  H   H1978     1.0  0.94230  0.19804  0.47954  1.0000
  H   H1979     1.0  0.79317  0.99520  0.47416  1.0000
  H   H1980     1.0  0.96878  0.06505  0.35837  1.0000
  H   H1981     1.0  0.58911  0.00388  0.31185  1.0000
  H   H1982     1.0  0.98075  0.08908  0.33245  1.0000
  C   C1165     1.0  0.70768  0.13023  0.47295  1.0000
  C   C1166     1.0  0.69176  0.00452  0.38886  1.0000
  H   H1983     1.0  0.86801  0.98679  0.43049  1.0000
  H   H1984     1.0  0.90579  0.99049  0.25448  1.0000
  C   C1167     1.0  0.89715  0.11175  0.48004  1.0000
  H   H1985     1.0  0.75053  0.12993  0.47089  1.0000
  H   H1986     1.0  0.69475  0.12305  0.47029  1.0000
  C   C1168     1.0  0.70296  0.99039  0.40461  1.0000
  C   C1169     1.0  0.98064  0.21329  0.46638  1.0000
  C   C1170     1.0  0.59175  0.00449  0.29575  1.0000
  H   H1987     1.0  0.95635  0.23597  0.47129  1.0000
  H   H1988     1.0  0.54485  0.31651  0.43498  1.0000
  H   H1989     1.0  0.50741  0.31701  0.47876  1.0000
  H   H1990     1.0  0.60417  0.21855  0.48220  1.0000
  C   C1171     1.0  0.93725  0.10448  0.52254  1.0000
  S   S346      1.0  0.53039  0.04715  0.65401  1.0000
  S   S347      1.0  0.51089  0.07197  0.70386  1.0000
  Fe  Fe173     1.0  0.54196  0.07083  0.63037  1.0000
  S   S348      1.0  0.57456  0.06905  0.61636  1.0000
  S   S349      1.0  0.52846  0.09619  0.64785  1.0000
  Fe  Fe174     1.0  0.62955  0.07410  0.50483  1.0000
  S   S350      1.0  0.65486  0.08753  0.51375  1.0000
  S   S351      1.0  0.59949  0.06845  0.52297  1.0000
  Fe  Fe175     1.0  0.67550  0.06636  0.49499  1.0000
  S   S352      1.0  0.70692  0.04931  0.49736  1.0000
  H   H1991     1.0  0.70353  0.09354  0.49322  1.0000
  Fe  Fe176     1.0  0.80597  0.04103  0.54590  1.0000
  S   S353      1.0  0.81970  0.04574  0.51380  1.0000
  S   S354      1.0  0.77242  0.04618  0.55662  1.0000
  Fe  Fe177     1.0  0.84718  0.03317  0.56220  1.0000
  S   S355      1.0  0.86383  0.03720  0.53125  1.0000
  S   S356      1.0  0.86446  0.02318  0.58924  1.0000
  Fe  Fe178     1.0  0.84013  0.06317  0.52528  1.0000
  S   S357      1.0  0.97114  0.99151  0.69635  1.0000
  Fe  Fe179     1.0  0.84210  0.01921  0.52233  1.0000
  S   S358      1.0  0.82496  0.06063  0.55687  1.0000
  S   S359      1.0  0.82693  0.01292  0.55382  1.0000
  Fe  Fe180     1.0  0.95319  0.06501  0.69899  1.0000
  H   H1992     1.0  0.56360  0.99812  0.62055  1.0000
  Fe  Fe181     1.0  0.93679  0.05654  0.66074  1.0000
  S   S360      1.0  0.96490  0.03603  0.65203  1.0000
  S   S361      1.0  0.91299  0.06810  0.63941  1.0000
  Fe  Fe182     1.0  0.96317  0.02402  0.68464  1.0000
  H   H1993     1.0  0.53726  0.99662  0.55548  1.0000
  H   H1994     1.0  0.77753  0.04681  0.66402  1.0000
  H   H1995     1.0  0.98413  0.09435  0.61897  1.0000
  S   S362      1.0  0.93369  0.04275  0.69323  1.0000
  S   S363      1.0  0.95371  0.08054  0.66741  1.0000
  S   S364      1.0  0.84603  0.09360  0.51030  1.0000
  S   S365      1.0  0.88178  0.29741  0.50820  1.0000
  C   C1172     1.0  0.55246  0.26427  0.49768  1.0000
  C   C1173     1.0  0.87800  0.03608  0.60275  1.0000
  C   C1174     1.0  0.87521  0.05693  0.60186  1.0000
  C   C1175     1.0  0.88607  0.06642  0.61311  1.0000
  C   C1176     1.0  0.89981  0.05525  0.62547  1.0000
  C   C1177     1.0  0.90260  0.03441  0.62632  1.0000
  C   C1178     1.0  0.89169  0.02493  0.61512  1.0000
  H   H1996     1.0  0.86442  0.06569  0.59282  1.0000
  H   H1997     1.0  0.88365  0.08253  0.61244  1.0000
  H   H1998     1.0  0.91305  0.02557  0.63573  1.0000
  H   H1999     1.0  0.89392  0.00879  0.61605  1.0000
  C   C1179     1.0  0.57549  0.01976  0.54948  1.0000
  H   H2000     1.0  0.93517  0.12009  0.51495  1.0000
  H   H2001     1.0  0.76096  0.03304  0.65473  1.0000
  C   C1180     1.0  0.98432  0.19699  0.51660  1.0000
  C   C1181     1.0  0.54931  0.12541  0.59980  1.0000
  H   H2002     1.0  0.50432  0.04168  0.56834  1.0000
  H   H2003     1.0  0.98253  0.09048  0.57124  1.0000
  C   C1182     1.0  0.82058  0.99583  0.48648  1.0000
  C   C1183     1.0  0.72462  0.04867  0.51432  1.0000
  C   C1184     1.0  0.74464  0.04048  0.50891  1.0000
  C   C1185     1.0  0.75946  0.04008  0.52149  1.0000
  C   C1186     1.0  0.75433  0.04743  0.53992  1.0000
  C   C1187     1.0  0.73426  0.05545  0.54549  1.0000
  C   C1188     1.0  0.71948  0.05623  0.53268  1.0000
  H   H2004     1.0  0.74875  0.03449  0.49480  1.0000
  H   H2005     1.0  0.77477  0.03371  0.51707  1.0000
  H   H2006     1.0  0.73011  0.06106  0.55977  1.0000
  H   H2007     1.0  0.70410  0.06240  0.53711  1.0000
  C   C1189     1.0  0.58136  0.07048  0.59020  1.0000
  C   C1190     1.0  0.56681  0.07300  0.57717  1.0000
  C   C1191     1.0  0.57265  0.07286  0.55654  1.0000
  C   C1192     1.0  0.59308  0.07056  0.54868  1.0000
  C   C1193     1.0  0.60766  0.06881  0.56159  1.0000
  C   C1194     1.0  0.60179  0.06866  0.58231  1.0000
  H   H2008     1.0  0.55106  0.07483  0.58298  1.0000
  H   H2009     1.0  0.56131  0.07435  0.54659  1.0000
  H   H2010     1.0  0.62345  0.06695  0.55568  1.0000
  H   H2011     1.0  0.61316  0.06679  0.59229  1.0000
  H   H2012     1.0  0.53967  0.04695  0.56906  1.0000
  H   H2013     1.0  0.60132  0.29935  0.56215  1.0000
  C   C1195     1.0  0.54813  0.05187  0.71217  1.0000
  C   C1196     1.0  0.52863  0.05963  0.71962  1.0000
  H   H2014     1.0  0.59196  0.01848  0.54452  1.0000
  C   C1197     1.0  0.80705  0.06797  0.61154  1.0000
  S   S366      1.0  0.85576  0.99557  0.50233  1.0000
  H   H2015     1.0  0.55250  0.05262  0.69618  1.0000
  H   H2016     1.0  0.77542  0.00942  0.61858  1.0000
  C   C1198     1.0  0.55121  0.27865  0.52829  1.0000
  C   C1199     1.0  0.53136  0.27462  0.53391  1.0000
  C   C1200     1.0  0.52208  0.26499  0.52170  1.0000
  S   S367      1.0  0.65031  0.05093  0.48848  1.0000
  H   H2017     1.0  0.90890  0.10914  0.54092  1.0000
  C   C1201     1.0  0.55187  0.31491  0.64018  1.0000
  C   C1202     1.0  0.52990  0.28558  0.63310  1.0000
  C   C1203     1.0  0.53269  0.28741  0.65271  1.0000
  H   H2018     1.0  0.80526  0.03583  0.64325  1.0000
  C   C1204     1.0  0.53583  0.99630  0.72032  1.0000
  Fe  Fe183     1.0  0.51457  0.07260  0.67004  1.0000
  H   H2019     1.0  0.67252  0.31480  0.52274  1.0000
  H   H2020     1.0  0.52144  0.27423  0.63042  1.0000
  H   H2021     1.0  0.76680  0.05714  0.64229  1.0000
  C   C1205     1.0  0.95000  0.19532  0.49325  1.0000
  H   H2022     1.0  0.67779  0.29426  0.54119  1.0000
  H   H2023     1.0  0.97552  0.23606  0.48613  1.0000
  C   C1206     1.0  0.87847  0.08829  0.55390  1.0000
  H   H2024     1.0  0.78141  0.02084  0.59364  1.0000
  H   H2025     1.0  0.96248  0.28734  0.55821  1.0000
  H   H2026     1.0  0.74548  0.02588  0.60512  1.0000
  H   H2027     1.0  0.92818  0.06908  0.51140  1.0000
  C   C1207     1.0  0.92407  0.07555  0.56061  1.0000
  H   H2028     1.0  0.94983  0.14914  0.56169  1.0000
  C   C1208     1.0  0.57187  0.01818  0.57252  1.0000
  C   C1209     1.0  0.77303  0.04280  0.65022  1.0000
  C   C1210     1.0  0.54317  0.30248  0.65626  1.0000
  N   N84       1.0  0.79267  0.03431  0.61596  1.0000
  H   H2029     1.0  0.54635  0.18436  0.56659  1.0000
  H   H2030     1.0  0.64655  0.31250  0.50008  1.0000
  H   H2031     1.0  0.53484  0.12476  0.60991  1.0000
  H   H2032     1.0  0.94297  0.17997  0.52395  1.0000
  H   H2033     1.0  0.88213  0.09138  0.56836  1.0000
  H   H2034     1.0  0.87616  0.10242  0.54363  1.0000
  H   H2035     1.0  0.96926  0.22633  0.51973  1.0000
  C   C1211     1.0  0.49693  0.17319  0.63776  1.0000
  H   H2036     1.0  0.52998  0.19312  0.58736  1.0000
  H   H2037     1.0  0.98962  0.12847  0.51923  1.0000
  S   S368      1.0  0.98214  0.04528  0.69248  1.0000
  H   H2038     1.0  0.58697  0.19555  0.53563  1.0000
  H   H2039     1.0  0.58849  0.23412  0.49768  1.0000
  H   H2040     1.0  0.68956  0.12066  0.51229  1.0000
  H   H2041     1.0  0.72602  0.08960  0.50380  1.0000
  H   H2042     1.0  0.61948  0.17852  0.51661  1.0000
  C   C1212     1.0  0.95954  0.12295  0.58218  1.0000
  H   H2043     1.0  0.96049  0.10909  0.62075  1.0000
  H   H2044     1.0  0.54971  0.10514  0.70229  1.0000
  H   H2045     1.0  0.91989  0.25725  0.50867  1.0000
  C   C1213     1.0  0.96326  0.13775  0.56298  1.0000
  H   H2046     1.0  0.56189  0.02109  0.63056  1.0000
  H   H2047     1.0  0.97587  0.14634  0.56299  1.0000
  H   H2048     1.0  0.79170  0.01573  0.64455  1.0000
  H   H2049     1.0  0.74872  0.03970  0.62437  1.0000
  C   C1214     1.0  0.77684  0.02415  0.60936  1.0000
  H   H2050     1.0  0.96626  0.01381  0.73016  1.0000
  H   H2051     1.0  0.95146  0.11153  0.57784  1.0000
  H   H2052     1.0  0.97386  0.11655  0.70808  1.0000
  C   C1215     1.0  0.92649  0.05473  0.57287  1.0000
  H   H2053     1.0  0.96122  0.30240  0.52119  1.0000
  H   H2054     1.0  0.65295  0.31754  0.55768  1.0000
  H   H2055     1.0  0.52610  0.27767  0.66513  1.0000
  H   H2056     1.0  0.71373  0.12319  0.51939  1.0000
  H   H2057     1.0  0.96864  0.31134  0.55015  1.0000
  C   C1216     1.0  0.62080  0.31044  0.52504  1.0000
  C   C1217     1.0  0.54887  0.02460  0.60275  1.0000
  H   H2058     1.0  0.64267  0.29543  0.55574  1.0000
  C   C1218     1.0  0.54547  0.99621  0.58610  1.0000
  H   H2059     1.0  0.75491  0.04913  0.59826  1.0000
  H   H2060     1.0  0.53680  0.99046  0.70577  1.0000
  C   C1219     1.0  0.61473  0.21817  0.51021  1.0000
  H   H2061     1.0  0.80687  0.06791  0.62784  1.0000
  C   C1220     1.0  0.96498  0.21194  0.51693  1.0000
  C   C1221     1.0  0.53595  0.03139  0.57062  1.0000
  H   H2062     1.0  0.81487  0.99568  0.62805  1.0000
  C   C1222     1.0  0.88108  0.07565  0.49139  1.0000
  H   H2063     1.0  0.94479  0.06153  0.52969  1.0000
  H   H2064     1.0  0.97741  0.28956  0.60862  1.0000
  C   C1223     1.0  0.56623  0.14468  0.56927  1.0000
  C   C1224     1.0  0.53409  0.18034  0.57845  1.0000
  C   C1225     1.0  0.57724  0.12611  0.55997  1.0000
  H   H2065     1.0  0.53110  0.14928  0.55683  1.0000
  H   H2066     1.0  0.56346  0.15629  0.55638  1.0000
  H   H2067     1.0  0.57725  0.15071  0.57666  1.0000
  H   H2068     1.0  0.52048  0.17902  0.57172  1.0000
  C   C1226     1.0  0.93684  0.18301  0.50947  1.0000
  H   H2069     1.0  0.51004  0.03844  0.59327  1.0000
  Fe  Fe184     1.0  0.50712  0.28044  0.59219  1.0000
  H   H2070     1.0  0.57154  0.12466  0.54584  1.0000
  H   H2071     1.0  0.57660  0.11207  0.57020  1.0000
  H   H2072     1.0  0.59357  0.12744  0.55656  1.0000
  C   C1227     1.0  0.75486  0.11278  0.49964  1.0000
  C   C1228     1.0  0.81307  0.02434  0.60786  1.0000
  C   C1229     1.0  0.79110  0.05594  0.60689  1.0000
  N   N85       1.0  0.97796  0.11308  0.59145  1.0000
  H   H2073     1.0  0.58302  0.17296  0.49661  1.0000
  S   S369      1.0  0.49282  0.02238  0.63232  1.0000
  H   H2074     1.0  0.96173  0.28666  0.59073  1.0000
  H   H2075     1.0  0.62862  0.20981  0.50311  1.0000
  H   H2076     1.0  0.86837  0.12566  0.49271  1.0000
  H   H2077     1.0  0.81600  0.02839  0.59139  1.0000
  H   H2078     1.0  0.93149  0.05600  0.58741  1.0000
  H   H2079     1.0  0.82534  0.02968  0.61407  1.0000
  H   H2080     1.0  0.79202  0.05700  0.59030  1.0000
  C   C1230     1.0  0.49582  0.15336  0.63494  1.0000
  S   S370      1.0  0.53167  0.29892  0.59299  1.0000
  H   H2081     1.0  0.97353  0.14282  0.69860  1.0000
  H   H2082     1.0  0.92608  0.31366  0.58303  1.0000
  S   S371      1.0  0.51393  0.25029  0.58176  1.0000
  H   H2083     1.0  0.53264  0.29543  0.72218  1.0000
  H   H2084     1.0  0.95476  0.20702  0.53050  1.0000
  H   H2085     1.0  0.95768  0.13492  0.72079  1.0000
  C   C1231     1.0  0.51350  0.03189  0.57904  1.0000
  H   H2086     1.0  0.89255  0.05803  0.55323  1.0000
  H   H2087     1.0  0.53714  0.02804  0.55504  1.0000
  C   C1232     1.0  0.66584  0.30231  0.53236  1.0000
  H   H2088     1.0  0.88936  0.07162  0.52952  1.0000
  H   H2089     1.0  0.55130  0.99878  0.72188  1.0000
  C   C1233     1.0  0.63063  0.31003  0.50309  1.0000
  H   H2090     1.0  0.70162  0.14016  0.48463  1.0000
  C   C1234     1.0  0.84097  0.98845  0.48606  1.0000
  H   H2091     1.0  0.95718  0.07382  0.62314  1.0000
  H   H2092     1.0  0.90745  0.10065  0.51781  1.0000
  C   C1235     1.0  0.54391  0.98631  0.56753  1.0000
  H   H2093     1.0  0.55717  0.31628  0.71680  1.0000
  N   N86       1.0  0.58346  0.20287  0.50397  1.0000
  H   H2094     1.0  0.77627  0.06436  0.61139  1.0000
  H   H2095     1.0  0.58024  0.01664  0.60977  1.0000
  H   H2096     1.0  0.80684  0.99422  0.60404  1.0000
  H   H2097     1.0  0.75012  0.11695  0.51495  1.0000
  H   H2098     1.0  0.91994  0.03420  0.54436  1.0000
  S   S372      1.0  0.58701  0.27789  0.50428  1.0000
  H   H2099     1.0  0.57344  0.10799  0.70881  1.0000
  H   H2100     1.0  0.98146  0.18171  0.51520  1.0000
  C   C1236     1.0  0.97284  0.13187  0.71224  1.0000
  H   H2101     1.0  0.53393  0.02278  0.61155  1.0000
  C   C1237     1.0  0.60760  0.17039  0.51344  1.0000
  H   H2102     1.0  0.61540  0.15698  0.50669  1.0000
  H   H2103     1.0  0.54961  0.22541  0.52767  1.0000
  C   C1238     1.0  0.59408  0.18288  0.49860  1.0000
  H   H2104     1.0  0.55253  0.11059  0.59436  1.0000
  H   H2105     1.0  0.94381  0.25790  0.49409  1.0000
  N   N87       1.0  0.55049  0.01736  0.58257  1.0000
  H   H2106     1.0  0.56245  0.13899  0.62161  1.0000
  H   H2107     1.0  0.56912  0.03464  0.54247  1.0000
  H   H2108     1.0  0.56443  0.18984  0.52929  1.0000
  H   H2109     1.0  0.83239  0.99610  0.60585  1.0000
  Fe  Fe185     1.0  0.50309  0.05127  0.63780  1.0000
  H   H2110     1.0  0.55833  0.28578  0.53809  1.0000
  C   C1239     1.0  0.98893  0.13313  0.72571  1.0000
  C   C1240     1.0  0.59712  0.21889  0.49799  1.0000
  H   H2111     1.0  0.55300  0.16507  0.59989  1.0000
  H   H2112     1.0  0.70159  0.10146  0.52880  1.0000
  C   C1241     1.0  0.92282  0.04164  0.52888  1.0000
  C   C1242     1.0  0.55704  0.11119  0.71330  1.0000
  N   N88       1.0  0.95436  0.21488  0.49856  1.0000
  C   C1243     1.0  0.92866  0.06295  0.52743  1.0000
  H   H2113     1.0  0.61771  0.23369  0.51065  1.0000
  C   C1244     1.0  0.93544  0.24923  0.50683  1.0000
  H   H2114     1.0  0.91455  0.08586  0.57043  1.0000
  C   C1245     1.0  0.56421  0.22064  0.53354  1.0000
  H   H2115     1.0  0.55706  0.98614  0.59402  1.0000
  H   H2116     1.0  0.81367  0.00628  0.49677  1.0000
  C   C1246     1.0  0.57282  0.27657  0.72058  1.0000
  C   C1247     1.0  0.57514  0.20117  0.52586  1.0000
  C   C1248     1.0  0.52907  0.11822  0.56720  1.0000
  C   C1249     1.0  0.53030  0.13957  0.57148  1.0000
  C   C1250     1.0  0.54065  0.16136  0.59255  1.0000
  C   C1251     1.0  0.56468  0.01428  0.61640  1.0000
  C   C1252     1.0  0.75541  0.03562  0.60953  1.0000
  H   H2117     1.0  0.56007  0.27352  0.71348  1.0000
  S   S373      1.0  0.54393  0.30690  0.68075  1.0000
  H   H2118     1.0  0.86374  0.08239  0.55687  1.0000
  C   C1253     1.0  0.64744  0.30937  0.54694  1.0000
  H   H2119     1.0  0.97116  0.07121  0.59933  1.0000
  H   H2120     1.0  0.62050  0.29464  0.53202  1.0000
  C   C1254     1.0  0.56572  0.20840  0.49225  1.0000
  C   C1255     1.0  0.89428  0.07271  0.54413  1.0000
  C   C1256     1.0  0.71493  0.10161  0.49773  1.0000
  H   H2121     1.0  0.52794  0.15948  0.60470  1.0000
  H   H2122     1.0  0.56962  0.00787  0.54353  1.0000
  H   H2123     1.0  0.55003  0.04087  0.60098  1.0000
  C   C1257     1.0  0.54935  0.31286  0.62059  1.0000
  H   H2124     1.0  0.54341  0.11089  0.56011  1.0000
  H   H2125     1.0  0.59870  0.16468  0.52755  1.0000
  H   H2126     1.0  0.52374  0.10874  0.58108  1.0000
  H   H2127     1.0  0.93642  0.16827  0.50457  1.0000
  C   C1258     1.0  0.87737  0.11171  0.48955  1.0000
  H   H2128     1.0  0.55733  0.22306  0.49541  1.0000
  C   C1259     1.0  0.53775  0.29870  0.61711  1.0000
  H   H2129     1.0  0.58092  0.12639  0.60378  1.0000
  H   H2130     1.0  0.56066  0.21801  0.55008  1.0000
  C   C1260     1.0  0.49147  0.18921  0.62330  1.0000
  C   C1261     1.0  0.96106  0.08202  0.60809  1.0000
  H   H2131     1.0  0.96628  0.12982  0.54953  1.0000
  C   C1262     1.0  0.53253  0.26014  0.50336  1.0000
  C   C1263     1.0  0.97359  0.29176  0.52733  1.0000
  H   H2132     1.0  0.94669  0.08647  0.60171  1.0000
  H   H2133     1.0  0.94819  0.13049  0.59315  1.0000
  C   C1264     1.0  0.70447  0.11262  0.51545  1.0000
  H   H2134     1.0  0.52591  0.01078  0.71912  1.0000
  H   H2135     1.0  0.56064  0.26004  0.48379  1.0000
  H   H2136     1.0  0.90931  0.04190  0.52133  1.0000
  H   H2137     1.0  0.57742  0.03822  0.71960  1.0000
  H   H2138     1.0  0.51531  0.14437  0.57970  1.0000
  H   H2139     1.0  0.77026  0.11705  0.49529  1.0000
  C   C1265     1.0  0.91627  0.09813  0.53068  1.0000
  H   H2140     1.0  0.94190  0.24964  0.52077  1.0000
  H   H2141     1.0  0.80367  0.08380  0.60494  1.0000
  C   C1266     1.0  0.79152  0.03179  0.63844  1.0000
  S   S374      1.0  0.49277  0.21383  0.62777  1.0000
  C   C1267     1.0  0.97757  0.14517  0.60764  1.0000
  H   H2142     1.0  0.58203  0.00492  0.57832  1.0000
  H   H2143     1.0  0.55472  0.19740  0.49681  1.0000
  C   C1268     1.0  0.97441  0.29542  0.54895  1.0000
  H   H2144     1.0  0.92101  0.19023  0.51142  1.0000
  N   N89       1.0  0.91586  0.07697  0.54096  1.0000
  H   H2145     1.0  0.93927  0.08038  0.55826  1.0000
  H   H2146     1.0  0.94557  0.09534  0.51103  1.0000
  H   H2147     1.0  0.51770  0.11889  0.55685  1.0000
  H   H2148     1.0  0.93814  0.04427  0.56516  1.0000
  N   N90       1.0  0.54691  0.14233  0.58303  1.0000
  H   H2149     1.0  0.55202  0.12750  0.71179  1.0000
  C   C1269     1.0  0.97749  0.28406  0.59405  1.0000
  H   H2150     1.0  0.98277  0.26781  0.59640  1.0000
  H   H2151     1.0  0.91220  0.04820  0.57644  1.0000
  H   H2152     1.0  0.61178  0.21188  0.52604  1.0000
  H   H2153     1.0  0.56694  0.11246  0.62376  1.0000
  H   H2154     1.0  0.73423  0.13864  0.49163  1.0000
  H   H2155     1.0  0.94666  0.10437  0.53453  1.0000
  H   H2156     1.0  0.99032  0.07093  0.72591  1.0000
  C   C1270     1.0  0.56187  0.27333  0.51029  1.0000
  H   H2157     1.0  0.52334  0.27894  0.54782  1.0000
  H   H2158     1.0  0.57992  0.28907  0.71132  1.0000
  H   H2159     1.0  0.57363  0.23299  0.53017  1.0000
  H   H2160     1.0  0.63002  0.29510  0.49862  1.0000
  C   C1271     1.0  0.56592  0.12620  0.61278  1.0000
  S   S375      1.0  0.51614  0.07292  0.61291  1.0000
  H   H2161     1.0  0.92535  0.22078  0.51664  1.0000
  H   H2162     1.0  0.93522  0.03214  0.52083  1.0000
  C   C1272     1.0  0.56222  0.04375  0.72548  1.0000
  H   H2163     1.0  0.65956  0.18222  0.48347  1.0000
  H   H2164     1.0  0.98561  0.31166  0.57788  1.0000
  H   H2165     1.0  0.49505  0.31523  0.61872  1.0000
  H   H2166     1.0  0.87483  0.06174  0.49544  1.0000
  H   H2167     1.0  0.50018  0.14112  0.64611  1.0000
  C   C1273     1.0  0.86952  0.09362  0.49571  1.0000
  Fe  Fe186     1.0  0.98139  0.05894  0.66075  1.0000
  H   H2168     1.0  0.57792  0.03137  0.57616  1.0000
  H   H2169     1.0  0.52537  0.25278  0.49380  1.0000
  H   H2170     1.0  0.96718  0.15503  0.59821  1.0000
  H   H2171     1.0  0.66225  0.29144  0.52320  1.0000
  H   H2172     1.0  0.61776  0.30338  0.57965  1.0000
  H   H2173     1.0  0.96916  0.13931  0.62196  1.0000
  Fe  Fe187     1.0  0.50175  0.09707  0.63163  1.0000
  H   H2174     1.0  0.97050  0.27630  0.52685  1.0000
  H   H2175     1.0  0.53141  0.99479  0.59670  1.0000
  H   H2176     1.0  0.98186  0.13686  0.48441  1.0000
  C   C1274     1.0  0.98985  0.12826  0.59658  1.0000
  C   C1275     1.0  0.81663  0.00127  0.61189  1.0000
  H   H2177     1.0  0.96404  0.18524  0.48937  1.0000
  H   H2178     1.0  0.82240  0.06260  0.60464  1.0000
  C   C1276     1.0  0.93441  0.22758  0.50310  1.0000
  C   C1277     1.0  0.97128  0.10016  0.61048  1.0000
  H   H2179     1.0  0.98721  0.29489  0.51697  1.0000
  H   H2180     1.0  0.98658  0.25916  0.56352  1.0000
  H   H2181     1.0  0.75645  0.09635  0.50026  1.0000
  H   H2182     1.0  0.98809  0.15474  0.61130  1.0000
  H   H2183     1.0  0.60366  0.18478  0.48395  1.0000
  H   H2184     1.0  0.50210  0.17613  0.65120  1.0000
  C   C1278     1.0  0.74085  0.12484  0.48483  1.0000
  H   H2185     1.0  0.57756  0.13590  0.72752  1.0000
  H   H2186     1.0  0.58423  0.26310  0.72029  1.0000
  S   S376      1.0  0.94666  0.08116  0.72694  1.0000
  Fe  Fe188     1.0  0.65246  0.10822  0.48494  1.0000
  C   C1279     1.0  0.60641  0.31064  0.56977  1.0000
  H   H2187     1.0  0.98771  0.10024  0.65934  1.0000
  S   S377      1.0  0.49786  0.25825  0.52981  1.0000
  H   H2188     1.0  0.59318  0.31680  0.57977  1.0000
  S   S378      1.0  0.65625  0.14060  0.48634  1.0000
  H   H2189     1.0  0.50836  0.01694  0.58108  1.0000
  H   H2190     1.0  0.92520  0.22849  0.49070  1.0000
  H   H2191     1.0  0.52759  0.30257  0.49035  1.0000
  S   S379      1.0  0.90799  0.31751  0.54697  1.0000
  H   H2192     1.0  0.60474  0.31669  0.52421  1.0000
  H   H2193     1.0  0.99052  0.19599  0.53098  1.0000
  S   S380      1.0  0.82492  0.31691  0.49829  1.0000
  C   C1280     1.0  0.52237  0.31788  0.48334  1.0000
  C   C1281     1.0  0.90100  0.07563  0.48231  1.0000
  C   C1282     1.0  0.78998  0.11017  0.97290  1.0000
  C   C1283     1.0  0.50490  0.99446  0.83628  1.0000
  S   S381      1.0  0.89451  0.12354  0.92778  1.0000
  H   H2194     1.0  0.50574  0.07687  0.85009  1.0000
  H   H2195     1.0  0.95573  0.18249  0.85027  1.0000
  C   C1284     1.0  0.58490  0.09505  0.95205  1.0000
  H   H2196     1.0  0.50230  0.02204  0.81642  1.0000
  H   H2197     1.0  0.91212  0.27286  0.96697  1.0000
  C   C1285     1.0  0.93243  0.24914  0.98112  1.0000
  S   S382      1.0  0.53161  0.29547  0.85836  1.0000
  Fe  Fe189     1.0  0.55271  0.06609  0.82514  1.0000
  S   S383      1.0  0.58403  0.05814  0.81034  1.0000
  S   S384      1.0  0.53938  0.09811  0.82580  1.0000
  Fe  Fe190     1.0  0.54421  0.02281  0.83441  1.0000
  S   S385      1.0  0.57511  0.01164  0.82035  1.0000
  H   H2198     1.0  0.60944  0.09893  0.76111  1.0000
  Fe  Fe191     1.0  0.58643  0.03376  0.83643  1.0000
  S   S386      1.0  0.60971  0.02424  0.85842  1.0000
  Fe  Fe192     1.0  0.56943  0.03717  0.79588  1.0000
  S   S387      1.0  0.55562  0.04313  0.85197  1.0000
  S   S388      1.0  0.53795  0.04687  0.80926  1.0000
  Fe  Fe193     1.0  0.72056  0.07444  0.93925  1.0000
  H   H2199     1.0  0.95707  0.20747  0.87182  1.0000
  S   S389      1.0  0.75235  0.08349  0.93431  1.0000
  Fe  Fe194     1.0  0.69047  0.05992  0.91503  1.0000
  S   S390      1.0  0.67151  0.04876  0.94296  1.0000
  S   S391      1.0  0.68142  0.06260  0.88364  1.0000
  Fe  Fe195     1.0  0.67527  0.07775  0.95305  1.0000
  H   H2200     1.0  0.51716  0.01848  0.74995  1.0000
  Fe  Fe196     1.0  0.70051  0.03740  0.95566  1.0000
  S   S392      1.0  0.69343  0.08937  0.92470  1.0000
  S   S393      1.0  0.71946  0.04596  0.92664  1.0000
  C   C1286     1.0  0.53127  0.29411  0.73877  1.0000
  H   H2201     1.0  0.53268  0.04972  0.76947  1.0000
  C   C1287     1.0  0.62861  0.03626  0.86569  1.0000
  C   C1288     1.0  0.63677  0.02832  0.88346  1.0000
  C   C1289     1.0  0.65240  0.03667  0.88951  1.0000
  C   C1290     1.0  0.66043  0.05281  0.87759  1.0000
  C   C1291     1.0  0.65215  0.06093  0.85992  1.0000
  C   C1292     1.0  0.63615  0.05288  0.85411  1.0000
  H   H2202     1.0  0.63114  0.01541  0.89247  1.0000
  H   H2203     1.0  0.65871  0.03012  0.90303  1.0000
  H   H2204     1.0  0.65827  0.07337  0.85053  1.0000
  H   H2205     1.0  0.63011  0.05909  0.84037  1.0000
  H   H2206     1.0  0.58003  0.28212  0.74901  1.0000
  C   C1293     1.0  0.76902  0.11064  0.97818  1.0000
  C   C1294     1.0  0.53473  0.10309  0.85062  1.0000
  C   C1295     1.0  0.54639  0.09219  0.86481  1.0000
  C   C1296     1.0  0.53718  0.05031  0.75362  1.0000
  H   H2207     1.0  0.51253  0.24737  0.93741  1.0000
  H   H2208     1.0  0.55955  0.08212  0.86016  1.0000
  H   H2209     1.0  0.97158  0.14020  0.92507  1.0000
  H   H2210     1.0  0.52834  0.27843  0.74380  1.0000
  H   H2211     1.0  0.95536  0.15632  0.85247  1.0000
  C   C1297     1.0  0.59305  0.10265  0.76572  1.0000
  H   H2212     1.0  0.95393  0.15176  0.88612  1.0000
  N   N91       1.0  0.55918  0.10599  0.75158  1.0000
  H   H2213     1.0  0.49359  0.12458  0.97109  1.0000
  C   C1298     1.0  0.55009  0.10095  0.73431  1.0000
  C   C1299     1.0  0.89279  0.06688  0.93645  1.0000
  H   H2214     1.0  0.94649  0.15033  0.91954  1.0000
  C   C1300     1.0  0.61676  0.06358  0.93250  1.0000
  N   N92       1.0  0.97594  0.17010  0.89071  1.0000
  C   C1301     1.0  0.96987  0.09491  0.77455  1.0000
  C   C1302     1.0  0.95672  0.09274  0.76094  1.0000
  C   C1303     1.0  0.96393  0.08398  0.74335  1.0000
  H   H2215     1.0  0.93196  0.02435  0.73878  1.0000
  C   C1304     1.0  0.52318  0.05852  0.74038  1.0000
  C   C1305     1.0  0.54786  0.30325  0.95634  1.0000
  H   H2216     1.0  0.94084  0.09789  0.76408  1.0000
  H   H2217     1.0  0.53347  0.10476  0.73627  1.0000
  C   C1306     1.0  0.90454  0.06525  0.95454  1.0000
  H   H2218     1.0  0.96398  0.21265  0.89514  1.0000
  C   C1307     1.0  0.55012  0.09422  0.77046  1.0000
  C   C1308     1.0  0.76640  0.09332  0.94996  1.0000
  C   C1309     1.0  0.78736  0.09270  0.94478  1.0000
  C   C1310     1.0  0.79909  0.10093  0.95622  1.0000
  H   H2219     1.0  0.93743  0.06835  0.93263  1.0000
  H   H2220     1.0  0.96546  0.99538  0.78005  1.0000
  H   H2221     1.0  0.79459  0.08597  0.93171  1.0000
  H   H2222     1.0  0.55317  0.08462  0.73360  1.0000
  C   C1311     1.0  0.92011  0.11655  0.91872  1.0000
  C   C1312     1.0  0.93462  0.10955  0.93158  1.0000
  C   C1313     1.0  0.95458  0.10313  0.92371  1.0000
  C   C1314     1.0  0.96030  0.10395  0.90294  1.0000
  C   C1315     1.0  0.94597  0.11165  0.89007  1.0000
  C   C1316     1.0  0.92597  0.11784  0.89794  1.0000
  H   H2223     1.0  0.93041  0.10892  0.94757  1.0000
  H   H2224     1.0  0.96563  0.09736  0.93376  1.0000
  H   H2225     1.0  0.95016  0.11231  0.87406  1.0000
  H   H2226     1.0  0.91487  0.12336  0.88787  1.0000
  S   S394      1.0  0.98515  0.09415  0.89394  1.0000
  H   H2227     1.0  0.98700  0.12072  0.73811  1.0000
  N   N93       1.0  0.92202  0.04873  0.95564  1.0000
  H   H2228     1.0  0.52825  0.12440  0.97847  1.0000
  H   H2229     1.0  0.53651  0.00915  0.78730  1.0000
  C   C1317     1.0  0.58145  0.09874  0.74910  1.0000
  C   C1318     1.0  0.96828  0.17222  0.91230  1.0000
  C   C1319     1.0  0.51204  0.30794  0.74534  1.0000
  H   H2230     1.0  0.50935  0.12541  0.84561  1.0000
  C   C1320     1.0  0.50932  0.05618  0.88948  1.0000
  H   H2231     1.0  0.58977  0.31112  0.73302  1.0000
  H   H2232     1.0  0.60297  0.04968  0.96142  1.0000
  C   C1321     1.0  0.55694  0.04331  0.74626  1.0000
  H   H2233     1.0  0.93137  0.26198  0.94957  1.0000
  H   H2234     1.0  0.74229  0.03639  0.97086  1.0000
  H   H2235     1.0  0.56182  0.30362  0.77191  1.0000
  C   C1322     1.0  0.51823  0.11677  0.85661  1.0000
  H   H2236     1.0  0.96519  0.31121  0.94874  1.0000
  C   C1323     1.0  0.61843  0.17659  0.97802  1.0000
  C   C1324     1.0  0.75730  0.10218  0.96688  1.0000
  H   H2237     1.0  0.58879  0.11056  0.94933  1.0000
  H   H2238     1.0  0.65935  0.31688  0.92879  1.0000
  C   C1325     1.0  0.51262  0.11858  0.87695  1.0000
  H   H2239     1.0  0.95838  0.02852  0.78220  1.0000
  C   C1326     1.0  0.53369  0.20003  0.97923  1.0000
  S   S395      1.0  0.50882  0.30342  0.90309  1.0000
  H   H2240     1.0  0.97381  0.24527  0.93631  1.0000
  H   H2241     1.0  0.50998  0.06911  0.89748  1.0000
  C   C1327     1.0  0.56763  0.14236  0.73994  1.0000
  H   H2242     1.0  0.97073  0.04689  0.76609  1.0000
  H   H2243     1.0  0.85802  0.29182  0.96905  1.0000
  H   H2244     1.0  0.93987  0.00916  0.94482  1.0000
  N   N94       1.0  0.50570  0.19773  0.95744  1.0000
  C   C1328     1.0  0.96974  0.20832  0.88009  1.0000
  C   C1329     1.0  0.49659  0.21287  0.89565  1.0000
  C   C1330     1.0  0.97148  0.24195  0.95288  1.0000
  H   H2245     1.0  0.96637  0.03875  0.92408  1.0000
  H   H2246     1.0  0.98009  0.17657  0.91998  1.0000
  H   H2247     1.0  0.93846  0.00905  0.76117  1.0000
  H   H2248     1.0  0.95584  0.15667  0.94058  1.0000
  H   H2249     1.0  0.78836  0.03469  0.96957  1.0000
  H   H2250     1.0  0.54950  0.08520  0.89615  1.0000
  C   C1331     1.0  0.56631  0.28060  0.74245  1.0000
  S   S396      1.0  0.50904  0.24991  0.88879  1.0000
  H   H2251     1.0  0.96663  0.25663  0.95827  1.0000
  H   H2252     1.0  0.59034  0.11845  0.76859  1.0000
  H   H2253     1.0  0.51594  0.15587  0.94940  1.0000
  C   C1332     1.0  0.96021  0.15366  0.92484  1.0000
  C   C1333     1.0  0.96274  0.16795  0.85740  1.0000
  H   H2254     1.0  0.81515  0.10050  0.95189  1.0000
  H   H2255     1.0  0.49960  0.04003  0.85939  1.0000
  S   S397      1.0  0.57546  0.03461  0.76248  1.0000
  H   H2256     1.0  0.88324  0.05473  0.93798  1.0000
  H   H2257     1.0  0.53013  0.27520  0.77608  1.0000
  C   C1334     1.0  0.81830  0.31106  0.97835  1.0000
  Fe  Fe197     1.0  0.50634  0.28377  0.88001  1.0000
  H   H2258     1.0  0.56102  0.26664  0.75078  1.0000
  C   C1335     1.0  0.95931  0.04315  0.93885  1.0000
  H   H2259     1.0  0.51238  0.20754  0.89605  1.0000
  H   H2260     1.0  0.89354  0.06374  0.96839  1.0000
  S   S398      1.0  0.64601  0.09669  0.96115  1.0000
  H   H2261     1.0  0.52259  0.08977  0.79041  1.0000
  H   H2262     1.0  0.90678  0.02876  0.94283  1.0000
  H   H2263     1.0  0.62891  0.05604  0.92224  1.0000
  C   C1336     1.0  0.54446  0.99413  0.78483  1.0000
  H   H2264     1.0  0.55457  0.07786  0.77014  1.0000
  H   H2265     1.0  0.59563  0.08555  0.96137  1.0000
  C   C1337     1.0  0.97448  0.29964  0.95709  1.0000
  H   H2266     1.0  0.91014  0.24881  0.96055  1.0000
  Fe  Fe198     1.0  0.87953  0.12099  0.96017  1.0000
  S   S399      1.0  0.70244  0.06539  0.96868  1.0000
  C   C1338     1.0  0.92095  0.25846  0.96337  1.0000
  H   H2267     1.0  0.53745  0.31522  0.76978  1.0000
  H   H2268     1.0  0.88240  0.08111  0.93574  1.0000
  H   H2269     1.0  0.75321  0.05681  0.97532  1.0000
  H   H2270     1.0  0.53125  0.04159  0.90914  1.0000
  H   H2271     1.0  0.98110  0.03867  0.80055  1.0000
  C   C1339     1.0  0.55631  0.28340  0.94802  1.0000
  H   H2272     1.0  0.49266  0.22791  0.96252  1.0000
  H   H2273     1.0  0.94526  0.17771  0.88417  1.0000
  H   H2274     1.0  0.62463  0.06980  0.94300  1.0000
  H   H2275     1.0  0.55603  0.09766  0.78378  1.0000
  H   H2276     1.0  0.50807  0.06433  0.74625  1.0000
  H   H2277     1.0  0.51424  0.18877  0.92791  1.0000
  C   C1340     1.0  0.95869  0.16672  0.88046  1.0000
  H   H2278     1.0  0.54601  0.27191  0.95309  1.0000
  C   C1341     1.0  0.97302  0.03110  0.77309  1.0000
  C   C1342     1.0  0.54746  0.30121  0.76713  1.0000
  H   H2279     1.0  0.59824  0.04251  0.90740  1.0000
  C   C1343     1.0  0.55666  0.31704  0.73305  1.0000
  H   H2280     1.0  0.51917  0.05944  0.87523  1.0000
  S   S400      1.0  0.85669  0.14601  0.97111  1.0000
  H   H2281     1.0  0.94689  0.18724  0.97146  1.0000
  H   H2282     1.0  0.57154  0.27748  0.95177  1.0000
  C   C1344     1.0  0.52808  0.16537  0.94817  1.0000
  C   C1345     1.0  0.55433  0.12796  0.75371  1.0000
  H   H2283     1.0  0.51928  0.09149  0.76491  1.0000
  S   S401      1.0  0.64061  0.31794  0.97349  1.0000
  H   H2284     1.0  0.55271  0.27337  0.78755  1.0000
  H   H2285     1.0  0.52812  0.02693  0.88995  1.0000
  H   H2286     1.0  0.57698  0.14876  0.74888  1.0000
  H   H2287     1.0  0.53444  0.19510  0.93810  1.0000
  C   C1346     1.0  0.53987  0.28383  0.78216  1.0000
  C   C1347     1.0  0.52698  0.09776  0.77536  1.0000
  H   H2288     1.0  0.49972  0.12892  0.88156  1.0000
  C   C1348     1.0  0.52014  0.03721  0.90065  1.0000
  H   H2289     1.0  0.52464  0.22657  0.92553  1.0000
  H   H2290     1.0  0.90964  0.08015  0.95377  1.0000
  H   H2291     1.0  0.55527  0.13043  0.76937  1.0000
  S   S402      1.0  0.85994  0.09686  0.97251  1.0000
  S   S403      1.0  0.51517  0.10645  0.91676  1.0000
  N   N95       1.0  0.55042  0.29821  0.74538  1.0000
  C   C1349     1.0  0.52362  0.10683  0.89123  1.0000
  C   C1350     1.0  0.93715  0.05206  0.93722  1.0000
  H   H2292     1.0  0.58937  0.09287  0.77986  1.0000
  H   H2293     1.0  0.65097  0.19831  0.96748  1.0000
  H   H2294     1.0  0.50791  0.01004  0.77481  1.0000
  H   H2295     1.0  0.53037  0.22994  0.94991  1.0000
  H   H2296     1.0  0.58405  0.08229  0.74832  1.0000
  H   H2297     1.0  0.96454  0.21205  0.95877  1.0000
  C   C1351     1.0  0.54088  0.09412  0.88512  1.0000
  H   H2298     1.0  0.53045  0.29002  0.79519  1.0000
  H   H2299     1.0  0.94596  0.22846  0.94735  1.0000
  S   S404      1.0  0.52251  0.00140  0.84979  1.0000
  N   N96       1.0  0.73825  0.08561  0.86669  1.0000
  C   C1352     1.0  0.74330  0.09233  0.88533  1.0000
  C   C1353     1.0  0.73655  0.06355  0.87144  1.0000
  C   C1354     1.0  0.71807  0.09682  0.86250  1.0000
  C   C1355     1.0  0.75448  0.09032  0.84967  1.0000
  C   C1356     1.0  0.74347  0.11501  0.88491  1.0000
  C   C1357     1.0  0.75549  0.05022  0.87806  1.0000
  C   C1358     1.0  0.70919  0.09172  0.84461  1.0000
  C   C1359     1.0  0.75703  0.07806  0.83183  1.0000
  H   H2300     1.0  0.73260  0.08748  0.89856  1.0000
  H   H2301     1.0  0.75847  0.08520  0.88881  1.0000
  H   H2302     1.0  0.73242  0.05720  0.85880  1.0000
  H   H2303     1.0  0.72398  0.06098  0.88360  1.0000
  H   H2304     1.0  0.70668  0.09462  0.87595  1.0000
  H   H2305     1.0  0.71875  0.11318  0.85942  1.0000
  H   H2306     1.0  0.75213  0.10645  0.84359  1.0000
  H   H2307     1.0  0.76941  0.08787  0.85529  1.0000
  H   H2308     1.0  0.75011  0.11752  0.89818  1.0000
  H   H2309     1.0  0.75276  0.12154  0.87148  1.0000
  H   H2310     1.0  0.72800  0.12316  0.88619  1.0000
  H   H2311     1.0  0.75364  0.03428  0.87812  1.0000
  H   H2312     1.0  0.76932  0.05324  0.86791  1.0000
  H   H2313     1.0  0.75745  0.05194  0.89359  1.0000
  H   H2314     1.0  0.71794  0.09686  0.83021  1.0000
  H   H2315     1.0  0.69375  0.09989  0.84445  1.0000
  H   H2316     1.0  0.70751  0.07567  0.84565  1.0000
  H   H2317     1.0  0.76090  0.08797  0.81775  1.0000
  H   H2318     1.0  0.74366  0.07145  0.82982  1.0000
  H   H2319     1.0  0.77004  0.06611  0.83280  1.0000
  N   N97       1.0  0.60442  0.08032  0.92084  1.0000
  C   C1360     1.0  0.61578  0.09828  0.91637  1.0000
  C   C1361     1.0  0.58422  0.08690  0.93219  1.0000
  C   C1362     1.0  0.60133  0.07456  0.90105  1.0000
  H   H2320     1.0  0.59812  0.30474  0.91156  1.0000
  C   C1363     1.0  0.63675  0.09528  0.90399  1.0000
  H   H2321     1.0  0.55782  0.15528  0.73305  1.0000
  C   C1364     1.0  0.58953  0.05677  0.90177  1.0000
  H   H2322     1.0  0.53841  0.13331  0.75131  1.0000
  H   H2323     1.0  0.60677  0.11122  0.90843  1.0000
  H   H2324     1.0  0.61849  0.10331  0.93044  1.0000
  H   H2325     1.0  0.57460  0.07477  0.93580  1.0000
  H   H2326     1.0  0.57545  0.09879  0.92271  1.0000
  H   H2327     1.0  0.59352  0.08755  0.89198  1.0000
  H   H2328     1.0  0.61598  0.07035  0.89203  1.0000
  H   H2329     1.0  0.56973  0.09572  0.96091  1.0000
  H   H2330     1.0  0.54464  0.19806  0.96576  1.0000
  H   H2331     1.0  0.63581  0.09379  0.88818  1.0000
  H   H2332     1.0  0.64436  0.10868  0.90377  1.0000
  H   H2333     1.0  0.64662  0.08235  0.91065  1.0000
  C   C1365     1.0  0.92877  0.01003  0.95845  1.0000
  S   S405      1.0  0.71166  0.00703  0.97105  1.0000
  H   H2334     1.0  0.61509  0.03254  0.94497  1.0000
  H   H2335     1.0  0.58725  0.05527  0.88625  1.0000
  H   H2336     1.0  0.57437  0.05876  0.91037  1.0000
  H   H2337     1.0  0.98612  0.23572  0.95825  1.0000
  H   H2338     1.0  0.77464  0.04355  0.94884  1.0000
  C   C1366     1.0  0.51261  0.19475  0.97784  1.0000
  H   H2339     1.0  0.96812  0.05475  0.94165  1.0000
  C   C1367     1.0  0.91370  0.02924  0.95654  1.0000
  C   C1368     1.0  0.49717  0.00756  0.82064  1.0000
  H   H2340     1.0  0.50790  0.30603  0.76181  1.0000
  H   H2341     1.0  0.59346  0.29284  0.96453  1.0000
  H   H2342     1.0  0.55032  0.00247  0.75339  1.0000
  H   H2343     1.0  0.59099  0.04520  0.94074  1.0000
  H   H2344     1.0  0.77449  0.01822  0.95991  1.0000
  N   N98       1.0  0.94376  0.22853  0.97960  1.0000
  C   C1369     1.0  0.95581  0.22715  0.95932  1.0000
  C   C1370     1.0  0.52070  0.18765  0.94218  1.0000
  N   N99       1.0  0.52404  0.98666  0.75805  1.0000
  H   H2345     1.0  0.94690  0.07505  0.96379  1.0000
  H   H2346     1.0  0.53982  0.16007  0.93627  1.0000
  H   H2347     1.0  0.68663  0.13937  0.96819  1.0000
  C   C1371     1.0  0.60539  0.04715  0.94545  1.0000
  H   H2348     1.0  0.52120  0.11376  0.77597  1.0000
  H   H2349     1.0  0.90276  0.06737  0.92201  1.0000
  H   H2350     1.0  0.90142  0.02775  0.96931  1.0000
  H   H2351     1.0  0.74121  0.10292  0.97102  1.0000
  H   H2352     1.0  0.98582  0.13809  0.89288  1.0000
  C   C1372     1.0  0.77442  0.03366  0.96333  1.0000
  H   H2353     1.0  0.97788  0.22066  0.87182  1.0000
  H   H2354     1.0  0.91927  0.21632  0.97043  1.0000
  C   C1373     1.0  0.66026  0.15888  0.97927  1.0000
  H   H2355     1.0  0.96410  0.10180  0.78793  1.0000
  C   C1374     1.0  0.94117  0.02302  0.75125  1.0000
  H   H2356     1.0  0.93249  0.04639  0.92430  1.0000
  H   H2357     1.0  0.50991  0.02890  0.91187  1.0000
  H   H2358     1.0  0.93562  0.03614  0.75940  1.0000
  H   H2359     1.0  0.69304  0.16066  0.97712  1.0000
  C   C1375     1.0  0.67872  0.19898  0.97812  1.0000
  C   C1376     1.0  0.98452  0.07748  0.73946  1.0000
  H   H2360     1.0  0.55740  0.28602  0.93141  1.0000
  C   C1377     1.0  0.97794  0.99585  0.76743  1.0000
  H   H2361     1.0  0.55639  0.31493  0.94747  1.0000
  H   H2362     1.0  0.65850  0.16448  0.96335  1.0000
  H   H2363     1.0  0.62088  0.19001  0.96714  1.0000
  H   H2364     1.0  0.68596  0.19383  0.96373  1.0000
  H   H2365     1.0  0.95562  0.18455  0.91345  1.0000
  C   C1378     1.0  0.96347  0.02316  0.74248  1.0000
  H   H2366     1.0  0.90856  0.31363  0.83946  1.0000
  H   H2367     1.0  0.96155  0.02972  0.94987  1.0000
  H   H2368     1.0  0.62253  0.16291  0.97048  1.0000
  C   C1379     1.0  0.75525  0.04028  0.97723  1.0000
  N   N100      1.0  0.97844  0.01705  0.75731  1.0000
  C   C1380     1.0  0.51021  0.00600  0.75938  1.0000
  H   H2369     1.0  0.49930  0.30410  0.73871  1.0000
  H   H2370     1.0  0.53229  0.30690  0.95217  1.0000
  H   H2371     1.0  0.92041  0.99695  0.95982  1.0000
  S   S406      1.0  0.56469  0.31485  0.88921  1.0000
  C   C1381     1.0  0.54420  0.98972  0.76325  1.0000
  C   C1382     1.0  0.51832  0.23123  0.94036  1.0000
  C   C1383     1.0  0.96798  0.29332  0.97725  1.0000
  H   H2372     1.0  0.49493  0.02364  0.88154  1.0000
  H   H2373     1.0  0.96499  0.03858  0.73491  1.0000
  H   H2374     1.0  0.58928  0.10519  0.73477  1.0000
  H   H2375     1.0  0.53504  0.16283  0.96223  1.0000
  H   H2376     1.0  0.97880  0.16545  0.85127  1.0000
  H   H2377     1.0  0.83197  0.31519  0.96842  1.0000
  H   H2378     1.0  0.56033  0.99424  0.78716  1.0000
  H   H2379     1.0  0.68173  0.31586  0.93983  1.0000
  H   H2380     1.0  0.67941  0.21528  0.97717  1.0000
  C   C1384     1.0  0.58596  0.29161  0.98019  1.0000
  H   H2381     1.0  0.98436  0.14711  0.73281  1.0000
  H   H2382     1.0  0.93641  0.00820  0.97202  1.0000
  C   C1385     1.0  0.93041  0.04906  0.97491  1.0000
  C   C1386     1.0  0.93756  0.06890  0.97736  1.0000
  N   N101      1.0  0.54780  0.30383  0.97843  1.0000
  C   C1387     1.0  0.98463  0.18888  0.88114  1.0000
  H   H2383     1.0  0.94322  0.03724  0.97713  1.0000
  C   C1388     1.0  0.98819  0.02998  0.78817  1.0000
  C   C1389     1.0  0.68236  0.14950  0.97995  1.0000
  H   H2384     1.0  0.81290  0.30026  0.97024  1.0000
  Fe  Fe199     1.0  0.53302  0.31623  0.88091  1.0000
  C   C1390     1.0  0.50070  0.21969  0.95011  1.0000
  H   H2385     1.0  0.92458  0.08017  0.98136  1.0000
  H   H2386     1.0  0.97570  0.31800  0.84886  1.0000
  H   H2387     1.0  0.61033  0.11555  0.98164  1.0000
  C   C1391     1.0  0.99043  0.08825  0.77077  1.0000
  Fe  Fe200     1.0  0.65654  0.46382  0.14288  1.0000
  S   S407      1.0  0.63137  0.45257  0.13167  1.0000
  S   S408      1.0  0.66235  0.45848  0.17535  1.0000
  Fe  Fe201     1.0  0.67537  0.47934  0.10076  1.0000
  S   S409      1.0  0.65129  0.46914  0.08650  1.0000
  S   S410      1.0  0.69941  0.49292  0.07789  1.0000
  Fe  Fe202     1.0  0.62978  0.48180  0.11135  1.0000
  S   S411      1.0  0.59933  0.49818  0.10492  1.0000
  Fe  Fe203     1.0  0.65487  0.44088  0.10781  1.0000
  S   S412      1.0  0.65994  0.40858  0.10103  1.0000
  S   S413      1.0  0.65343  0.49403  0.12421  1.0000
  S   S414      1.0  0.68045  0.45018  0.12041  1.0000
  C   C1392     1.0  0.95653  0.63080  0.01803  1.0000
  C   C1393     1.0  0.91835  0.32682  0.10327  1.0000
  C   C1394     1.0  0.93541  0.48889  0.19224  1.0000
  S   S415      1.0  0.53096  0.62839  0.08211  1.0000
  Fe  Fe204     1.0  0.54018  0.60536  0.10744  1.0000
  S   S416      1.0  0.57211  0.59060  0.11061  1.0000
  S   S417      1.0  0.52644  0.62477  0.13131  1.0000
  Fe  Fe205     1.0  0.62758  0.35145  0.01642  1.0000
  H   H2388     1.0  0.78194  0.50115  0.02388  1.0000
  S   S418      1.0  0.61793  0.37620  0.03638  1.0000
  S   S419      1.0  0.89463  0.34737  0.00852  1.0000
  Fe  Fe206     1.0  0.92555  0.41600  0.18948  1.0000
  S   S420      1.0  0.91180  0.44627  0.17729  1.0000
  Fe  Fe207     1.0  0.93134  0.40053  0.14818  1.0000
  S   S421      1.0  0.91838  0.43046  0.13361  1.0000
  S   S422      1.0  0.94373  0.37767  0.12618  1.0000
  Fe  Fe208     1.0  0.93649  0.44427  0.15173  1.0000
  Fe  Fe209     1.0  0.89509  0.42981  0.16052  1.0000
  S   S423      1.0  0.86286  0.44182  0.15756  1.0000
  S   S424      1.0  0.95153  0.41460  0.16455  1.0000
  S   S425      1.0  0.90677  0.39919  0.17448  1.0000
  Fe  Fe210     1.0  0.80573  0.52888  0.06708  1.0000
  S   S426      1.0  0.81318  0.50369  0.04855  1.0000
  S   S427      1.0  0.77789  0.52864  0.09042  1.0000
  Fe  Fe211     1.0  0.84695  0.54514  0.05238  1.0000
  S   S428      1.0  0.85653  0.52076  0.03245  1.0000
  S   S429      1.0  0.87257  0.56070  0.05974  1.0000
  Fe  Fe212     1.0  0.82513  0.52638  0.02430  1.0000
  S   S430      1.0  0.81819  0.52414  0.99315  1.0000
  Fe  Fe213     1.0  0.84371  0.50012  0.05817  1.0000
  S   S431      1.0  0.85948  0.46909  0.06569  1.0000
  S   S432      1.0  0.81584  0.55256  0.04225  1.0000
  S   S433      1.0  0.83576  0.52369  0.07862  1.0000
  S   S434      1.0  0.95430  0.62940  0.07454  1.0000
  C   C1395     1.0  0.97339  0.47674  0.14510  1.0000
  H   H2389     1.0  0.69808  0.35559  0.04008  1.0000
  S   S435      1.0  0.95140  0.62438  0.13073  1.0000
  C   C1396     1.0  0.88123  0.58464  0.05614  1.0000
  C   C1397     1.0  0.89994  0.58610  0.06211  1.0000
  C   C1398     1.0  0.90726  0.60470  0.06040  1.0000
  C   C1399     1.0  0.89584  0.62224  0.05286  1.0000
  C   C1400     1.0  0.87730  0.62077  0.04652  1.0000
  C   C1401     1.0  0.87001  0.60212  0.04815  1.0000
  H   H2390     1.0  0.90883  0.57273  0.06823  1.0000
  H   H2391     1.0  0.92161  0.60546  0.06517  1.0000
  H   H2392     1.0  0.86830  0.63420  0.04062  1.0000
  H   H2393     1.0  0.85560  0.60131  0.04346  1.0000
  C   C1402     1.0  0.83318  0.46415  0.99513  1.0000
  C   C1403     1.0  0.83164  0.48395  0.99918  1.0000
  H   H2394     1.0  0.94608  0.32482  0.08337  1.0000
  H   H2395     1.0  0.84018  0.45219  0.00512  1.0000
  H   H2396     1.0  0.83755  0.48710  0.01214  1.0000
  H   H2397     1.0  0.52242  0.57315  0.16108  1.0000
  H   H2398     1.0  0.58625  0.51582  0.23080  1.0000
  H   H2399     1.0  0.95935  0.35191  0.09623  1.0000
  H   H2400     1.0  0.72035  0.47281  0.03595  1.0000
  H   H2401     1.0  0.54863  0.59341  0.15856  1.0000
  C   C1404     1.0  0.94465  0.34791  0.10248  1.0000
  C   C1405     1.0  0.85958  0.46127  0.09131  1.0000
  C   C1406     1.0  0.84964  0.47345  0.10546  1.0000
  C   C1407     1.0  0.85027  0.46721  0.12589  1.0000
  C   C1408     1.0  0.86103  0.44884  0.13217  1.0000
  C   C1409     1.0  0.87085  0.43653  0.11807  1.0000
  C   C1410     1.0  0.87000  0.44271  0.09765  1.0000
  H   H2402     1.0  0.84132  0.48757  0.10074  1.0000
  H   H2403     1.0  0.84288  0.47681  0.13681  1.0000
  H   H2404     1.0  0.87903  0.42219  0.12292  1.0000
  H   H2405     1.0  0.87754  0.43319  0.08678  1.0000
  C   C1411     1.0  0.93341  0.35811  0.11788  1.0000
  H   H2406     1.0  0.51418  0.56491  0.19237  1.0000
  C   C1412     1.0  0.91456  0.35246  0.12601  1.0000
  C   C1413     1.0  0.88207  0.50135  0.13004  1.0000
  H   H2407     1.0  0.90577  0.35998  0.13796  1.0000
  H   H2408     1.0  0.68174  0.39447  0.15441  1.0000
  C   C1414     1.0  0.97816  0.49602  0.14564  1.0000
  H   H2409     1.0  0.84018  0.63489  0.11144  1.0000
  H   H2410     1.0  0.64511  0.37282  0.22310  1.0000
  H   H2411     1.0  0.88279  0.62363  0.16608  1.0000
  C   C1415     1.0  0.72117  0.50244  0.08217  1.0000
  C   C1416     1.0  0.72491  0.50488  0.10127  1.0000
  C   C1417     1.0  0.74225  0.51311  0.10358  1.0000
  C   C1418     1.0  0.75630  0.51831  0.08695  1.0000
  C   C1419     1.0  0.75261  0.51564  0.06793  1.0000
  C   C1420     1.0  0.73493  0.50815  0.06557  1.0000
  H   H2412     1.0  0.71429  0.50081  0.11417  1.0000
  H   H2413     1.0  0.74480  0.51543  0.11832  1.0000
  H   H2414     1.0  0.76307  0.51999  0.05499  1.0000
  H   H2415     1.0  0.73171  0.50696  0.05078  1.0000
  C   C1421     1.0  0.64798  0.39970  0.08320  1.0000
  C   C1422     1.0  0.63257  0.41160  0.07380  1.0000
  C   C1423     1.0  0.62356  0.40409  0.05957  1.0000
  C   C1424     1.0  0.63002  0.38475  0.05434  1.0000
  C   C1425     1.0  0.64552  0.37286  0.06366  1.0000
  C   C1426     1.0  0.65432  0.38026  0.07815  1.0000
  H   H2416     1.0  0.62748  0.42655  0.07759  1.0000
  H   H2417     1.0  0.61148  0.41335  0.05256  1.0000
  H   H2418     1.0  0.65047  0.35787  0.05995  1.0000
  H   H2419     1.0  0.66615  0.37089  0.08543  1.0000
  C   C1427     1.0  0.59215  0.52393  0.10643  1.0000
  C   C1428     1.0  0.60382  0.53518  0.11459  1.0000
  C   C1429     1.0  0.59749  0.55563  0.11571  1.0000
  C   C1430     1.0  0.57949  0.56497  0.10872  1.0000
  C   C1431     1.0  0.56784  0.55374  0.10052  1.0000
  C   C1432     1.0  0.57417  0.53328  0.09941  1.0000
  H   H2420     1.0  0.61760  0.52809  0.12019  1.0000
  H   H2421     1.0  0.60649  0.56426  0.12215  1.0000
  H   H2422     1.0  0.55400  0.56082  0.09500  1.0000
  H   H2423     1.0  0.56509  0.52466  0.09304  1.0000
  H   H2424     1.0  0.72878  0.45096  0.02338  1.0000
  S   S436      1.0  0.60514  0.33321  0.00863  1.0000
  C   C1433     1.0  0.64900  0.44893  0.21512  1.0000
  C   C1434     1.0  0.64337  0.45493  0.19589  1.0000
  C   C1435     1.0  0.62298  0.45724  0.19341  1.0000
  C   C1436     1.0  0.60845  0.45322  0.21001  1.0000
  H   H2425     1.0  0.55146  0.54272  0.19282  1.0000
  H   H2426     1.0  0.66472  0.44719  0.21720  1.0000
  H   H2427     1.0  0.61844  0.46190  0.17869  1.0000
  C   C1437     1.0  0.53789  0.53929  0.18721  1.0000
  C   C1438     1.0  0.87733  0.64868  0.11660  1.0000
  N   N102      1.0  0.91301  0.38087  0.05489  1.0000
  C   C1439     1.0  0.92615  0.36391  0.04554  1.0000
  C   C1440     1.0  0.89783  0.37188  0.07081  1.0000
  C   C1441     1.0  0.92650  0.39127  0.06459  1.0000
  C   C1442     1.0  0.90332  0.39483  0.03861  1.0000
  C   C1443     1.0  0.94424  0.36969  0.03034  1.0000
  C   C1444     1.0  0.88579  0.35709  0.06406  1.0000
  C   C1445     1.0  0.91628  0.40739  0.07771  1.0000
  C   C1446     1.0  0.88293  0.40716  0.04480  1.0000
  H   H2428     1.0  0.93213  0.35236  0.05726  1.0000
  H   H2429     1.0  0.91730  0.35612  0.03734  1.0000
  H   H2430     1.0  0.88673  0.38351  0.07747  1.0000
  H   H2431     1.0  0.90542  0.36378  0.08357  1.0000
  H   H2432     1.0  0.93579  0.38011  0.07425  1.0000
  H   H2433     1.0  0.93738  0.39876  0.05317  1.0000
  H   H2434     1.0  0.91368  0.40561  0.03093  1.0000
  H   H2435     1.0  0.90053  0.38643  0.02661  1.0000
  H   H2436     1.0  0.95090  0.35653  0.02259  1.0000
  H   H2437     1.0  0.93974  0.38199  0.01869  1.0000
  H   H2438     1.0  0.95627  0.37365  0.03789  1.0000
  H   H2439     1.0  0.49638  0.55026  0.17095  1.0000
  H   H2440     1.0  0.95256  0.49929  0.22201  1.0000
  H   H2441     1.0  0.87275  0.35430  0.07554  1.0000
  H   H2442     1.0  0.91024  0.42108  0.06850  1.0000
  H   H2443     1.0  0.92789  0.41181  0.08556  1.0000
  H   H2444     1.0  0.90470  0.40198  0.08967  1.0000
  H   H2445     1.0  0.87071  0.39757  0.04882  1.0000
  H   H2446     1.0  0.87877  0.41812  0.03185  1.0000
  H   H2447     1.0  0.88324  0.41577  0.05723  1.0000
  N   N103      1.0  0.88270  0.62633  0.11709  1.0000
  C   C1447     1.0  0.56026  0.53419  0.15643  1.0000
  C   C1448     1.0  0.49708  0.60652  0.21145  1.0000
  H   H2448     1.0  0.90498  0.62230  0.14824  1.0000
  C   C1449     1.0  0.75216  0.46221  0.03623  1.0000
  H   H2449     1.0  0.78858  0.47736  0.99832  1.0000
  H   H2450     1.0  0.87939  0.49969  0.08850  1.0000
  H   H2451     1.0  0.79542  0.42752  0.04407  1.0000
  H   H2452     1.0  0.90609  0.59006  0.10440  1.0000
  S   S437      1.0  0.94888  0.47378  0.14108  1.0000
  C   C1450     1.0  0.77354  0.47881  0.00720  1.0000
  H   H2453     1.0  0.49619  0.53978  0.99019  1.0000
  C   C1451     1.0  0.79159  0.44143  0.05123  1.0000
  C   C1452     1.0  0.97794  0.63090  0.98613  1.0000
  H   H2454     1.0  0.84475  0.60874  0.12160  1.0000
  H   H2455     1.0  0.93606  0.45877  0.20751  1.0000
  H   H2456     1.0  0.94547  0.49947  0.18376  1.0000
  H   H2457     1.0  0.86382  0.37671  0.99411  1.0000
  N   N104      1.0  0.78943  0.46697  0.13282  1.0000
  C   C1453     1.0  0.79967  0.45912  0.11376  1.0000
  C   C1454     1.0  0.79765  0.45339  0.15014  1.0000
  C   C1455     1.0  0.79426  0.48802  0.13254  1.0000
  C   C1456     1.0  0.76712  0.46686  0.13334  1.0000
  C   C1457     1.0  0.79645  0.47289  0.09405  1.0000
  C   C1458     1.0  0.79540  0.43103  0.15147  1.0000
  C   C1459     1.0  0.79529  0.49513  0.15286  1.0000
  C   C1460     1.0  0.75362  0.47395  0.15180  1.0000
  H   H2458     1.0  0.81617  0.45565  0.11413  1.0000
  H   H2459     1.0  0.79459  0.44470  0.11216  1.0000
  H   H2460     1.0  0.79061  0.45813  0.16473  1.0000
  H   H2461     1.0  0.81404  0.45428  0.14960  1.0000
  H   H2462     1.0  0.80928  0.48996  0.12396  1.0000
  H   H2463     1.0  0.78340  0.49912  0.12461  1.0000
  H   H2464     1.0  0.76152  0.47660  0.12025  1.0000
  H   H2465     1.0  0.76377  0.45167  0.13197  1.0000
  H   H2466     1.0  0.80159  0.48767  0.09348  1.0000
  H   H2467     1.0  0.80571  0.46587  0.08147  1.0000
  H   H2468     1.0  0.78058  0.47503  0.09106  1.0000
  H   H2469     1.0  0.77947  0.42846  0.15281  1.0000
  H   H2470     1.0  0.80440  0.42404  0.13874  1.0000
  H   H2471     1.0  0.80145  0.42302  0.16517  1.0000
  H   H2472     1.0  0.78203  0.49266  0.16400  1.0000
  H   H2473     1.0  0.79629  0.51145  0.15043  1.0000
  H   H2474     1.0  0.80907  0.48772  0.15929  1.0000
  H   H2475     1.0  0.75739  0.46483  0.16591  1.0000
  H   H2476     1.0  0.73776  0.47241  0.15056  1.0000
  H   H2477     1.0  0.75408  0.49000  0.15251  1.0000
  N   N105      1.0  0.65722  0.54948  0.06726  1.0000
  C   C1461     1.0  0.67709  0.54806  0.07532  1.0000
  C   C1462     1.0  0.66132  0.55427  0.04484  1.0000
  C   C1463     1.0  0.65002  0.52921  0.07240  1.0000
  C   C1464     1.0  0.64247  0.56526  0.07694  1.0000
  C   C1465     1.0  0.67697  0.54114  0.09792  1.0000
  C   C1466     1.0  0.63086  0.52643  0.06403  1.0000
  C   C1467     1.0  0.62461  0.57516  0.06558  1.0000
  H   H2478     1.0  0.68883  0.53768  0.06737  1.0000
  H   H2479     1.0  0.68286  0.56280  0.07267  1.0000
  H   H2480     1.0  0.64757  0.55548  0.03754  1.0000
  H   H2481     1.0  0.67157  0.54177  0.03841  1.0000
  H   H2482     1.0  0.66205  0.51737  0.06726  1.0000
  H   H2483     1.0  0.64671  0.52538  0.08886  1.0000
  H   H2484     1.0  0.63609  0.55908  0.09219  1.0000
  H   H2485     1.0  0.65042  0.57779  0.07918  1.0000
  H   H2486     1.0  0.67590  0.52493  0.10144  1.0000
  H   H2487     1.0  0.69153  0.54336  0.10241  1.0000
  H   H2488     1.0  0.66483  0.54969  0.10717  1.0000
  H   H2489     1.0  0.63227  0.52904  0.04750  1.0000
  H   H2490     1.0  0.61745  0.53567  0.07076  1.0000
  H   H2491     1.0  0.62798  0.51066  0.06835  1.0000
  H   H2492     1.0  0.61113  0.57832  0.07665  1.0000
  H   H2493     1.0  0.62007  0.56619  0.05519  1.0000
  H   H2494     1.0  0.84157  0.61575  0.09595  1.0000
  C   C1468     1.0  0.70656  0.37489  0.01185  1.0000
  C   C1469     1.0  0.67146  0.38942  0.01043  1.0000
  H   H2495     1.0  0.80465  0.44248  0.05897  1.0000
  H   H2496     1.0  0.70975  0.37254  0.99585  1.0000
  H   H2497     1.0  0.57227  0.53991  0.16264  1.0000
  H   H2498     1.0  0.84596  0.32193  0.99652  1.0000
  H   H2499     1.0  0.66333  0.38178  0.02410  1.0000
  H   H2500     1.0  0.68465  0.38605  0.04638  1.0000
  H   H2501     1.0  0.50681  0.61578  0.21597  1.0000
  H   H2502     1.0  0.65509  0.42037  0.01050  1.0000
  H   H2503     1.0  0.52306  0.55192  0.21403  1.0000
  H   H2504     1.0  0.90990  0.62678  0.98924  1.0000
  C   C1470     1.0  0.87100  0.61995  0.10234  1.0000
  S   S438      1.0  0.90350  0.64632  0.05218  1.0000
  H   H2505     1.0  0.96675  0.50879  0.14379  1.0000
  H   H2506     1.0  0.72134  0.37636  0.01638  1.0000
  H   H2507     1.0  0.77841  0.44016  0.06286  1.0000
  C   C1471     1.0  0.76724  0.44241  0.99326  1.0000
  H   H2508     1.0  0.97618  0.49386  0.19287  1.0000
  N   N106      1.0  0.64591  0.39556  0.18345  1.0000
  C   C1472     1.0  0.63301  0.39902  0.20302  1.0000
  C   C1473     1.0  0.63615  0.40926  0.16713  1.0000
  C   C1474     1.0  0.66654  0.40099  0.18445  1.0000
  C   C1475     1.0  0.64697  0.37378  0.18102  1.0000
  H   H2509     1.0  0.49273  0.53497  0.15302  1.0000
  C   C1476     1.0  0.61477  0.40566  0.16462  1.0000
  C   C1477     1.0  0.67977  0.40613  0.16444  1.0000
  C   C1478     1.0  0.65706  0.36712  0.16083  1.0000
  H   H2510     1.0  0.62950  0.41527  0.20422  1.0000
  H   H2511     1.0  0.61820  0.39351  0.20394  1.0000
  H   H2512     1.0  0.64517  0.40863  0.15224  1.0000
  H   H2513     1.0  0.63535  0.42510  0.16981  1.0000
  H   H2514     1.0  0.66525  0.41443  0.19236  1.0000
  H   H2515     1.0  0.67546  0.38881  0.19341  1.0000
  H   H2516     1.0  0.65539  0.36429  0.19255  1.0000
  H   H2517     1.0  0.63181  0.36868  0.18423  1.0000
  C   C1479     1.0  0.72078  0.41429  0.99947  1.0000
  H   H2518     1.0  0.76904  0.42697  0.98920  1.0000
  H   H2519     1.0  0.52269  0.51851  0.16530  1.0000
  H   H2520     1.0  0.60984  0.41569  0.15137  1.0000
  H   H2521     1.0  0.61431  0.39015  0.16177  1.0000
  H   H2522     1.0  0.60369  0.40942  0.17762  1.0000
  S   S439      1.0  0.63686  0.36355  0.98444  1.0000
  H   H2523     1.0  0.69495  0.40804  0.16756  1.0000
  H   H2524     1.0  0.67367  0.42062  0.15650  1.0000
  H   H2525     1.0  0.67343  0.36246  0.16110  1.0000
  H   H2526     1.0  0.65471  0.37839  0.14770  1.0000
  H   H2527     1.0  0.65022  0.35413  0.15796  1.0000
  N   N107      1.0  0.90841  0.49922  0.09834  1.0000
  C   C1480     1.0  0.90186  0.50744  0.11806  1.0000
  C   C1481     1.0  0.92905  0.50513  0.09079  1.0000
  C   C1482     1.0  0.90988  0.47676  0.10251  1.0000
  C   C1483     1.0  0.89298  0.50752  0.08437  1.0000
  C   C1484     1.0  0.73289  0.46543  0.02602  1.0000
  C   C1485     1.0  0.93002  0.52782  0.08592  1.0000
  C   C1486     1.0  0.91655  0.46495  0.08454  1.0000
  C   C1487     1.0  0.89961  0.50677  0.06171  1.0000
  H   H2528     1.0  0.91373  0.50296  0.12820  1.0000
  H   H2529     1.0  0.89972  0.52407  0.11577  1.0000
  H   H2530     1.0  0.93607  0.49834  0.07728  1.0000
  H   H2531     1.0  0.93964  0.49912  0.10197  1.0000
  H   H2532     1.0  0.92039  0.47106  0.11376  1.0000
  H   H2533     1.0  0.89510  0.47198  0.10911  1.0000
  H   H2534     1.0  0.79232  0.43731  0.00951  1.0000
  H   H2535     1.0  0.88742  0.52347  0.08615  1.0000
  H   H2536     1.0  0.68638  0.35125  0.01911  1.0000
  H   H2537     1.0  0.75110  0.44827  0.99406  1.0000
  C   C1488     1.0  0.69905  0.41019  0.99921  1.0000
  H   H2538     1.0  0.91896  0.53530  0.07586  1.0000
  H   H2539     1.0  0.92788  0.53517  0.09970  1.0000
  H   H2540     1.0  0.94522  0.53029  0.07816  1.0000
  H   H2541     1.0  0.91769  0.44876  0.09015  1.0000
  H   H2542     1.0  0.93159  0.46762  0.07670  1.0000
  H   H2543     1.0  0.90515  0.46766  0.07401  1.0000
  C   C1489     1.0  0.90723  0.33676  0.11892  1.0000
  H   H2544     1.0  0.91456  0.49859  0.05760  1.0000
  H   H2545     1.0  0.89910  0.52215  0.05355  1.0000
  C   C1490     1.0  0.67081  0.57366  0.03724  1.0000
  H   H2546     1.0  0.66303  0.58650  0.04482  1.0000
  C   C1491     1.0  0.94719  0.46874  0.19976  1.0000
  S   S440      1.0  0.65255  0.32568  0.01669  1.0000
  Fe  Fe214     1.0  0.49894  0.60991  0.13173  1.0000
  S   S441      1.0  0.51327  0.58930  0.10904  1.0000
  C   C1492     1.0  0.65692  0.40737  0.00219  1.0000
  C   C1493     1.0  0.89102  0.61556  0.15370  1.0000
  C   C1494     1.0  0.94216  0.62794  0.98666  1.0000
  N   N108      1.0  0.95688  0.63731  0.99585  1.0000
  C   C1495     1.0  0.57151  0.51285  0.22745  1.0000
  H   H2547     1.0  0.66182  0.41219  0.98615  1.0000
  H   H2548     1.0  0.66982  0.57760  0.02097  1.0000
  H   H2549     1.0  0.92579  0.49585  0.20465  1.0000
  C   C1496     1.0  0.56464  0.51115  0.15992  1.0000
  H   H2550     1.0  0.59275  0.45474  0.20793  1.0000
  N   N109      1.0  0.69179  0.39353  0.01438  1.0000
  H   H2551     1.0  0.96870  0.58517  0.14710  1.0000
  H   H2552     1.0  0.58029  0.50656  0.15313  1.0000
  H   H2553     1.0  0.75115  0.44827  0.04686  1.0000
  H   H2554     1.0  0.62758  0.59003  0.05757  1.0000
  H   H2555     1.0  0.78550  0.47320  0.04472  1.0000
  C   C1497     1.0  0.69114  0.39795  0.03555  1.0000
  H   H2556     1.0  0.77140  0.51117  0.00172  1.0000
  C   C1498     1.0  0.96259  0.60826  0.02409  1.0000
  H   H2557     1.0  0.68705  0.57156  0.03902  1.0000
  N   N110      1.0  0.96319  0.46987  0.21267  1.0000
  H   H2558     1.0  0.70661  0.39780  0.03925  1.0000
  C   C1499     1.0  0.77022  0.49938  0.01480  1.0000
  C   C1500     1.0  0.52430  0.53353  0.15678  1.0000
  C   C1501     1.0  0.97599  0.61461  0.13499  1.0000
  H   H2559     1.0  0.71226  0.34277  0.02046  1.0000
  H   H2560     1.0  0.66289  0.41816  0.04010  1.0000
  C   C1502     1.0  0.96945  0.44920  0.22279  1.0000
  H   H2561     1.0  0.53779  0.52304  0.19225  1.0000
  C   C1503     1.0  0.67910  0.41781  0.04091  1.0000
  H   H2562     1.0  0.68039  0.41916  0.05672  1.0000
  H   H2563     1.0  0.97916  0.60430  0.02126  1.0000
  C   C1504     1.0  0.49588  0.60673  0.19093  1.0000
  H   H2564     1.0  0.72354  0.42790  0.98887  1.0000
  H   H2565     1.0  0.88394  0.48546  0.13682  1.0000
  H   H2566     1.0  0.53239  0.32289  0.00042  1.0000
  H   H2567     1.0  0.98479  0.60884  0.22512  1.0000
  H   H2568     1.0  0.98479  0.44544  0.14691  1.0000
  H   H2569     1.0  0.80314  0.46173  0.02653  1.0000
  H   H2570     1.0  0.88010  0.36280  0.04958  1.0000
  H   H2571     1.0  0.95822  0.60453  0.04042  1.0000
  H   H2572     1.0  0.77010  0.42924  0.02355  1.0000
  H   H2573     1.0  0.72346  0.41700  0.01444  1.0000
  H   H2574     1.0  0.73377  0.47571  0.01190  1.0000
  C   C1505     1.0  0.53771  0.56537  0.15705  1.0000
  H   H2575     1.0  0.75092  0.47392  0.04631  1.0000
  H   H2576     1.0  0.65561  0.39565  0.22411  1.0000
  H   H2577     1.0  0.56817  0.57304  0.15767  1.0000
  H   H2578     1.0  0.98024  0.60652  0.18526  1.0000
  Fe  Fe215     1.0  0.51522  0.64664  0.10596  1.0000
  Fe  Fe216     1.0  0.95291  0.64482  0.10160  1.0000
  H   H2579     1.0  0.94164  0.63486  0.02651  1.0000
  C   C1506     1.0  0.93713  0.33254  0.09510  1.0000
  H   H2580     1.0  0.89512  0.34239  0.06280  1.0000
  H   H2581     1.0  0.53994  0.56757  0.14037  1.0000
  H   H2582     1.0  0.95388  0.46161  0.18618  1.0000
  C   C1507     1.0  0.88032  0.34802  0.98894  1.0000
  H   H2583     1.0  0.89356  0.43894  0.21975  1.0000
  H   H2584     1.0  0.68494  0.43103  0.03179  1.0000
  H   H2585     1.0  0.89278  0.33236  0.12553  1.0000
  H   H2586     1.0  0.92176  0.60973  0.00735  1.0000
  C   C1508     1.0  0.78840  0.46032  0.03591  1.0000
  C   C1509     1.0  0.95557  0.48336  0.22855  1.0000
  C   C1510     1.0  0.70018  0.35522  0.02370  1.0000
  H   H2587     1.0  0.57391  0.50983  0.21163  1.0000
  H   H2588     1.0  0.49676  0.51865  0.00958  1.0000
  H   H2589     1.0  0.55475  0.50387  0.15239  1.0000
  C   C1511     1.0  0.51925  0.54972  0.19925  1.0000
  C   C1512     1.0  0.86586  0.36452  0.98515  1.0000
  H   H2590     1.0  0.68918  0.42455  0.00065  1.0000
  H   H2591     1.0  0.88875  0.49937  0.05558  1.0000
  H   H2592     1.0  0.87635  0.59934  0.13638  1.0000
  H   H2593     1.0  0.87775  0.51031  0.14273  1.0000
  C   C1513     1.0  0.64192  0.38931  0.22228  1.0000
  C   C1514     1.0  0.98053  0.59463  0.14314  1.0000
  H   H2594     1.0  0.86946  0.50429  0.12090  1.0000
  C   C1515     1.0  0.61416  0.44686  0.22919  1.0000
  Fe  Fe217     1.0  0.50240  0.61402  0.08580  1.0000
  H   H2595     1.0  0.64176  0.40264  0.00310  1.0000
  H   H2596     1.0  0.95621  0.44291  0.23173  1.0000
  H   H2597     1.0  0.84833  0.32112  0.03181  1.0000
  H   H2598     1.0  0.52946  0.53093  0.14093  1.0000
  H   H2599     1.0  0.87670  0.60455  0.09892  1.0000
  N   N111      1.0  0.77200  0.46089  0.02291  1.0000
  H   H2600     1.0  0.97431  0.62814  0.19891  1.0000
  C   C1516     1.0  0.77583  0.44189  0.01312  1.0000
  H   H2601     1.0  0.55105  0.57612  0.18061  1.0000
  H   H2602     1.0  0.69812  0.40698  0.98389  1.0000
  H   H2603     1.0  0.75507  0.50240  0.02315  1.0000
  H   H2604     1.0  0.56290  0.53851  0.14003  1.0000
  H   H2605     1.0  0.91625  0.63599  0.01017  1.0000
  C   C1517     1.0  0.55238  0.57733  0.16409  1.0000
  N   N112      1.0  0.53958  0.54334  0.16471  1.0000
  H   H2606     1.0  0.56367  0.50523  0.17600  1.0000
  S   S442      1.0  0.93114  0.41219  0.22214  1.0000
  H   H2607     1.0  0.96687  0.63886  0.02425  1.0000
  Fe  Fe218     1.0  0.97639  0.65031  0.06023  1.0000
  C   C1518     1.0  0.91385  0.59964  0.11169  1.0000
  H   H2608     1.0  0.92972  0.59850  0.10448  1.0000
  H   H2609     1.0  0.90745  0.62774  0.09317  1.0000
  H   H2610     1.0  0.98536  0.46981  0.18638  1.0000
  H   H2611     1.0  0.98774  0.64240  0.12443  1.0000
  C   C1519     1.0  0.87714  0.61535  0.13756  1.0000
  H   H2612     1.0  0.76294  0.47975  0.99608  1.0000
  H   H2613     1.0  0.50268  0.55787  0.14455  1.0000
  H   H2614     1.0  0.89572  0.60001  0.16040  1.0000
  C   C1520     1.0  0.82225  0.49954  0.98673  1.0000
  C   C1521     1.0  0.90469  0.62187  0.10931  1.0000
  H   H2615     1.0  0.86167  0.62139  0.14380  1.0000
  H   H2616     1.0  0.87294  0.62966  0.08774  1.0000
  H   H2617     1.0  0.91436  0.59340  0.12756  1.0000
  H   H2618     1.0  0.73195  0.40200  0.99403  1.0000
  H   H2619     1.0  0.50656  0.54065  0.20181  1.0000
  C   C1522     1.0  0.84812  0.62001  0.10852  1.0000
  C   C1523     1.0  0.50291  0.54497  0.15655  1.0000
  H   H2620     1.0  0.92521  0.48624  0.18181  1.0000
  H   H2621     1.0  0.79126  0.33044  0.99078  1.0000
  H   H2622     1.0  0.95507  0.59883  0.01635  1.0000
  H   H2623     1.0  0.67326  0.37883  0.99907  1.0000
  H   H2624     1.0  0.91419  0.62997  0.11627  1.0000
  H   H2625     1.0  0.98427  0.58174  0.21405  1.0000
  C   C1524     1.0  0.63449  0.44487  0.23171  1.0000
  H   H2626     1.0  0.82256  0.33028  0.00946  1.0000
  C   C1525     1.0  0.98825  0.46033  0.14742  1.0000
  H   H2627     1.0  0.56028  0.52635  0.22847  1.0000
  H   H2628     1.0  0.50469  0.61602  0.17982  1.0000
  H   H2629     1.0  0.49315  0.54835  0.02333  1.0000
  Fe  Fe219     1.0  0.66047  0.33689  0.98415  1.0000
  C   C1526     1.0  0.98446  0.62120  0.18680  1.0000
  C   C1527     1.0  0.97929  0.43371  0.20872  1.0000
  H   H2630     1.0  0.98162  0.63102  0.17272  1.0000
  C   C1528     1.0  0.92161  0.62516  0.99939  1.0000
  H   H2631     1.0  0.98274  0.41903  0.21784  1.0000
  H   H2632     1.0  0.98116  0.61432  0.98721  1.0000
  H   H2633     1.0  0.96898  0.43140  0.19828  1.0000
  C   C1529     1.0  0.53214  0.32079  0.98457  1.0000
  C   C1530     1.0  0.98065  0.47819  0.19941  1.0000
  H   H2634     1.0  0.98935  0.63545  0.99411  1.0000
  H   H2635     1.0  0.49546  0.51584  0.98394  1.0000
  H   H2636     1.0  0.94888  0.61269  0.98326  1.0000
  Fe  Fe220     1.0  0.67959  0.54637  0.41098  1.0000
  S   S443      1.0  0.68101  0.53650  0.38072  1.0000
  S   S444      1.0  0.66211  0.57432  0.42263  1.0000
  Fe  Fe221     1.0  0.70371  0.50706  0.42734  1.0000
  S   S445      1.0  0.70650  0.49403  0.39854  1.0000
  S   S446      1.0  0.72017  0.48841  0.45147  1.0000
  Fe  Fe222     1.0  0.71350  0.52437  0.38420  1.0000
  S   S447      1.0  0.73987  0.52833  0.35984  1.0000
  Fe  Fe223     1.0  0.67419  0.50702  0.39793  1.0000
  S   S448      1.0  0.64843  0.49085  0.39461  1.0000
  S   S449      1.0  0.71254  0.53681  0.41312  1.0000
  S   S450      1.0  0.67086  0.51756  0.42801  1.0000
  H   H2637     1.0  0.98317  0.44966  0.37575  1.0000
  S   S451      1.0  0.54422  0.63425  0.39968  1.0000
  H   H2638     1.0  0.51832  0.63598  0.24218  1.0000
  C   C1531     1.0  0.90352  0.62343  0.35900  1.0000
  S   S452      1.0  0.59993  0.63695  0.37665  1.0000
  Fe  Fe224     1.0  0.60159  0.43183  0.28167  1.0000
  S   S453      1.0  0.57789  0.41725  0.30343  1.0000
  H   H2639     1.0  0.91566  0.47175  0.39291  1.0000
  Fe  Fe225     1.0  0.62685  0.43389  0.31477  1.0000
  S   S454      1.0  0.60524  0.42010  0.33899  1.0000
  S   S455      1.0  0.65604  0.44199  0.32123  1.0000
  Fe  Fe226     1.0  0.60382  0.39859  0.31750  1.0000
  S   S456      1.0  0.60987  0.36502  0.32634  1.0000
  Fe  Fe227     1.0  0.58133  0.43993  0.32311  1.0000
  S   S457      1.0  0.55708  0.45912  0.34076  1.0000
  S   S458      1.0  0.62718  0.41121  0.29392  1.0000
  S   S459      1.0  0.60331  0.45565  0.30065  1.0000
  H   H2640     1.0  0.94159  0.61262  0.40609  1.0000
  H   H2641     1.0  0.90152  0.62384  0.34305  1.0000
  Fe  Fe228     1.0  0.98431  0.58626  0.35104  1.0000
  S   S460      1.0  0.95323  0.57614  0.35383  1.0000
  H   H2642     1.0  0.68453  0.41380  0.43108  1.0000
  S   S461      1.0  0.89025  0.38080  0.46203  1.0000
  Fe  Fe229     1.0  0.85618  0.47924  0.35554  1.0000
  S   S462      1.0  0.88156  0.46551  0.37320  1.0000
  S   S463      1.0  0.82786  0.48992  0.37559  1.0000
  Fe  Fe230     1.0  0.87959  0.46616  0.31657  1.0000
  S   S464      1.0  0.90609  0.45117  0.33153  1.0000
  S   S465      1.0  0.87639  0.46574  0.28382  1.0000
  Fe  Fe231     1.0  0.88353  0.43938  0.35632  1.0000
  S   S466      1.0  0.88635  0.40651  0.36899  1.0000
  Fe  Fe232     1.0  0.90218  0.47870  0.34726  1.0000
  S   S467      1.0  0.93203  0.48828  0.35153  1.0000
  S   S468      1.0  0.85713  0.45221  0.34013  1.0000
  S   S469      1.0  0.87672  0.49468  0.33073  1.0000
  C   C1532     1.0  0.88864  0.38746  0.43621  1.0000
  C   C1533     1.0  0.88869  0.37317  0.42342  1.0000
  C   C1534     1.0  0.88777  0.37917  0.40285  1.0000
  C   C1535     1.0  0.88654  0.39949  0.39501  1.0000
  C   C1536     1.0  0.88604  0.41376  0.40790  1.0000
  C   C1537     1.0  0.88729  0.40775  0.42837  1.0000
  H   H2643     1.0  0.88978  0.35748  0.42929  1.0000
  H   H2644     1.0  0.88818  0.36801  0.39298  1.0000
  H   H2645     1.0  0.88484  0.42943  0.40211  1.0000
  H   H2646     1.0  0.88701  0.41890  0.43823  1.0000
  C   C1538     1.0  0.94779  0.55165  0.35262  1.0000
  C   C1539     1.0  0.92774  0.54868  0.35219  1.0000
  C   C1540     1.0  0.92267  0.52946  0.35156  1.0000
  C   C1541     1.0  0.93760  0.51294  0.35156  1.0000
  C   C1542     1.0  0.95764  0.51590  0.35206  1.0000
  C   C1543     1.0  0.96274  0.53515  0.35247  1.0000
  H   H2647     1.0  0.91606  0.56133  0.35232  1.0000
  H   H2648     1.0  0.90720  0.52741  0.35122  1.0000
  H   H2649     1.0  0.96930  0.50323  0.35204  1.0000
  H   H2650     1.0  0.97821  0.53719  0.35282  1.0000
  N   N113      1.0  0.65278  0.38288  0.37058  1.0000
  C   C1544     1.0  0.92227  0.42817  0.25781  1.0000
  C   C1545     1.0  0.91055  0.44018  0.27157  1.0000
  C   C1546     1.0  0.89255  0.45153  0.26671  1.0000
  C   C1547     1.0  0.88672  0.45114  0.24784  1.0000
  H   H2651     1.0  0.91718  0.43430  0.41470  1.0000
  H   H2652     1.0  0.93602  0.41922  0.26176  1.0000
  H   H2653     1.0  0.91532  0.44051  0.28597  1.0000
  H   H2654     1.0  0.95361  0.46708  0.38463  1.0000
  H   H2655     1.0  0.56347  0.35147  0.44347  1.0000
  C   C1548     1.0  0.90843  0.64388  0.36301  1.0000
  C   C1549     1.0  0.60299  0.35294  0.35068  1.0000
  C   C1550     1.0  0.58834  0.36209  0.36432  1.0000
  H   H2656     1.0  0.50019  0.46076  0.30284  1.0000
  H   H2657     1.0  0.58078  0.37688  0.35999  1.0000
  C   C1551     1.0  0.82276  0.37030  0.44344  1.0000
  C   C1552     1.0  0.51163  0.50005  0.32260  1.0000
  C   C1553     1.0  0.52849  0.49049  0.33155  1.0000
  C   C1554     1.0  0.53551  0.47034  0.32981  1.0000
  C   C1555     1.0  0.52514  0.45955  0.31963  1.0000
  C   C1556     1.0  0.50808  0.46908  0.31085  1.0000
  H   H2658     1.0  0.63087  0.54878  0.42044  1.0000
  H   H2659     1.0  0.53627  0.49881  0.33967  1.0000
  H   H2660     1.0  0.53032  0.44392  0.31847  1.0000
  H   H2661     1.0  0.89933  0.64756  0.37730  1.0000
  H   H2662     1.0  0.61102  0.55573  0.43916  1.0000
  Fe  Fe233     1.0  0.88840  0.34912  0.47753  1.0000
  H   H2663     1.0  0.88878  0.62057  0.36763  1.0000
  H   H2664     1.0  0.65961  0.34371  0.40216  1.0000
  C   C1557     1.0  0.54222  0.46362  0.26309  1.0000
  H   H2665     1.0  0.64593  0.40551  0.39085  1.0000
  N   N114      1.0  0.93030  0.64576  0.36339  1.0000
  H   H2666     1.0  0.53572  0.62743  0.36235  1.0000
  S   S470      1.0  0.50923  0.57264  0.34081  1.0000
  H   H2667     1.0  0.56613  0.46689  0.27869  1.0000
  C   C1558     1.0  0.76396  0.51477  0.36262  1.0000
  C   C1559     1.0  0.76719  0.50081  0.37939  1.0000
  C   C1560     1.0  0.78683  0.49185  0.38224  1.0000
  C   C1561     1.0  0.80345  0.49670  0.36839  1.0000
  C   C1562     1.0  0.80012  0.50995  0.35112  1.0000
  C   C1563     1.0  0.78045  0.51894  0.34828  1.0000
  H   H2668     1.0  0.75463  0.49736  0.39050  1.0000
  H   H2669     1.0  0.78926  0.48168  0.39566  1.0000
  H   H2670     1.0  0.81278  0.51409  0.34050  1.0000
  H   H2671     1.0  0.77809  0.52969  0.33523  1.0000
  C   C1564     1.0  0.65068  0.47811  0.37364  1.0000
  C   C1565     1.0  0.63384  0.47051  0.36949  1.0000
  C   C1566     1.0  0.63525  0.45991  0.35307  1.0000
  C   C1567     1.0  0.65360  0.45659  0.34091  1.0000
  C   C1568     1.0  0.67046  0.46421  0.34505  1.0000
  C   C1569     1.0  0.66899  0.47508  0.36134  1.0000
  H   H2672     1.0  0.61963  0.47290  0.37893  1.0000
  H   H2673     1.0  0.62214  0.45423  0.34990  1.0000
  H   H2674     1.0  0.68469  0.46168  0.33567  1.0000
  H   H2675     1.0  0.68204  0.48094  0.36444  1.0000
  C   C1570     1.0  0.64456  0.59111  0.40960  1.0000
  C   C1571     1.0  0.62907  0.60274  0.42047  1.0000
  C   C1572     1.0  0.61494  0.61645  0.41061  1.0000
  C   C1573     1.0  0.61662  0.61910  0.38972  1.0000
  C   C1574     1.0  0.63227  0.60768  0.37884  1.0000
  C   C1575     1.0  0.64599  0.59349  0.38873  1.0000
  H   H2676     1.0  0.62792  0.60103  0.43662  1.0000
  H   H2677     1.0  0.60302  0.62523  0.41915  1.0000
  H   H2678     1.0  0.63379  0.60981  0.36267  1.0000
  H   H2679     1.0  0.65803  0.58483  0.38021  1.0000
  H   H2680     1.0  0.84294  0.40326  0.42838  1.0000
  H   H2681     1.0  0.67984  0.46089  0.41818  1.0000
  H   H2682     1.0  0.92649  0.47066  0.23609  1.0000
  N   N115      1.0  0.78171  0.54199  0.41353  1.0000
  C   C1576     1.0  0.78117  0.52169  0.42582  1.0000
  C   C1577     1.0  0.79918  0.54014  0.39713  1.0000
  C   C1578     1.0  0.76217  0.54755  0.40462  1.0000
  C   C1579     1.0  0.78398  0.55667  0.42732  1.0000
  H   H2683     1.0  0.92839  0.42133  0.44660  1.0000
  C   C1580     1.0  0.82009  0.53329  0.40393  1.0000
  C   C1581     1.0  0.76219  0.56245  0.38526  1.0000
  C   C1582     1.0  0.78640  0.57826  0.41783  1.0000
  H   H2684     1.0  0.78192  0.50991  0.41594  1.0000
  H   H2685     1.0  0.79449  0.51751  0.43406  1.0000
  H   H2686     1.0  0.80039  0.55426  0.38697  1.0000
  H   H2687     1.0  0.79669  0.52941  0.38723  1.0000
  H   H2688     1.0  0.75702  0.53401  0.40067  1.0000
  H   H2689     1.0  0.74999  0.55372  0.41575  1.0000
  H   H2690     1.0  0.77052  0.55811  0.43877  1.0000
  H   H2691     1.0  0.79649  0.55112  0.43644  1.0000
  H   H2692     1.0  0.66815  0.42875  0.37583  1.0000
  H   H2693     1.0  0.63999  0.41414  0.36628  1.0000
  C   C1583     1.0  0.52213  0.51279  0.25664  1.0000
  C   C1584     1.0  0.93319  0.42758  0.41423  1.0000
  H   H2694     1.0  0.82386  0.54318  0.41399  1.0000
  H   H2695     1.0  0.82154  0.51751  0.41101  1.0000
  H   H2696     1.0  0.77100  0.55558  0.37234  1.0000
  H   H2697     1.0  0.76770  0.57659  0.38654  1.0000
  H   H2698     1.0  0.74650  0.56624  0.38160  1.0000
  H   H2699     1.0  0.77148  0.58725  0.41643  1.0000
  H   H2700     1.0  0.79584  0.57930  0.40316  1.0000
  H   H2701     1.0  0.92543  0.64453  0.32352  1.0000
  H   H2702     1.0  0.50652  0.51566  0.32388  1.0000
  N   N116      1.0  0.87075  0.39835  0.30085  1.0000
  C   C1585     1.0  0.88314  0.39625  0.28076  1.0000
  C   C1586     1.0  0.88218  0.40897  0.31257  1.0000
  C   C1587     1.0  0.85136  0.41145  0.29701  1.0000
  C   C1588     1.0  0.86693  0.37782  0.31113  1.0000
  Fe  Fe234     1.0  0.57060  0.65138  0.39223  1.0000
  C   C1589     1.0  0.90397  0.39936  0.31483  1.0000
  C   C1590     1.0  0.83570  0.41483  0.31536  1.0000
  C   C1591     1.0  0.86362  0.37490  0.33428  1.0000
  H   H2703     1.0  0.88682  0.41106  0.27325  1.0000
  H   H2704     1.0  0.89780  0.38681  0.28247  1.0000
  H   H2705     1.0  0.87430  0.41042  0.32783  1.0000
  H   H2706     1.0  0.88299  0.42468  0.30554  1.0000
  H   H2707     1.0  0.85455  0.42646  0.28922  1.0000
  H   H2708     1.0  0.84326  0.40513  0.28686  1.0000
  H   H2709     1.0  0.85363  0.37322  0.30600  1.0000
  H   H2710     1.0  0.87972  0.36631  0.30688  1.0000
  H   H2711     1.0  0.52891  0.47156  0.25646  1.0000
  N   N117      1.0  0.53699  0.32416  0.46532  1.0000
  C   C1592     1.0  0.66697  0.34737  0.38664  1.0000
  H   H2712     1.0  0.90526  0.38288  0.31846  1.0000
  H   H2713     1.0  0.91428  0.40321  0.30102  1.0000
  H   H2714     1.0  0.90932  0.40539  0.32711  1.0000
  H   H2715     1.0  0.82364  0.42683  0.31085  1.0000
  H   H2716     1.0  0.84198  0.41981  0.32758  1.0000
  H   H2717     1.0  0.82838  0.40122  0.32096  1.0000
  H   H2718     1.0  0.87761  0.37545  0.34072  1.0000
  H   H2719     1.0  0.85908  0.35983  0.33961  1.0000
  H   H2720     1.0  0.85168  0.38584  0.34077  1.0000
  H   H2721     1.0  0.95226  0.64099  0.38413  1.0000
  H   H2722     1.0  0.98468  0.64836  0.38727  1.0000
  H   H2723     1.0  0.92055  0.44325  0.37962  1.0000
  H   H2724     1.0  0.61825  0.52224  0.36426  1.0000
  H   H2725     1.0  0.95622  0.46045  0.41024  1.0000
  C   C1593     1.0  0.64306  0.47114  0.45184  1.0000
  H   H2726     1.0  0.95264  0.40824  0.36824  1.0000
  C   C1594     1.0  0.65130  0.40424  0.37484  1.0000
  H   H2727     1.0  0.92798  0.49135  0.24832  1.0000
  H   H2728     1.0  0.94154  0.46729  0.25624  1.0000
  C   C1595     1.0  0.50827  0.64138  0.47258  1.0000
  H   H2729     1.0  0.54526  0.34929  0.42716  1.0000
  H   H2730     1.0  0.56908  0.31831  0.45504  1.0000
  C   C1596     1.0  0.65392  0.40884  0.43468  1.0000
  H   H2731     1.0  0.96690  0.41034  0.39612  1.0000
  H   H2732     1.0  0.83162  0.53378  0.39051  1.0000
  H   H2733     1.0  0.58329  0.32589  0.48115  1.0000
  H   H2734     1.0  0.53231  0.57968  0.29998  1.0000
  H   H2735     1.0  0.52502  0.51274  0.24023  1.0000
  C   C1597     1.0  0.93663  0.43677  0.37793  1.0000
  C   C1598     1.0  0.98142  0.43362  0.37679  1.0000
  C   C1599     1.0  0.70507  0.44397  0.43170  1.0000
  C   C1600     1.0  0.70613  0.47607  0.47217  1.0000
  H   H2736     1.0  0.84800  0.37416  0.46696  1.0000
  S   S471      1.0  0.58519  0.32021  0.41331  1.0000
  H   H2737     1.0  0.67493  0.35326  0.34498  1.0000
  H   H2738     1.0  0.94334  0.61864  0.35025  1.0000
  H   H2739     1.0  0.64799  0.35461  0.34444  1.0000
  H   H2740     1.0  0.73079  0.45303  0.47768  1.0000
  C   C1601     1.0  0.93651  0.63836  0.38383  1.0000
  C   C1602     1.0  0.52362  0.60295  0.35385  1.0000
  H   H2741     1.0  0.68393  0.37172  0.37366  1.0000
  H   H2742     1.0  0.49993  0.63292  0.40902  1.0000
  H   H2743     1.0  0.51856  0.32141  0.44254  1.0000
  H   H2744     1.0  0.57849  0.59217  0.39256  1.0000
  H   H2745     1.0  0.83852  0.37155  0.43645  1.0000
  S   S472      1.0  0.52499  0.62980  0.45419  1.0000
  H   H2746     1.0  0.54667  0.52796  0.26046  1.0000
  C   C1603     1.0  0.68283  0.33119  0.47968  1.0000
  H   H2747     1.0  0.61113  0.53314  0.42880  1.0000
  S   S473      1.0  0.66673  0.37065  0.48014  1.0000
  C   C1604     1.0  0.57774  0.58429  0.37960  1.0000
  H   H2748     1.0  0.70846  0.43383  0.41999  1.0000
  N   N118      1.0  0.66744  0.44012  0.44255  1.0000
  C   C1605     1.0  0.68293  0.45378  0.43343  1.0000
  C   C1606     1.0  0.64699  0.45213  0.44134  1.0000
  C   C1607     1.0  0.66984  0.42334  0.42986  1.0000
  C   C1608     1.0  0.50672  0.59637  0.34864  1.0000
  H   H2749     1.0  0.64655  0.39295  0.34016  1.0000
  H   H2750     1.0  0.63866  0.41626  0.43215  1.0000
  H   H2751     1.0  0.83174  0.34047  0.45945  1.0000
  H   H2752     1.0  0.91872  0.46691  0.41919  1.0000
  C   C1609     1.0  0.58307  0.35186  0.38345  1.0000
  H   H2753     1.0  0.63463  0.44320  0.44756  1.0000
  H   H2754     1.0  0.52492  0.61083  0.25368  1.0000
  H   H2755     1.0  0.66994  0.42952  0.41376  1.0000
  Fe  Fe235     1.0  0.53679  0.64981  0.42708  1.0000
  H   H2756     1.0  0.94960  0.63114  0.31642  1.0000
  H   H2757     1.0  0.86745  0.37295  0.27232  1.0000
  H   H2758     1.0  0.94409  0.60593  0.38159  1.0000
  H   H2759     1.0  0.86182  0.39777  0.25884  1.0000
  H   H2760     1.0  0.65788  0.39706  0.42460  1.0000
  H   H2761     1.0  0.62110  0.38573  0.36744  1.0000
  H   H2762     1.0  0.50578  0.60642  0.30788  1.0000
  H   H2763     1.0  0.92845  0.40598  0.38309  1.0000
  H   H2764     1.0  0.70923  0.43597  0.44618  1.0000
  C   C1610     1.0  0.50146  0.48941  0.31212  1.0000
  H   H2765     1.0  0.56438  0.57618  0.38243  1.0000
  H   H2766     1.0  0.58947  0.48969  0.26770  1.0000
  H   H2767     1.0  0.60760  0.57606  0.40672  1.0000
  C   C1611     1.0  0.53550  0.59534  0.29546  1.0000
  H   H2768     1.0  0.76145  0.52914  0.45345  1.0000
  H   H2769     1.0  0.94382  0.44621  0.36490  1.0000
  H   H2770     1.0  0.63467  0.55572  0.38101  1.0000
  H   H2771     1.0  0.95431  0.41858  0.43666  1.0000
  C   C1612     1.0  0.96697  0.42676  0.39541  1.0000
  H   H2772     1.0  0.66354  0.36532  0.32364  1.0000
  H   H2773     1.0  0.97416  0.42865  0.40856  1.0000
  H   H2774     1.0  0.64460  0.45681  0.42540  1.0000
  H   H2775     1.0  0.68235  0.33900  0.38636  1.0000
  H   H2776     1.0  0.65060  0.48331  0.44260  1.0000
  C   C1613     1.0  0.63218  0.37638  0.37662  1.0000
  H   H2777     1.0  0.54326  0.59916  0.30734  1.0000
  C   C1614     1.0  0.83712  0.41054  0.44197  1.0000
  H   H2778     1.0  0.65944  0.34107  0.37614  1.0000
  C   C1615     1.0  0.94143  0.64236  0.32602  1.0000
  H   H2779     1.0  0.80596  0.40804  0.44063  1.0000
  H   H2780     1.0  0.92852  0.48758  0.40363  1.0000
  H   H2781     1.0  0.87284  0.45986  0.24394  1.0000
  H   H2782     1.0  0.54564  0.59543  0.28115  1.0000
  H   H2783     1.0  0.77993  0.40823  0.47580  1.0000
  C   C1616     1.0  0.94429  0.63485  0.34802  1.0000
  H   H2784     1.0  0.55294  0.45680  0.25127  1.0000
  C   C1617     1.0  0.61449  0.54871  0.42512  1.0000
  C   C1618     1.0  0.61260  0.33367  0.35650  1.0000
  H   H2785     1.0  0.53468  0.35492  0.47172  1.0000
  C   C1619     1.0  0.50417  0.63489  0.35960  1.0000
  N   N119      1.0  0.94584  0.43755  0.39661  1.0000
  C   C1620     1.0  0.65704  0.34404  0.45831  1.0000
  C   C1621     1.0  0.49292  0.61894  0.41198  1.0000
  H   H2786     1.0  0.84848  0.40757  0.45256  1.0000
  H   H2787     1.0  0.63026  0.53236  0.39409  1.0000
  C   C1622     1.0  0.82148  0.34765  0.44852  1.0000
  C   C1623     1.0  0.65828  0.32523  0.45194  1.0000
  H   H2788     1.0  0.97986  0.44957  0.23389  1.0000
  H   H2789     1.0  0.57531  0.59616  0.36684  1.0000
  C   C1624     1.0  0.66867  0.37006  0.38186  1.0000
  H   H2790     1.0  0.94032  0.44326  0.43818  1.0000
  C   C1625     1.0  0.91627  0.42766  0.23899  1.0000
  H   H2791     1.0  0.88539  0.38326  0.25310  1.0000
  H   H2792     1.0  0.56845  0.48896  0.30277  1.0000
  H   H2793     1.0  0.67717  0.44369  0.47042  1.0000
  C   C1626     1.0  0.67131  0.43216  0.46373  1.0000
  H   H2794     1.0  0.66840  0.37535  0.39662  1.0000
  C   C1627     1.0  0.66125  0.36273  0.34026  1.0000
  H   H2795     1.0  0.68225  0.46638  0.44232  1.0000
  H   H2796     1.0  0.71504  0.45583  0.42714  1.0000
  C   C1628     1.0  0.93715  0.41578  0.37172  1.0000
  H   H2797     1.0  0.60804  0.51265  0.40441  1.0000
  C   C1629     1.0  0.62347  0.37706  0.39881  1.0000
  H   H2798     1.0  0.81311  0.37595  0.43137  1.0000
  S   S474      1.0  0.49811  0.55450  0.29401  1.0000
  H   H2799     1.0  0.50538  0.60638  0.41258  1.0000
  C   C1630     1.0  0.93695  0.47766  0.24307  1.0000
  H   H2800     1.0  0.61098  0.36774  0.40264  1.0000
  H   H2801     1.0  0.58558  0.50677  0.39828  1.0000
  H   H2802     1.0  0.80596  0.34433  0.45410  1.0000
  C   C1631     1.0  0.52240  0.62222  0.35915  1.0000
  H   H2803     1.0  0.53779  0.59325  0.35341  1.0000
  H   H2804     1.0  0.64655  0.35628  0.45249  1.0000
  H   H2805     1.0  0.53714  0.45105  0.27404  1.0000
  C   C1632     1.0  0.62424  0.54420  0.38279  1.0000
  H   H2806     1.0  0.62669  0.47654  0.45357  1.0000
  C   C1633     1.0  0.59197  0.51843  0.40430  1.0000
  H   H2807     1.0  0.82633  0.34038  0.43473  1.0000
  H   H2808     1.0  0.97661  0.43080  0.36271  1.0000
  H   H2809     1.0  0.58627  0.56382  0.41651  1.0000
  H   H2810     1.0  0.63470  0.37117  0.40919  1.0000
  C   C1634     1.0  0.59278  0.33265  0.38931  1.0000
  H   H2811     1.0  0.62405  0.54593  0.35010  1.0000
  C   C1635     1.0  0.51540  0.60892  0.29334  1.0000
  C   C1636     1.0  0.62725  0.53477  0.36314  1.0000
  C   C1637     1.0  0.87360  0.38696  0.26566  1.0000
  H   H2812     1.0  0.58084  0.51573  0.26359  1.0000
  H   H2813     1.0  0.51417  0.50005  0.26388  1.0000
  S   S475      1.0  0.59549  0.44091  0.24933  1.0000
  C   C1638     1.0  0.81671  0.40422  0.45195  1.0000
  H   H2814     1.0  0.65390  0.40090  0.45000  1.0000
  H   H2815     1.0  0.91936  0.61309  0.39495  1.0000
  H   H2816     1.0  0.64328  0.52829  0.36013  1.0000
  C   C1639     1.0  0.53248  0.63444  0.26959  1.0000
  C   C1640     1.0  0.76259  0.51928  0.44167  1.0000
  H   H2817     1.0  0.63179  0.36101  0.37348  1.0000
  H   H2818     1.0  0.74836  0.52163  0.43495  1.0000
  H   H2819     1.0  0.76393  0.50365  0.44928  1.0000
  N   N120      1.0  0.55819  0.49644  0.26268  1.0000
  C   C1641     1.0  0.57624  0.50115  0.27090  1.0000
  C   C1642     1.0  0.94653  0.45916  0.39877  1.0000
  N   N121      1.0  0.60303  0.55313  0.38958  1.0000
  C   C1643     1.0  0.58803  0.53855  0.39097  1.0000
  H   H2820     1.0  0.58594  0.53529  0.37591  1.0000
  H   H2821     1.0  0.54383  0.37136  0.43868  1.0000
  H   H2822     1.0  0.96738  0.48349  0.23825  1.0000
  H   H2823     1.0  0.68324  0.40503  0.37842  1.0000
  C   C1644     1.0  0.79632  0.37856  0.47049  1.0000
  H   H2824     1.0  0.63906  0.44004  0.24640  1.0000
  H   H2825     1.0  0.93315  0.41154  0.41285  1.0000
  C   C1645     1.0  0.67104  0.41383  0.37048  1.0000
  C   C1646     1.0  0.60211  0.56119  0.40927  1.0000
  H   H2826     1.0  0.56276  0.51581  0.29758  1.0000
  H   H2827     1.0  0.92994  0.41734  0.35786  1.0000
  C   C1647     1.0  0.55259  0.47683  0.27396  1.0000
  H   H2828     1.0  0.57668  0.48172  0.23913  1.0000
  C   C1648     1.0  0.93968  0.42793  0.43494  1.0000
  H   H2829     1.0  0.58473  0.51949  0.41989  1.0000
  C   C1649     1.0  0.53336  0.34646  0.45938  1.0000
  H   H2830     1.0  0.59589  0.56526  0.35972  1.0000
  C   C1650     1.0  0.59746  0.57053  0.37405  1.0000
  H   H2831     1.0  0.57278  0.54534  0.39691  1.0000
  H   H2832     1.0  0.60961  0.58033  0.37038  1.0000
  C   C1651     1.0  0.54133  0.51325  0.26602  1.0000
  C   C1652     1.0  0.49669  0.64108  0.28184  1.0000
  S   S476      1.0  0.87462  0.32596  0.46587  1.0000
  C   C1653     1.0  0.92606  0.47177  0.40399  1.0000
  C   C1654     1.0  0.57343  0.50258  0.29362  1.0000
  C   C1655     1.0  0.65821  0.38306  0.34826  1.0000
  H   H2833     1.0  0.53629  0.51361  0.28228  1.0000
  H   H2834     1.0  0.57140  0.35888  0.39373  1.0000
  C   C1656     1.0  0.66916  0.34698  0.47230  1.0000
  H   H2835     1.0  0.67628  0.41656  0.35426  1.0000
  H   H2836     1.0  0.78640  0.37805  0.45893  1.0000
  N   N122      1.0  0.81708  0.38254  0.46070  1.0000
  H   H2837     1.0  0.58811  0.50433  0.29814  1.0000
  H   H2838     1.0  0.54278  0.47955  0.28799  1.0000
  C   C1657     1.0  0.54740  0.35483  0.44113  1.0000
  H   H2839     1.0  0.67908  0.49698  0.47090  1.0000
  H   H2840     1.0  0.67249  0.38943  0.34292  1.0000
  H   H2841     1.0  0.79699  0.36363  0.47957  1.0000
  H   H2842     1.0  0.51758  0.35100  0.45609  1.0000
  C   C1658     1.0  0.52255  0.63915  0.30479  1.0000
  C   C1659     1.0  0.89849  0.43931  0.23405  1.0000
  H   H2843     1.0  0.62388  0.32644  0.34600  1.0000
  H   H2844     1.0  0.61694  0.39250  0.40151  1.0000
  H   H2845     1.0  0.83521  0.42690  0.43707  1.0000
  H   H2846     1.0  0.91439  0.61030  0.36329  1.0000
  C   C1660     1.0  0.93519  0.61620  0.39169  1.0000
  H   H2847     1.0  0.64108  0.42097  0.47237  1.0000
  C   C1661     1.0  0.65321  0.42596  0.47879  1.0000
  H   H2848     1.0  0.53751  0.63179  0.30856  1.0000
  C   C1662     1.0  0.83245  0.37594  0.47507  1.0000
  H   H2849     1.0  0.92709  0.64673  0.39544  1.0000
  H   H2850     1.0  0.96022  0.63584  0.34959  1.0000
  H   H2851     1.0  0.64901  0.32308  0.44100  1.0000
  C   C1663     1.0  0.60776  0.32369  0.37583  1.0000
  H   H2852     1.0  0.79441  0.58528  0.42752  1.0000
  H   H2853     1.0  0.81092  0.41450  0.46323  1.0000
  H   H2854     1.0  0.68339  0.41915  0.46391  1.0000
  H   H2855     1.0  0.51155  0.52648  0.25942  1.0000
  C   C1664     1.0  0.68619  0.48339  0.47864  1.0000
  C   C1665     1.0  0.56431  0.49434  0.24082  1.0000
  N   N123      1.0  0.51680  0.63092  0.28736  1.0000
  H   H2856     1.0  0.51199  0.63565  0.31848  1.0000
  H   H2857     1.0  0.54419  0.62413  0.24079  1.0000
  H   H2858     1.0  0.64804  0.46858  0.46687  1.0000
  H   H2859     1.0  0.50759  0.60278  0.28285  1.0000
  C   C1666     1.0  0.52958  0.62595  0.25055  1.0000
  H   H2860     1.0  0.54800  0.62916  0.27332  1.0000
  H   H2861     1.0  0.63071  0.39266  0.23540  1.0000
  H   H2862     1.0  0.55184  0.49031  0.23396  1.0000
  H   H2863     1.0  0.53268  0.65075  0.26495  1.0000
  S   S477      1.0  0.99031  0.60517  0.37359  1.0000
  H   H2864     1.0  0.49143  0.63306  0.27083  1.0000
  Fe  Fe236     1.0  0.55907  0.37822  0.66126  1.0000
  S   S478      1.0  0.53427  0.36258  0.65461  1.0000
  S   S479      1.0  0.57879  0.39319  0.63483  1.0000
  Fe  Fe237     1.0  0.54599  0.37084  0.70691  1.0000
  S   S480      1.0  0.52078  0.35466  0.70301  1.0000
  C   C1667     1.0  0.93757  0.36819  0.62365  1.0000
  H   H2865     1.0  0.64879  0.43883  0.56778  1.0000
  Fe  Fe238     1.0  0.51454  0.37897  0.67794  1.0000
  H   H2866     1.0  0.65931  0.44290  0.59905  1.0000
  C   C1668     1.0  0.64132  0.41124  0.62378  1.0000
  S   S481      1.0  0.53845  0.39651  0.68315  1.0000
  Fe  Fe239     1.0  0.67971  0.37377  0.50786  1.0000
  S   S482      1.0  0.65700  0.38969  0.52944  1.0000
  C   C1669     1.0  0.66258  0.42750  0.59474  1.0000
  Fe  Fe240     1.0  0.71441  0.37419  0.53157  1.0000
  S   S483      1.0  0.69388  0.39034  0.55502  1.0000
  S   S484      1.0  0.74759  0.37112  0.53582  1.0000
  Fe  Fe241     1.0  0.67173  0.36930  0.55329  1.0000
  S   S485      1.0  0.65370  0.35275  0.57992  1.0000
  Fe  Fe242     1.0  0.68080  0.40929  0.52911  1.0000
  S   S486      1.0  0.67094  0.44251  0.52595  1.0000
  S   S487      1.0  0.69314  0.35152  0.53169  1.0000
  S   S488      1.0  0.70253  0.39486  0.50583  1.0000
  N   N124      1.0  0.91644  0.36419  0.63219  1.0000
  S   S489      1.0  0.97552  0.36206  0.57136  1.0000
  C   C1670     1.0  0.80534  0.34629  0.52114  1.0000
  H   H2867     1.0  0.49524  0.45652  0.64391  1.0000
  S   S490      1.0  0.56899  0.35430  0.68558  1.0000
  H   H2868     1.0  0.95707  0.41449  0.68820  1.0000
  C   C1671     1.0  0.94768  0.33479  0.57843  1.0000
  H   H2869     1.0  0.67859  0.36044  0.61631  1.0000
  C   C1672     1.0  0.49595  0.62107  0.55293  1.0000
  C   C1673     1.0  0.69806  0.41553  0.62000  1.0000
  C   C1674     1.0  0.95635  0.34979  0.56517  1.0000
  C   C1675     1.0  0.94976  0.35520  0.54627  1.0000
  C   C1676     1.0  0.93489  0.34557  0.54050  1.0000
  H   H2870     1.0  0.62723  0.44232  0.61576  1.0000
  S   S491      1.0  0.96658  0.34487  0.67316  1.0000
  H   H2871     1.0  0.61116  0.36454  0.53006  1.0000
  H   H2872     1.0  0.95631  0.36682  0.53592  1.0000
  H   H2873     1.0  0.93010  0.34977  0.52583  1.0000
  C   C1677     1.0  0.95912  0.35862  0.70986  1.0000
  C   C1678     1.0  0.96243  0.36387  0.68902  1.0000
  C   C1679     1.0  0.95779  0.39887  0.69430  1.0000
  C   C1680     1.0  0.95491  0.39361  0.71518  1.0000
  H   H2874     1.0  0.58010  0.33645  0.72593  1.0000
  C   C1681     1.0  0.62966  0.43135  0.62915  1.0000
  C   C1682     1.0  0.92627  0.33054  0.55370  1.0000
  C   C1683     1.0  0.76877  0.35571  0.52525  1.0000
  C   C1684     1.0  0.76699  0.34139  0.51308  1.0000
  H   H2875     1.0  0.67783  0.42679  0.58600  1.0000
  H   H2876     1.0  0.91716  0.34181  0.61256  1.0000
  H   H2877     1.0  0.77047  0.38768  0.49152  1.0000
  H   H2878     1.0  0.96419  0.38834  0.66528  1.0000
  H   H2879     1.0  0.75229  0.33937  0.50994  1.0000
  H   H2880     1.0  0.65880  0.41319  0.48947  1.0000
  C   C1685     1.0  0.96183  0.38408  0.68128  1.0000
  H   H2881     1.0  0.63709  0.43793  0.63960  1.0000
  H   H2882     1.0  0.90269  0.34561  0.65777  1.0000
  H   H2883     1.0  0.65271  0.41231  0.57204  1.0000
  C   C1686     1.0  0.64812  0.42585  0.57968  1.0000
  H   H2884     1.0  0.49434  0.61124  0.58477  1.0000
  H   H2885     1.0  0.95943  0.34302  0.71598  1.0000
  C   C1687     1.0  0.67561  0.47335  0.49554  1.0000
  H   H2886     1.0  0.66026  0.47913  0.50064  1.0000
  H   H2887     1.0  0.64432  0.34858  0.53662  1.0000
  C   C1688     1.0  0.93080  0.32918  0.64832  1.0000
  H   H2888     1.0  0.70472  0.39975  0.61921  1.0000
  H   H2889     1.0  0.83073  0.36061  0.48274  1.0000
  C   C1689     1.0  0.88201  0.38140  0.64714  1.0000
  H   H2890     1.0  0.82003  0.34816  0.52446  1.0000
  H   H2891     1.0  0.70170  0.42455  0.60537  1.0000
  C   C1690     1.0  0.93986  0.38809  0.60996  1.0000
  H   H2892     1.0  0.70569  0.42117  0.63101  1.0000
  H   H2893     1.0  0.66056  0.38802  0.59608  1.0000
  H   H2894     1.0  0.88076  0.37223  0.66199  1.0000
  H   H2895     1.0  0.67306  0.40821  0.64198  1.0000
  C   C1691     1.0  0.67022  0.39187  0.60637  1.0000
  C   C1692     1.0  0.90181  0.36819  0.59830  1.0000
  C   C1693     1.0  0.78803  0.35809  0.52920  1.0000
  H   H2896     1.0  0.51078  0.62475  0.55531  1.0000
  C   C1694     1.0  0.63701  0.34106  0.52667  1.0000
  C   C1695     1.0  0.67523  0.41741  0.62712  1.0000
  H   H2897     1.0  0.63222  0.42625  0.58648  1.0000
  C   C1696     1.0  0.59790  0.38051  0.61871  1.0000
  C   C1697     1.0  0.60779  0.36160  0.62487  1.0000
  C   C1698     1.0  0.62449  0.35307  0.61257  1.0000
  C   C1699     1.0  0.63152  0.36333  0.59403  1.0000
  C   C1700     1.0  0.62114  0.38187  0.58749  1.0000
  C   C1701     1.0  0.60442  0.39039  0.59977  1.0000
  H   H2898     1.0  0.60293  0.35380  0.63937  1.0000
  H   H2899     1.0  0.63231  0.33865  0.61771  1.0000
  H   H2900     1.0  0.62614  0.38979  0.57311  1.0000
  H   H2901     1.0  0.59681  0.40498  0.59482  1.0000
  H   H2902     1.0  0.64149  0.40109  0.63812  1.0000
  C   C1702     1.0  0.67156  0.37408  0.62312  1.0000
  N   N125      1.0  0.66232  0.41201  0.61300  1.0000
  C   C1703     1.0  0.51339  0.35954  0.60905  1.0000
  H   H2903     1.0  0.71192  0.43503  0.50700  1.0000
  C   C1704     1.0  0.70461  0.44837  0.49905  1.0000
  H   H2904     1.0  0.65643  0.37095  0.63048  1.0000
  H   H2905     1.0  0.92381  0.35605  0.66253  1.0000
  H   H2906     1.0  0.91133  0.38895  0.64963  1.0000
  H   H2907     1.0  0.52304  0.34691  0.61632  1.0000
  H   H2908     1.0  0.61448  0.42864  0.63686  1.0000
  H   H2909     1.0  0.79288  0.39544  0.49654  1.0000
  H   H2910     1.0  0.63205  0.40462  0.61504  1.0000
  H   H2911     1.0  0.84827  0.38910  0.49444  1.0000
  H   H2912     1.0  0.91494  0.36767  0.58643  1.0000
  H   H2913     1.0  0.68101  0.37614  0.63442  1.0000
  H   H2914     1.0  0.87422  0.39656  0.64951  1.0000
  S   S492      1.0  0.87014  0.34597  0.50803  1.0000
  C   C1705     1.0  0.80357  0.33186  0.50911  1.0000
  H   H2915     1.0  0.87374  0.37555  0.63684  1.0000
  C   C1706     1.0  0.49537  0.62996  0.48598  1.0000
  H   H2916     1.0  0.68531  0.39207  0.59746  1.0000
  H   H2917     1.0  0.50490  0.42037  0.65441  1.0000
  Fe  Fe243     1.0  0.54291  0.33997  0.68027  1.0000
  H   H2918     1.0  0.78955  0.36910  0.53864  1.0000
  S   S493      1.0  0.91481  0.32759  0.48714  1.0000
  H   H2919     1.0  0.95266  0.33035  0.59296  1.0000
  C   C1707     1.0  0.93265  0.32531  0.57274  1.0000
  H   H2920     1.0  0.67062  0.43315  0.63015  1.0000
  H   H2921     1.0  0.61068  0.34982  0.51002  1.0000
  C   C1708     1.0  0.68473  0.45567  0.50563  1.0000
  Fe  Fe244     1.0  0.89568  0.32262  0.51679  1.0000
  H   H2922     1.0  0.93691  0.40093  0.61877  1.0000
  H   H2923     1.0  0.50139  0.41318  0.70945  1.0000
  H   H2924     1.0  0.52271  0.36552  0.59531  1.0000
  H   H2925     1.0  0.89613  0.38388  0.60034  1.0000
  S   S494      1.0  0.98628  0.32682  0.62080  1.0000
  C   C1709     1.0  0.90409  0.38312  0.63836  1.0000
  H   H2926     1.0  0.90352  0.39535  0.62574  1.0000
  H   H2927     1.0  0.64698  0.43800  0.48820  1.0000
  H   H2928     1.0  0.49915  0.61228  0.54006  1.0000
  H   H2929     1.0  0.62019  0.33779  0.56384  1.0000
  H   H2930     1.0  0.94685  0.36821  0.63590  1.0000
  C   C1710     1.0  0.78431  0.32945  0.50517  1.0000
  C   C1711     1.0  0.61435  0.32794  0.55491  1.0000
  C   C1712     1.0  0.90698  0.35493  0.61768  1.0000
  H   H2931     1.0  0.69240  0.33350  0.49029  1.0000
  C   C1713     1.0  0.62046  0.35658  0.51810  1.0000
  H   H2932     1.0  0.88935  0.36253  0.59278  1.0000
  H   H2933     1.0  0.93030  0.39078  0.59781  1.0000
  S   S495      1.0  0.95022  0.41279  0.73092  1.0000
  H   H2934     1.0  0.60081  0.33687  0.54916  1.0000
  C   C1714     1.0  0.56669  0.32675  0.48475  1.0000
  Fe  Fe245     1.0  0.85784  0.32137  0.49696  1.0000
  H   H2935     1.0  0.49690  0.44831  0.70774  1.0000
  H   H2936     1.0  0.94538  0.35604  0.61498  1.0000
  Fe  Fe246     1.0  0.98817  0.34628  0.64426  1.0000
  H   H2937     1.0  0.95561  0.38779  0.60260  1.0000
  H   H2938     1.0  0.62763  0.36810  0.50730  1.0000
  H   H2939     1.0  0.53138  0.33434  0.50579  1.0000
  C   C1715     1.0  0.95575  0.37338  0.72290  1.0000
  H   H2940     1.0  0.55568  0.32284  0.60822  1.0000
  H   H2941     1.0  0.89327  0.34829  0.62503  1.0000
  H   H2942     1.0  0.56140  0.34285  0.48479  1.0000
  H   H2943     1.0  0.82418  0.38255  0.50606  1.0000
  H   H2944     1.0  0.94642  0.33100  0.64175  1.0000
  C   C1716     1.0  0.91778  0.34943  0.65093  1.0000
  C   C1717     1.0  0.51778  0.33133  0.50022  1.0000
  H   H2945     1.0  0.50967  0.37165  0.61875  1.0000
  H   H2946     1.0  0.50339  0.32835  0.63602  1.0000
  H   H2947     1.0  0.56040  0.32626  0.64285  1.0000
  C   C1718     1.0  0.83248  0.38892  0.49185  1.0000
  H   H2948     1.0  0.64885  0.33828  0.51403  1.0000
  H   H2949     1.0  0.49254  0.59253  0.56975  1.0000
  H   H2950     1.0  0.50859  0.34566  0.49551  1.0000
  C   C1719     1.0  0.49441  0.35308  0.60311  1.0000
  H   H2951     1.0  0.49585  0.61423  0.48487  1.0000
  H   H2952     1.0  0.56328  0.31868  0.49997  1.0000
  H   H2953     1.0  0.49951  0.34182  0.59245  1.0000
  H   H2954     1.0  0.82639  0.40476  0.48850  1.0000
  N   N126      1.0  0.63003  0.32203  0.53787  1.0000
  H   H2955     1.0  0.93174  0.32039  0.66331  1.0000
  H   H2956     1.0  0.62184  0.32087  0.49281  1.0000
  H   H2957     1.0  0.92416  0.32013  0.63936  1.0000
  C   C1720     1.0  0.78461  0.39354  0.48429  1.0000
  H   H2958     1.0  0.50867  0.32360  0.51316  1.0000
  C   C1721     1.0  0.71533  0.45865  0.48251  1.0000
  H   H2959     1.0  0.78279  0.31830  0.49589  1.0000
  H   H2960     1.0  0.69411  0.37114  0.88464  1.0000
  H   H2961     1.0  0.90084  0.32609  0.87262  1.0000
  S   S496      1.0  0.59328  0.35712  0.95551  1.0000
  C   C1722     1.0  0.53409  0.34152  0.97231  1.0000
  H   H2962     1.0  0.86621  0.34648  0.88440  1.0000
  H   H2963     1.0  0.93913  0.63665  0.97202  1.0000
  Fe  Fe247     1.0  0.98161  0.41310  0.79204  1.0000
  H   H2964     1.0  0.88043  0.36408  0.83300  1.0000
  C   C1723     1.0  0.53457  0.34735  0.79495  1.0000
  H   H2965     1.0  0.83493  0.45596  0.91918  1.0000
  H   H2966     1.0  0.73626  0.33710  0.96493  1.0000
  Fe  Fe248     1.0  0.81697  0.41730  0.90706  1.0000
  S   S497      1.0  0.83878  0.40667  0.92913  1.0000
  S   S498      1.0  0.82680  0.43051  0.87515  1.0000
  Fe  Fe249     1.0  0.78064  0.40507  0.93685  1.0000
  S   S499      1.0  0.80006  0.39315  0.96104  1.0000
  S   S500      1.0  0.74627  0.40753  0.94248  1.0000
  Fe  Fe250     1.0  0.81532  0.42079  0.95147  1.0000
  C   C1724     1.0  0.53744  0.36216  0.75980  1.0000
  Fe  Fe251     1.0  0.82188  0.38021  0.93669  1.0000
  S   S501      1.0  0.84036  0.35002  0.94012  1.0000
  S   S502      1.0  0.79451  0.43388  0.92884  1.0000
  S   S503      1.0  0.80134  0.38973  0.91306  1.0000
  Fe  Fe252     1.0  0.95220  0.40704  0.76445  1.0000
  H   H2967     1.0  0.62167  0.35725  0.88873  1.0000
  H   H2968     1.0  0.89196  0.38077  0.87996  1.0000
  Fe  Fe253     1.0  0.93601  0.41752  0.80693  1.0000
  S   S504      1.0  0.96304  0.39969  0.81907  1.0000
  S   S505      1.0  0.91644  0.43158  0.83281  1.0000
  H   H2969     1.0  0.57257  0.32140  0.97286  1.0000
  H   H2970     1.0  0.80795  0.49339  0.89856  1.0000
  Fe  Fe254     1.0  0.95888  0.37668  0.80054  1.0000
  S   S506      1.0  0.95997  0.34572  0.81721  1.0000
  S   S507      1.0  0.95512  0.43295  0.78080  1.0000
  S   S508      1.0  0.93066  0.39344  0.78964  1.0000
  H   H2971     1.0  0.87112  0.49703  0.88136  1.0000
  C   C1725     1.0  0.86372  0.45272  0.92911  1.0000
  Fe  Fe255     1.0  0.50854  0.31919  0.84571  1.0000
  H   H2972     1.0  0.88054  0.48571  0.90354  1.0000
  H   H2973     1.0  0.85507  0.45625  0.94359  1.0000
  C   C1726     1.0  0.85188  0.42732  0.86304  1.0000
  C   C1727     1.0  0.85562  0.43364  0.84244  1.0000
  C   C1728     1.0  0.87544  0.43342  0.83263  1.0000
  C   C1729     1.0  0.89177  0.42725  0.84343  1.0000
  C   C1730     1.0  0.88804  0.42066  0.86400  1.0000
  C   C1731     1.0  0.86822  0.42017  0.87366  1.0000
  H   H2974     1.0  0.84312  0.43926  0.83409  1.0000
  H   H2975     1.0  0.87808  0.43906  0.81691  1.0000
  H   H2976     1.0  0.90056  0.41641  0.87258  1.0000
  H   H2977     1.0  0.86562  0.41512  0.88949  1.0000
  C   C1732     1.0  0.87158  0.48298  0.89201  1.0000
  H   H2978     1.0  0.69634  0.35101  0.87006  1.0000
  C   C1733     1.0  0.50743  0.34758  0.77551  1.0000
  C   C1734     1.0  0.98294  0.63877  0.96380  1.0000
  H   H2979     1.0  0.81000  0.47186  0.95320  1.0000
  C   C1735     1.0  0.83789  0.48127  0.88416  1.0000
  C   C1736     1.0  0.57701  0.32281  0.73634  1.0000
  H   H2980     1.0  0.98555  0.36350  0.87378  1.0000
  H   H2981     1.0  0.84302  0.46915  0.87454  1.0000
  C   C1737     1.0  0.70800  0.35595  0.96258  1.0000
  H   H2982     1.0  0.63152  0.39058  0.92842  1.0000
  C   C1738     1.0  0.74108  0.36766  0.95443  1.0000
  C   C1739     1.0  0.73204  0.38717  0.94927  1.0000
  C   C1740     1.0  0.71094  0.39087  0.95032  1.0000
  C   C1741     1.0  0.69894  0.37541  0.95717  1.0000
  C   C1742     1.0  0.88398  0.46657  0.88031  1.0000
  H   H2983     1.0  0.75729  0.36458  0.95358  1.0000
  H   H2984     1.0  0.70385  0.40590  0.94618  1.0000
  H   H2985     1.0  0.82995  0.51930  0.89515  1.0000
  C   C1743     1.0  0.58542  0.34494  0.93736  1.0000
  H   H2986     1.0  0.60949  0.32053  0.93790  1.0000
  H   H2987     1.0  0.66276  0.34858  0.94246  1.0000
  H   H2988     1.0  0.52185  0.35259  0.97838  1.0000
  C   C1744     1.0  0.56808  0.35346  0.92863  1.0000
  C   C1745     1.0  0.69127  0.35544  0.88524  1.0000
  H   H2989     1.0  0.54108  0.34325  0.80880  1.0000
  C   C1746     1.0  0.84025  0.51595  0.90677  1.0000
  C   C1747     1.0  0.89124  0.36463  0.87977  1.0000
  C   C1748     1.0  0.51567  0.34211  0.79358  1.0000
  H   H2990     1.0  0.88532  0.33846  0.85486  1.0000
  H   H2991     1.0  0.87741  0.46021  0.92660  1.0000
  H   H2992     1.0  0.51171  0.36156  0.74493  1.0000
  C   C1749     1.0  0.66103  0.38016  0.91217  1.0000
  H   H2993     1.0  0.67678  0.38237  0.91329  1.0000
  H   H2994     1.0  0.66657  0.33777  0.88903  1.0000
  H   H2995     1.0  0.54527  0.33007  0.73605  1.0000
  C   C1750     1.0  0.98823  0.32259  0.83832  1.0000
  H   H2996     1.0  0.86282  0.36842  0.86610  1.0000
  N   N127      1.0  0.90598  0.35674  0.86291  1.0000
  C   C1751     1.0  0.92659  0.35273  0.86975  1.0000
  C   C1752     1.0  0.90079  0.33708  0.85880  1.0000
  C   C1753     1.0  0.67377  0.32314  0.92699  1.0000
  C   C1754     1.0  0.90698  0.37199  0.84451  1.0000
  C   C1755     1.0  0.93395  0.37051  0.87703  1.0000
  H   H2997     1.0  0.81118  0.34374  0.97735  1.0000
  H   H2998     1.0  0.60908  0.37089  0.90870  1.0000
  C   C1756     1.0  0.88813  0.37710  0.83363  1.0000
  C   C1757     1.0  0.59612  0.32722  0.93130  1.0000
  H   H2999     1.0  0.93833  0.34801  0.85753  1.0000
  H   H3000     1.0  0.98036  0.38799  0.85999  1.0000
  H   H3001     1.0  0.86914  0.43645  0.93045  1.0000
  C   C1758     1.0  0.66872  0.35326  0.89083  1.0000
  H   H3002     1.0  0.55979  0.36724  0.93315  1.0000
  H   H3003     1.0  0.91006  0.38646  0.84826  1.0000
  H   H3004     1.0  0.92017  0.36795  0.83335  1.0000
  H   H3005     1.0  0.93672  0.38268  0.86463  1.0000
  H   H3006     1.0  0.92360  0.37656  0.88951  1.0000
  H   H3007     1.0  0.94852  0.36519  0.88286  1.0000
  C   C1759     1.0  0.49552  0.38863  0.81888  1.0000
  S   S509      1.0  0.97989  0.38825  0.77431  1.0000
  H   H3008     1.0  0.50941  0.38472  0.82626  1.0000
  H   H3009     1.0  0.62935  0.38037  0.89246  1.0000
  H   H3010     1.0  0.65740  0.38970  0.89815  1.0000
  N   N128      1.0  0.65963  0.35841  0.91125  1.0000
  H   H3011     1.0  0.54783  0.35086  0.90760  1.0000
  C   C1760     1.0  0.85377  0.36522  0.97001  1.0000
  H   H3012     1.0  0.89272  0.38276  0.81774  1.0000
  H   H3013     1.0  0.83372  0.52514  0.91892  1.0000
  H   H3014     1.0  0.85216  0.49218  0.92773  1.0000
  C   C1761     1.0  0.91465  0.32720  0.84192  1.0000
  N   N129      1.0  0.85058  0.47908  0.90099  1.0000
  H   H3015     1.0  0.84246  0.37792  0.96747  1.0000
  S   S510      1.0  0.69375  0.33602  0.97190  1.0000
  S   S511      1.0  0.51175  0.34114  0.86641  1.0000
  S   S512      1.0  0.82513  0.43425  0.97635  1.0000
  C   C1762     1.0  0.54538  0.35738  0.77811  1.0000
  C   C1763     1.0  0.62398  0.36639  0.90024  1.0000
  H   H3016     1.0  0.56017  0.36104  0.77915  1.0000
  H   H3017     1.0  0.63126  0.35583  0.93040  1.0000
  H   H3018     1.0  0.65081  0.38089  0.94432  1.0000
  H   H3019     1.0  0.87642  0.46371  0.86783  1.0000
  C   C1764     1.0  0.85039  0.45828  0.91204  1.0000
  H   H3020     1.0  0.49947  0.38393  0.80374  1.0000
  C   C1765     1.0  0.85627  0.34956  0.95837  1.0000
  H   H3021     1.0  0.53233  0.34168  0.95636  1.0000
  S   S513      1.0  0.55203  0.37336  0.73847  1.0000
  H   H3022     1.0  0.68274  0.37858  0.95841  1.0000
  H   H3023     1.0  0.88740  0.45241  0.89019  1.0000
  C   C1766     1.0  0.57208  0.32664  0.90790  1.0000
  C   C1767     1.0  0.56125  0.34421  0.91417  1.0000
  C   C1768     1.0  0.81512  0.48077  0.89034  1.0000
  H   H3024     1.0  0.83972  0.49536  0.87393  1.0000
  H   H3025     1.0  0.81183  0.46640  0.89917  1.0000
  H   H3026     1.0  0.66077  0.36293  0.87902  1.0000
  H   H3027     1.0  0.87734  0.38892  0.84039  1.0000
  H   H3028     1.0  0.51345  0.32383  0.73989  1.0000
  H   H3029     1.0  0.85504  0.52088  0.90060  1.0000
  H   H3030     1.0  0.80774  0.48207  0.87660  1.0000
  C   C1769     1.0  0.72911  0.35213  0.96088  1.0000
  C   C1770     1.0  0.98682  0.37231  0.85875  1.0000
  H   H3031     1.0  0.91536  0.33716  0.82750  1.0000
  H   H3032     1.0  0.89865  0.47151  0.87354  1.0000
  H   H3033     1.0  0.79539  0.33222  0.96443  1.0000
  H   H3034     1.0  0.97142  0.63640  0.95471  1.0000
  C   C1771     1.0  0.67073  0.34599  0.92741  1.0000
  H   H3035     1.0  0.97727  0.36607  0.84990  1.0000
  H   H3036     1.0  0.68587  0.35059  0.92717  1.0000
  C   C1772     1.0  0.84239  0.49372  0.91565  1.0000
  H   H3037     1.0  0.95345  0.36913  0.73892  1.0000
  C   C1773     1.0  0.86885  0.36233  0.88026  1.0000
  H   H3038     1.0  0.85409  0.44673  0.90168  1.0000
  C   C1774     1.0  0.87111  0.33326  0.96176  1.0000
  C   C1775     1.0  0.51822  0.35757  0.75874  1.0000
  H   H3039     1.0  0.82747  0.49042  0.92357  1.0000
  H   H3040     1.0  0.49281  0.34363  0.77431  1.0000
  C   C1776     1.0  0.64779  0.38941  0.92975  1.0000
  C   C1777     1.0  0.63812  0.35415  0.91477  1.0000
  H   H3041     1.0  0.65125  0.40484  0.92977  1.0000
  S   S514      1.0  0.50229  0.32754  0.81328  1.0000
  H   H3042     1.0  0.89530  0.35706  0.89456  1.0000
  C   C1778     1.0  0.82516  0.45965  0.97874  1.0000
  H   H3043     1.0  0.80779  0.50724  0.95999  1.0000
  H   H3044     1.0  0.68335  0.31873  0.91332  1.0000
  H   H3045     1.0  0.63732  0.33821  0.91355  1.0000
  C   C1779     1.0  0.81640  0.47525  0.96574  1.0000
  H   H3046     1.0  0.92721  0.34011  0.88216  1.0000
  C   C1780     1.0  0.80325  0.33047  0.97792  1.0000
  H   H3047     1.0  0.98592  0.45814  0.79100  1.0000
  H   H3048     1.0  0.85980  0.37071  0.89208  1.0000
  H   H3049     1.0  0.70077  0.34559  0.89557  1.0000
  C   C1781     1.0  0.81509  0.49522  0.96967  1.0000
  H   H3050     1.0  0.54846  0.34697  0.97345  1.0000
  C   C1782     1.0  0.98472  0.33595  0.82118  1.0000
  H   H3051     1.0  0.93007  0.32215  0.84583  1.0000
  H   H3052     1.0  0.57668  0.32681  0.75159  1.0000
  Fe  Fe256     1.0  0.61617  0.34370  0.97664  1.0000
  H   H3053     1.0  0.89446  0.31982  0.97977  1.0000
  H   H3054     1.0  0.87334  0.32131  0.95251  1.0000
  C   C1783     1.0  0.88304  0.33240  0.97716  1.0000
  C   C1784     1.0  0.58964  0.31830  0.91640  1.0000
  H   H3055     1.0  0.49170  0.40509  0.81782  1.0000
  H   H3056     1.0  0.77590  0.45126  0.98082  1.0000
  Fe  Fe257     1.0  0.88256  0.95967  0.12625  1.0000
  S   S515      1.0  0.86443  0.95013  0.15523  1.0000
  S   S516      1.0  0.90810  0.93948  0.11096  1.0000
  Fe  Fe258     1.0  0.83746  0.96544  0.14063  1.0000
  S   S517      1.0  0.80908  0.94971  0.14544  1.0000
  H   H3057     1.0  0.86081  0.65296  0.11895  1.0000
  H   H3058     1.0  0.97020  0.93686  0.17538  1.0000
  H   H3059     1.0  0.94954  0.91914  0.14991  1.0000
  C   C1785     1.0  0.49296  0.82914  0.15273  1.0000
  H   H3060     1.0  0.97257  0.90960  0.15927  1.0000
  S   S518      1.0  0.94587  0.85614  0.15399  1.0000
  H   H3061     1.0  0.86976  0.92007  0.12065  1.0000
  C   C1786     1.0  0.90953  0.92922  0.18644  1.0000
  H   H3062     1.0  0.56454  0.87075  0.08334  1.0000
  H   H3063     1.0  0.95913  0.88042  0.11662  1.0000
  Fe  Fe259     1.0  0.95233  0.68628  0.07809  1.0000
  C   C1787     1.0  0.58002  0.73976  0.12626  1.0000
  S   S519      1.0  0.95156  0.71989  0.07906  1.0000
  H   H3064     1.0  0.55468  0.74732  0.10998  1.0000
  H   H3065     1.0  0.85386  0.87361  0.14512  1.0000
  H   H3066     1.0  0.58492  0.74084  0.14082  1.0000
  H   H3067     1.0  0.93510  0.97828  0.15544  1.0000
  S   S520      1.0  0.95279  0.67410  0.04875  1.0000
  Fe  Fe260     1.0  0.58676  0.81451  0.06142  1.0000
  S   S521      1.0  0.55596  0.82793  0.07374  1.0000
  S   S522      1.0  0.60599  0.83976  0.04927  1.0000
  Fe  Fe261     1.0  0.57384  0.77180  0.07043  1.0000
  S   S523      1.0  0.54292  0.78305  0.08378  1.0000
  S   S524      1.0  0.58051  0.73796  0.07036  1.0000
  Fe  Fe262     1.0  0.54367  0.80694  0.05770  1.0000
  S   S525      1.0  0.51515  0.81622  0.04332  1.0000
  Fe  Fe263     1.0  0.55840  0.80265  0.09842  1.0000
  S   S526      1.0  0.54933  0.80772  0.13041  1.0000
  S   S527      1.0  0.57412  0.79508  0.04310  1.0000
  S   S528      1.0  0.58965  0.78990  0.08725  1.0000
  Fe  Fe264     1.0  0.72470  0.92410  0.08627  1.0000
  S   S529      1.0  0.70255  0.94892  0.09771  1.0000
  S   S530      1.0  0.75782  0.92933  0.08095  1.0000
  Fe  Fe265     1.0  0.69033  0.90011  0.08074  1.0000
  S   S531      1.0  0.66634  0.92360  0.09195  1.0000
  S   S532      1.0  0.68332  0.87110  0.07129  1.0000
  Fe  Fe266     1.0  0.68507  0.94575  0.07313  1.0000
  H   H3068     1.0  0.75990  0.98065  0.01895  1.0000
  Fe  Fe267     1.0  0.68615  0.92445  0.11525  1.0000
  S   S533      1.0  0.67269  0.92488  0.14734  1.0000
  S   S534      1.0  0.70807  0.92234  0.06018  1.0000
  S   S535      1.0  0.70938  0.89950  0.10557  1.0000
  H   H3069     1.0  0.95565  0.97062  0.12483  1.0000
  C   C1788     1.0  0.95228  0.96860  0.19862  1.0000
  H   H3070     1.0  0.57856  0.83602  0.13168  1.0000
  C   C1789     1.0  0.67846  0.89949  0.02474  1.0000
  C   C1790     1.0  0.49380  0.68957  0.03438  1.0000
  C   C1791     1.0  0.62600  0.84712  0.05980  1.0000
  C   C1792     1.0  0.62492  0.86697  0.06387  1.0000
  C   C1793     1.0  0.64192  0.87428  0.06864  1.0000
  C   C1794     1.0  0.66049  0.86206  0.06859  1.0000
  C   C1795     1.0  0.66143  0.84217  0.06481  1.0000
  C   C1796     1.0  0.64433  0.83471  0.06064  1.0000
  H   H3071     1.0  0.61099  0.87688  0.06289  1.0000
  H   H3072     1.0  0.64078  0.88950  0.07178  1.0000
  H   H3073     1.0  0.67564  0.83255  0.06466  1.0000
  H   H3074     1.0  0.64566  0.81960  0.05704  1.0000
  H   H3075     1.0  0.90294  0.93659  0.19981  1.0000
  C   C1797     1.0  0.52658  0.78681  0.01869  1.0000
  C   C1798     1.0  0.51159  0.80182  0.02501  1.0000
  H   H3076     1.0  0.51331  0.86792  0.14421  1.0000
  H   H3077     1.0  0.53989  0.78284  0.02615  1.0000
  H   H3078     1.0  0.94387  0.91297  0.10012  1.0000
  H   H3079     1.0  0.86089  0.86706  0.11217  1.0000
  C   C1799     1.0  0.51359  0.82203  0.15108  1.0000
  C   C1800     1.0  0.52380  0.81716  0.13270  1.0000
  C   C1801     1.0  0.51348  0.81948  0.11604  1.0000
  H   H3080     1.0  0.85817  0.91622  0.08154  1.0000
  H   H3081     1.0  0.52154  0.82028  0.16400  1.0000
  H   H3082     1.0  0.52123  0.81609  0.10175  1.0000
  C   C1802     1.0  0.53032  0.70163  0.14495  1.0000
  C   C1803     1.0  0.85840  0.92683  0.09221  1.0000
  C   C1804     1.0  0.64317  0.94856  0.16814  1.0000
  C   C1805     1.0  0.65567  0.94659  0.15005  1.0000
  C   C1806     1.0  0.84134  0.90057  0.15765  1.0000
  N   N130      1.0  0.50058  0.70986  0.03370  1.0000
  H   H3083     1.0  0.64308  0.93613  0.17998  1.0000
  S   S536      1.0  0.97743  0.66350  0.08829  1.0000
  H   H3084     1.0  0.87295  0.93304  0.08830  1.0000
  S   S537      1.0  0.51298  0.68075  0.10242  1.0000
  C   C1807     1.0  0.49475  0.72230  0.01471  1.0000
  C   C1808     1.0  0.53211  0.69585  0.09227  1.0000
  C   C1809     1.0  0.55236  0.68805  0.08827  1.0000
  C   C1810     1.0  0.56703  0.70104  0.08121  1.0000
  C   C1811     1.0  0.56157  0.72187  0.07791  1.0000
  C   C1812     1.0  0.54120  0.72946  0.08121  1.0000
  C   C1813     1.0  0.52666  0.71659  0.08863  1.0000
  H   H3085     1.0  0.58271  0.69492  0.07856  1.0000
  H   H3086     1.0  0.53657  0.74528  0.07815  1.0000
  H   H3087     1.0  0.51104  0.72277  0.09166  1.0000
  C   C1814     1.0  0.50016  0.92798  0.17334  1.0000
  C   C1815     1.0  0.97118  0.76289  0.10484  1.0000
  C   C1816     1.0  0.96164  0.75285  0.09286  1.0000
  C   C1817     1.0  0.96408  0.73180  0.09448  1.0000
  C   C1818     1.0  0.97637  0.72092  0.10818  1.0000
  H   H3088     1.0  0.53647  0.68574  0.14373  1.0000
  H   H3089     1.0  0.96900  0.77904  0.10350  1.0000
  H   H3090     1.0  0.95215  0.76145  0.08236  1.0000
  H   H3091     1.0  0.92919  0.94968  0.20556  1.0000
  C   C1819     1.0  0.88551  0.65871  0.13206  1.0000
  C   C1820     1.0  0.79496  0.94458  0.12714  1.0000
  C   C1821     1.0  0.77894  0.93317  0.13333  1.0000
  C   C1822     1.0  0.76725  0.92873  0.11943  1.0000
  C   C1823     1.0  0.77152  0.93551  0.09908  1.0000
  C   C1824     1.0  0.78780  0.94657  0.09282  1.0000
  C   C1825     1.0  0.79937  0.95122  0.10676  1.0000
  H   H3092     1.0  0.77562  0.92760  0.14898  1.0000
  H   H3093     1.0  0.75517  0.91969  0.12438  1.0000
  H   H3094     1.0  0.79143  0.95167  0.07709  1.0000
  H   H3095     1.0  0.81167  0.95995  0.10173  1.0000
  C   C1826     1.0  0.91828  0.91612  0.12283  1.0000
  C   C1827     1.0  0.90870  0.90725  0.14079  1.0000
  C   C1828     1.0  0.91731  0.88883  0.15006  1.0000
  C   C1829     1.0  0.93557  0.87907  0.14146  1.0000
  C   C1830     1.0  0.94509  0.88784  0.12340  1.0000
  C   C1831     1.0  0.93641  0.90626  0.11408  1.0000
  H   H3096     1.0  0.89473  0.91463  0.14760  1.0000
  H   H3097     1.0  0.90987  0.88212  0.16403  1.0000
  H   H3098     1.0  0.55679  0.67207  0.09098  1.0000
  C   C1832     1.0  0.63102  0.96673  0.17102  1.0000
  H   H3099     1.0  0.93855  0.95272  0.13072  1.0000
  H   H3100     1.0  0.52791  0.85014  0.00944  1.0000
  H   H3101     1.0  0.56032  0.73345  0.16480  1.0000
  Fe  Fe268     1.0  0.86791  0.98000  0.16411  1.0000
  H   H3102     1.0  0.67371  0.94084  0.03105  1.0000
  H   H3103     1.0  0.54192  0.96248  0.15608  1.0000
  H   H3104     1.0  0.55725  0.90497  0.11185  1.0000
  H   H3105     1.0  0.64044  0.94140  0.05077  1.0000
  H   H3106     1.0  0.68943  0.90217  0.03440  1.0000
  H   H3107     1.0  0.53910  0.87326  0.07854  1.0000
  H   H3108     1.0  0.54566  0.75669  0.16163  1.0000
  H   H3109     1.0  0.76013  0.98162  0.16472  1.0000
  H   H3110     1.0  0.65364  0.94722  0.01626  1.0000
  H   H3111     1.0  0.96051  0.96979  0.15954  1.0000
  C   C1833     1.0  0.95304  0.65984  0.99215  1.0000
  H   H3112     1.0  0.70781  0.96059  0.03290  1.0000
  C   C1834     1.0  0.75110  0.97190  0.15895  1.0000
  C   C1835     1.0  0.54529  0.74050  0.16093  1.0000
  H   H3113     1.0  0.56039  0.70771  0.14597  1.0000
  H   H3114     1.0  0.58913  0.74912  0.11472  1.0000
  C   C1836     1.0  0.64728  0.92796  0.04354  1.0000
  C   C1837     1.0  0.72100  0.94796  0.15225  1.0000
  H   H3115     1.0  0.88252  0.67520  0.12823  1.0000
  C   C1838     1.0  0.49227  0.79702  0.99901  1.0000
  C   C1839     1.0  0.54906  0.87759  0.08831  1.0000
  C   C1840     1.0  0.49426  0.80662  0.01538  1.0000
  S   S538      1.0  0.87935  0.97694  0.19485  1.0000
  C   C1841     1.0  0.94647  0.96468  0.15674  1.0000
  S   S539      1.0  0.66949  0.97308  0.05581  1.0000
  N   N131      1.0  0.67163  0.91861  0.01199  1.0000
  H   H3116     1.0  0.49924  0.77094  0.13337  1.0000
  H   H3117     1.0  0.95622  0.98206  0.18839  1.0000
  C   C1842     1.0  0.68694  0.94638  0.98676  1.0000
  C   C1843     1.0  0.63190  0.98305  0.15601  1.0000
  C   C1844     1.0  0.95504  0.93187  0.17714  1.0000
  H   H3118     1.0  0.73571  0.94682  0.14280  1.0000
  H   H3119     1.0  0.67991  0.95865  0.99553  1.0000
  H   H3120     1.0  0.54791  0.86463  0.99752  1.0000
  H   H3121     1.0  0.96474  0.94606  0.13512  1.0000
  C   C1845     1.0  0.68812  0.88174  0.01342  1.0000
  H   H3122     1.0  0.73259  0.91882  0.16682  1.0000
  H   H3123     1.0  0.54635  0.72528  0.03617  1.0000
  C   C1846     1.0  0.95649  0.91497  0.16383  1.0000
  H   H3124     1.0  0.92118  0.93720  0.15584  1.0000
  C   C1847     1.0  0.55654  0.83181  0.00041  1.0000
  C   C1848     1.0  0.68193  0.98307  0.03281  1.0000
  S   S540      1.0  0.92758  0.66832  0.09333  1.0000
  C   C1849     1.0  0.72594  0.98288  0.11931  1.0000
  H   H3125     1.0  0.62152  0.96831  0.18505  1.0000
  H   H3126     1.0  0.96478  0.66649  0.99786  1.0000
  C   C1850     1.0  0.51501  0.76706  0.13672  1.0000
  H   H3127     1.0  0.51526  0.77073  0.15200  1.0000
  H   H3128     1.0  0.51208  0.67284  0.05744  1.0000
  H   H3129     1.0  0.51832  0.70530  0.13502  1.0000
  H   H3130     1.0  0.97845  0.70476  0.10963  1.0000
  C   C1851     1.0  0.70051  0.97377  0.02472  1.0000
  H   H3131     1.0  0.51996  0.70863  0.99443  1.0000
  H   H3132     1.0  0.89679  0.92416  0.18087  1.0000
  C   C1852     1.0  0.64435  0.98101  0.13796  1.0000
  H   H3133     1.0  0.72613  0.97577  0.18164  1.0000
  C   C1853     1.0  0.54738  0.71474  0.13802  1.0000
  H   H3134     1.0  0.57225  0.83207  0.00330  1.0000
  H   H3135     1.0  0.50215  0.68160  0.02191  1.0000
  H   H3136     1.0  0.49319  0.65992  0.05136  1.0000
  H   H3137     1.0  0.50599  0.92984  0.20313  1.0000
  H   H3138     1.0  0.52632  0.82027  0.98819  1.0000
  H   H3139     1.0  0.53043  0.69465  0.02596  1.0000
  H   H3140     1.0  0.69110  0.86838  0.02458  1.0000
  H   H3141     1.0  0.65172  0.93020  0.98978  1.0000
  S   S541      1.0  0.49291  0.92624  0.13497  1.0000
  H   H3142     1.0  0.65538  0.91786  0.05482  1.0000
  H   H3143     1.0  0.71070  0.94246  0.14353  1.0000
  C   C1854     1.0  0.52298  0.70695  0.03466  1.0000
  H   H3144     1.0  0.94750  0.97361  0.21362  1.0000
  H   H3145     1.0  0.70822  0.92837  0.17796  1.0000
  N   N132      1.0  0.71362  0.96924  0.15598  1.0000
  H   H3146     1.0  0.55107  0.81894  0.01071  1.0000
  C   C1855     1.0  0.53009  0.73276  0.17843  1.0000
  C   C1856     1.0  0.85510  0.88988  0.14123  1.0000
  N   N133      1.0  0.85113  0.89698  0.11991  1.0000
  H   H3147     1.0  0.82522  0.88086  0.12595  1.0000
  H   H3148     1.0  0.82571  0.89688  0.15942  1.0000
  H   H3149     1.0  0.93244  0.68629  0.99856  1.0000
  H   H3150     1.0  0.52449  0.95092  0.13100  1.0000
  Fe  Fe269     1.0  0.97624  0.83881  0.14420  1.0000
  C   C1857     1.0  0.63914  0.90498  0.00639  1.0000
  C   C1858     1.0  0.82923  0.89581  0.11894  1.0000
  H   H3151     1.0  0.49346  0.71040  0.06573  1.0000
  H   H3152     1.0  0.96575  0.95735  0.19992  1.0000
  C   C1859     1.0  0.69436  0.96898  0.17030  1.0000
  H   H3153     1.0  0.52532  0.73983  0.02627  1.0000
  H   H3154     1.0  0.52035  0.86130  0.16872  1.0000
  H   H3155     1.0  0.86119  0.88534  0.09135  1.0000
  C   C1860     1.0  0.85581  0.91822  0.11463  1.0000
  C   C1861     1.0  0.88716  0.88252  0.10644  1.0000
  H   H3156     1.0  0.87073  0.89157  0.14322  1.0000
  H   H3157     1.0  0.89523  0.87282  0.09526  1.0000
  H   H3158     1.0  0.89182  0.89760  0.10181  1.0000
  H   H3159     1.0  0.89248  0.87613  0.12095  1.0000
  C   C1862     1.0  0.86427  0.88265  0.10706  1.0000
  H   H3160     1.0  0.51011  0.73656  0.14394  1.0000
  H   H3161     1.0  0.84709  0.89544  0.17223  1.0000
  S   S542      1.0  0.85552  0.97312  0.11088  1.0000
  H   H3162     1.0  0.57521  0.90009  0.14280  1.0000
  H   H3163     1.0  0.52566  0.87661  0.11293  1.0000
  H   H3164     1.0  0.55672  0.92129  0.14077  1.0000
  C   C1863     1.0  0.95150  0.95774  0.13586  1.0000
  H   H3165     1.0  0.84393  0.92861  0.12226  1.0000
  H   H3166     1.0  0.84117  0.91697  0.15492  1.0000
  H   H3167     1.0  0.84633  0.93941  0.08929  1.0000
  H   H3168     1.0  0.63485  0.92088  0.03998  1.0000
  C   C1864     1.0  0.54171  0.87003  0.11026  1.0000
  H   H3169     1.0  0.82367  0.91482  0.09062  1.0000
  C   C1865     1.0  0.55883  0.90471  0.14298  1.0000
  H   H3170     1.0  0.63560  0.89619  0.99514  1.0000
  H   H3171     1.0  0.75558  0.97294  0.14262  1.0000
  H   H3172     1.0  0.81944  0.90693  0.12769  1.0000
  C   C1866     1.0  0.49650  0.67487  0.05363  1.0000
  S   S543      1.0  0.98518  0.82350  0.11644  1.0000
  H   H3173     1.0  0.58402  0.87058  0.13298  1.0000
  H   H3174     1.0  0.52408  0.77676  0.12570  1.0000
  H   H3175     1.0  0.57451  0.84182  0.10568  1.0000
  H   H3176     1.0  0.52366  0.70252  0.16062  1.0000
  C   C1867     1.0  0.49288  0.82601  0.11783  1.0000
  H   H3177     1.0  0.55574  0.86558  0.15721  1.0000
  C   C1868     1.0  0.53448  0.72506  0.02657  1.0000
  N   N134      1.0  0.55344  0.87486  0.12572  1.0000
  H   H3178     1.0  0.54131  0.85362  0.11141  1.0000
  C   C1869     1.0  0.58175  0.84616  0.11765  1.0000
  H   H3179     1.0  0.90848  0.95743  0.16732  1.0000
  C   C1870     1.0  0.82207  0.89953  0.09811  1.0000
  C   C1871     1.0  0.55754  0.74769  0.12554  1.0000
  H   H3180     1.0  0.58382  0.72425  0.12247  1.0000
  C   C1872     1.0  0.66196  0.93443  0.02506  1.0000
  C   C1873     1.0  0.55023  0.89719  0.12607  1.0000
  H   H3181     1.0  0.54259  0.72338  0.01140  1.0000
  C   C1874     1.0  0.53023  0.95295  0.16093  1.0000
  C   C1875     1.0  0.52497  0.94713  0.18133  1.0000
  H   H3182     1.0  0.59824  0.84356  0.11299  1.0000
  C   C1876     1.0  0.72314  0.93268  0.17111  1.0000
  H   H3183     1.0  0.80568  0.89839  0.10003  1.0000
  H   H3184     1.0  0.95007  0.90173  0.17245  1.0000
  H   H3185     1.0  0.75573  0.95643  0.16576  1.0000
  C   C1877     1.0  0.52402  0.87047  0.15412  1.0000
  C   C1878     1.0  0.50526  0.93395  0.15296  1.0000
  H   H3186     1.0  0.53394  0.90311  0.12698  1.0000
  H   H3187     1.0  0.55589  0.76378  0.12756  1.0000
  H   H3188     1.0  0.62583  0.91608  0.00997  1.0000
  H   H3189     1.0  0.82934  0.88820  0.08833  1.0000
  H   H3190     1.0  0.53532  0.71716  0.18454  1.0000
  C   C1879     1.0  0.52193  0.74477  0.13484  1.0000
  C   C1880     1.0  0.93464  0.96001  0.19236  1.0000
  C   C1881     1.0  0.91959  0.94387  0.16985  1.0000
  C   C1882     1.0  0.65588  0.96270  0.13483  1.0000
  S   S544      1.0  0.98576  0.81113  0.16498  1.0000
  H   H3191     1.0  0.66529  0.96125  0.12078  1.0000
  H   H3192     1.0  0.58217  0.87760  0.10726  1.0000
  H   H3193     1.0  0.52121  0.88632  0.15690  1.0000
  H   H3194     1.0  0.54813  0.89410  0.08564  1.0000
  S   S545      1.0  0.53640  0.95553  0.19964  1.0000
  C   C1883     1.0  0.51010  0.93445  0.18744  1.0000
  C   C1884     1.0  0.57567  0.86830  0.12080  1.0000
  H   H3195     1.0  0.92919  0.66574  0.01740  1.0000
  H   H3196     1.0  0.92228  0.97264  0.19067  1.0000
  H   H3197     1.0  0.87753  0.65516  0.14727  1.0000
  H   H3198     1.0  0.66602  0.89391  0.03542  1.0000
  H   H3199     1.0  0.73026  0.93838  0.18240  1.0000
  C   C1885     1.0  0.52039  0.94637  0.14678  1.0000
  H   H3200     1.0  0.95247  0.92457  0.19288  1.0000
  C   C1886     1.0  0.98588  0.73094  0.12016  1.0000
  H   H3201     1.0  0.69735  0.96130  0.18534  1.0000
  H   H3202     1.0  0.52860  0.74239  0.19053  1.0000
  H   H3203     1.0  0.64121  0.89394  0.01973  1.0000
  C   C1887     1.0  0.70955  0.98139  0.00581  1.0000
  H   H3204     1.0  0.52096  0.74252  0.11916  1.0000
  C   C1888     1.0  0.52481  0.77760  0.00199  1.0000
  H   H3205     1.0  0.91995  0.91574  0.19087  1.0000
  N   N135      1.0  0.54268  0.73675  0.14027  1.0000
  H   H3206     1.0  0.54743  0.84769  0.14504  1.0000
  C   C1889     1.0  0.72848  0.97863  0.16499  1.0000
  C   C1890     1.0  0.54612  0.86403  0.14576  1.0000
  H   H3207     1.0  0.55214  0.71266  0.12202  1.0000
  H   H3208     1.0  0.68400  0.96016  0.16521  1.0000
  H   H3209     1.0  0.55086  0.90004  0.15795  1.0000
  N   N136      1.0  0.93918  0.94962  0.17375  1.0000
  C   C1891     1.0  0.54433  0.85098  0.00759  1.0000
  C   C1892     1.0  0.93245  0.66982  0.00105  1.0000
  H   H3210     1.0  0.72375  0.97390  0.99946  1.0000
  C   C1893     1.0  0.50783  0.78292  0.99192  1.0000
  H   H3211     1.0  0.69635  0.97515  0.13099  1.0000
  H   H3212     1.0  0.99047  0.67255  0.01871  1.0000
  H   H3213     1.0  0.52617  0.70192  0.05030  1.0000
  Fe  Fe270     1.0  0.55150  0.98378  0.19253  1.0000
  H   H3214     1.0  0.66609  0.90744  0.98525  1.0000
  H   H3215     1.0  0.53682  0.76661  0.99660  1.0000
  H   H3216     1.0  0.54805  0.85241  0.02264  1.0000
  C   C1894     1.0  0.50360  0.71365  0.99512  1.0000
  H   H3217     1.0  0.67799  0.87783  0.00364  1.0000
  H   H3218     1.0  0.49899  0.73759  0.01295  1.0000
  H   H3219     1.0  0.73404  0.96819  0.11586  1.0000
  H   H3220     1.0  0.70147  0.92732  0.01000  1.0000
  C   C1895     1.0  0.98332  0.75197  0.11867  1.0000
  H   H3221     1.0  0.50738  0.74212  0.05570  1.0000
  H   H3222     1.0  0.90097  0.96960  0.22897  1.0000
  H   H3223     1.0  0.70287  0.88437  0.00476  1.0000
  H   H3224     1.0  0.51467  0.73366  0.17464  1.0000
  H   H3225     1.0  0.58758  0.79998  0.99804  1.0000
  H   H3226     1.0  0.69790  0.91523  0.98961  1.0000
  C   C1896     1.0  0.49192  0.74090  0.05300  1.0000
  H   H3227     1.0  0.55763  0.79688  0.98448  1.0000
  C   C1897     1.0  0.70855  0.98129  0.13655  1.0000
  H   H3228     1.0  0.49101  0.97693  0.12905  1.0000
  C   C1898     1.0  0.65775  0.91555  0.99764  1.0000
  H   H3229     1.0  0.49566  0.70116  0.99293  1.0000
  H   H3230     1.0  0.92015  0.66667  0.99337  1.0000
  C   C1899     1.0  0.69025  0.92601  0.99994  1.0000
  Fe  Fe271     1.0  0.93051  0.65378  0.06516  1.0000
  H   H3231     1.0  0.88247  0.65636  0.10148  1.0000
  H   H3232     1.0  0.90196  0.65512  0.13217  1.0000
  H   H3233     1.0  0.52197  0.91511  0.23166  1.0000
  Fe  Fe272     1.0  0.54584  0.68999  0.40407  1.0000
  H   H3234     1.0  0.59427  0.96321  0.24991  1.0000
  S   S546      1.0  0.54525  0.72239  0.40886  1.0000
  H   H3235     1.0  0.55426  0.86655  0.40397  1.0000
  H   H3236     1.0  0.51281  0.84469  0.44063  1.0000
  C   C1900     1.0  0.97941  0.96833  0.32265  1.0000
  N   N137      1.0  0.68995  0.98252  0.42308  1.0000
  Fe  Fe273     1.0  0.66403  0.95916  0.36030  1.0000
  S   S547      1.0  0.64049  0.94928  0.38506  1.0000
  S   S548      1.0  0.69723  0.96015  0.36168  1.0000
  Fe  Fe274     1.0  0.62489  0.94061  0.36104  1.0000
  S   S549      1.0  0.61334  0.91067  0.36209  1.0000
  S   S550      1.0  0.65015  0.94778  0.33687  1.0000
  Fe  Fe275     1.0  0.51728  0.82633  0.34110  1.0000
  S   S551      1.0  0.50574  0.84416  0.36669  1.0000
  S   S552      1.0  0.53624  0.79592  0.34023  1.0000
  C   C1901     1.0  0.52129  0.90745  0.24729  1.0000
  H   H3237     1.0  0.51273  0.94723  0.23941  1.0000
  H   H3238     1.0  0.61013  0.74017  0.40444  1.0000
  Fe  Fe276     1.0  0.51298  0.87109  0.34468  1.0000
  S   S553      1.0  0.52427  0.89895  0.35131  1.0000
  C   C1902     1.0  0.51576  0.94246  0.25512  1.0000
  S   S554      1.0  0.52697  0.85295  0.32021  1.0000
  H   H3239     1.0  0.54261  0.88613  0.26372  1.0000
  Fe  Fe277     1.0  0.96271  0.78408  0.38716  1.0000
  S   S555      1.0  0.93871  0.76416  0.39679  1.0000
  S   S556      1.0  0.96568  0.80180  0.35662  1.0000
  Fe  Fe278     1.0  0.97516  0.77984  0.42881  1.0000
  S   S557      1.0  0.95144  0.76006  0.44202  1.0000
  Fe  Fe279     1.0  0.96130  0.74449  0.41441  1.0000
  S   S558      1.0  0.96688  0.71037  0.41802  1.0000
  Fe  Fe280     1.0  0.93080  0.78159  0.42313  1.0000
  S   S559      1.0  0.89727  0.79259  0.42808  1.0000
  H   H3240     1.0  0.53217  0.91176  0.28360  1.0000
  S   S560      1.0  0.95373  0.80250  0.41238  1.0000
  Fe  Fe281     1.0  0.79186  0.91014  0.41258  1.0000
  S   S561      1.0  0.80228  0.93951  0.39923  1.0000
  S   S562      1.0  0.76118  0.90168  0.40982  1.0000
  Fe  Fe282     1.0  0.83029  0.89616  0.43307  1.0000
  S   S563      1.0  0.84282  0.92494  0.42156  1.0000
  S   S564      1.0  0.85107  0.87554  0.45269  1.0000
  Fe  Fe283     1.0  0.81170  0.94018  0.42943  1.0000
  Fe  Fe284     1.0  0.83239  0.92125  0.39277  1.0000
  S   S565      1.0  0.85423  0.92434  0.36461  1.0000
  S   S566      1.0  0.79961  0.91175  0.44327  1.0000
  S   S567      1.0  0.82151  0.89158  0.40373  1.0000
  H   H3241     1.0  0.98785  0.79782  0.25688  1.0000
  C   C1903     1.0  0.97347  0.69683  0.39724  1.0000
  C   C1904     1.0  0.70347  0.97060  0.43745  1.0000
  C   C1905     1.0  0.55029  0.90375  0.40920  1.0000
  H   H3242     1.0  0.73135  0.95639  0.42147  1.0000
  H   H3243     1.0  0.57121  0.95342  0.27937  1.0000
  H   H3244     1.0  0.52643  0.90534  0.39106  1.0000
  H   H3245     1.0  0.49506  0.79026  0.36938  1.0000
  H   H3246     1.0  0.49959  0.73343  0.40582  1.0000
  H   H3247     1.0  0.62500  0.90295  0.30309  1.0000
  H   H3248     1.0  0.96096  0.85840  0.37544  1.0000
  C   C1906     1.0  0.88549  0.81638  0.43397  1.0000
  C   C1907     1.0  0.86604  0.82310  0.42888  1.0000
  C   C1908     1.0  0.85564  0.84147  0.43401  1.0000
  C   C1909     1.0  0.86437  0.85309  0.44478  1.0000
  C   C1910     1.0  0.88379  0.84636  0.45000  1.0000
  C   C1911     1.0  0.89447  0.82825  0.44431  1.0000
  H   H3249     1.0  0.85887  0.81390  0.42112  1.0000
  H   H3250     1.0  0.84058  0.84630  0.43021  1.0000
  C   C1912     1.0  0.52363  0.66184  0.30205  1.0000
  C   C1913     1.0  0.54281  0.89760  0.25033  1.0000
  C   C1914     1.0  0.97658  0.81172  0.29175  1.0000
  S   S568      1.0  0.55371  0.67759  0.37474  1.0000
  C   C1915     1.0  0.88199  0.95007  0.35013  1.0000
  C   C1916     1.0  0.86491  0.94635  0.36371  1.0000
  C   C1917     1.0  0.52445  0.87420  0.43555  1.0000
  H   H3251     1.0  0.88892  0.93908  0.34041  1.0000
  C   C1918     1.0  0.71472  0.94315  0.37473  1.0000
  C   C1919     1.0  0.73413  0.94825  0.37430  1.0000
  C   C1920     1.0  0.74845  0.93570  0.38494  1.0000
  C   C1921     1.0  0.74357  0.91776  0.39604  1.0000
  C   C1922     1.0  0.72418  0.91253  0.39634  1.0000
  C   C1923     1.0  0.70976  0.92520  0.38581  1.0000
  H   H3252     1.0  0.73812  0.96206  0.36572  1.0000
  H   H3253     1.0  0.76328  0.93987  0.38445  1.0000
  H   H3254     1.0  0.72030  0.89864  0.40484  1.0000
  H   H3255     1.0  0.69488  0.92108  0.38623  1.0000
  C   C1924     1.0  0.58871  0.90785  0.35823  1.0000
  C   C1925     1.0  0.57330  0.92392  0.35797  1.0000
  C   C1926     1.0  0.55375  0.92096  0.35545  1.0000
  C   C1927     1.0  0.54945  0.90201  0.35292  1.0000
  C   C1928     1.0  0.56492  0.88599  0.35282  1.0000
  C   C1929     1.0  0.58443  0.88889  0.35564  1.0000
  H   H3256     1.0  0.57637  0.93854  0.36009  1.0000
  H   H3257     1.0  0.54183  0.93342  0.35567  1.0000
  H   H3258     1.0  0.56182  0.87132  0.35090  1.0000
  H   H3259     1.0  0.59629  0.87638  0.35582  1.0000
  H   H3260     1.0  0.61813  0.67690  0.37292  1.0000
  C   C1930     1.0  0.54190  0.74262  0.38969  1.0000
  C   C1931     1.0  0.54401  0.73964  0.36959  1.0000
  C   C1932     1.0  0.54225  0.75615  0.35464  1.0000
  C   C1933     1.0  0.53772  0.77573  0.35967  1.0000
  C   C1934     1.0  0.53520  0.77871  0.37981  1.0000
  C   C1935     1.0  0.53750  0.76221  0.39473  1.0000
  H   H3261     1.0  0.54723  0.72465  0.36550  1.0000
  H   H3262     1.0  0.54429  0.75376  0.33908  1.0000
  H   H3263     1.0  0.53200  0.79374  0.38382  1.0000
  H   H3264     1.0  0.53591  0.76462  0.41026  1.0000
  H   H3265     1.0  0.87312  0.95398  0.30503  1.0000
  C   C1936     1.0  0.98251  0.66451  0.38453  1.0000
  H   H3266     1.0  0.51852  0.91119  0.41567  1.0000
  C   C1937     1.0  0.61518  0.94426  0.26948  1.0000
  H   H3267     1.0  0.88623  0.98190  0.40972  1.0000
  H   H3268     1.0  0.83914  0.96245  0.31255  1.0000
  C   C1938     1.0  0.92282  0.68138  0.37426  1.0000
  C   C1939     1.0  0.50765  0.66171  0.47406  1.0000
  C   C1940     1.0  0.71696  0.95218  0.42993  1.0000
  H   H3269     1.0  0.85300  0.91943  0.46627  1.0000
  H   H3270     1.0  0.97647  0.77424  0.47803  1.0000
  H   H3271     1.0  0.85035  0.97105  0.33105  1.0000
  H   H3272     1.0  0.98063  0.83747  0.33673  1.0000
  Fe  Fe285     1.0  0.52682  0.66133  0.38473  1.0000
  H   H3273     1.0  0.57487  0.89528  0.29515  1.0000
  H   H3274     1.0  0.54924  0.88960  0.23729  1.0000
  H   H3275     1.0  0.60039  0.92993  0.31913  1.0000
  H   H3276     1.0  0.90678  0.67941  0.37882  1.0000
  H   H3277     1.0  0.54443  0.93792  0.26842  1.0000
  C   C1941     1.0  0.83811  0.96840  0.45993  1.0000
  H   H3278     1.0  0.54681  0.83493  0.39487  1.0000
  H   H3279     1.0  0.69492  0.96590  0.45221  1.0000
  H   H3280     1.0  0.66389  0.97945  0.40917  1.0000
  H   H3281     1.0  0.65410  0.94918  0.42812  1.0000
  Fe  Fe286     1.0  0.62384  0.97987  0.37760  1.0000
  H   H3282     1.0  0.90931  0.82310  0.44856  1.0000
  S   S569      1.0  0.49773  0.86316  0.27651  1.0000
  C   C1942     1.0  0.99062  0.85555  0.38472  1.0000
  C   C1943     1.0  0.57218  0.95777  0.30995  1.0000
  Fe  Fe287     1.0  0.49612  0.85713  0.31048  1.0000
  H   H3283     1.0  0.64180  0.92187  0.29439  1.0000
  N   N138      1.0  0.88873  0.86134  0.37680  1.0000
  C   C1944     1.0  0.86600  0.86395  0.37907  1.0000
  C   C1945     1.0  0.89475  0.86742  0.39526  1.0000
  C   C1946     1.0  0.89588  0.83939  0.37590  1.0000
  C   C1947     1.0  0.89619  0.87395  0.35780  1.0000
  C   C1948     1.0  0.85640  0.85626  0.36297  1.0000
  C   C1949     1.0  0.88592  0.88862  0.40003  1.0000
  C   C1950     1.0  0.91859  0.83257  0.37578  1.0000
  C   C1951     1.0  0.91735  0.88038  0.35645  1.0000
  H   H3284     1.0  0.85977  0.85649  0.39385  1.0000
  H   H3285     1.0  0.85982  0.88003  0.37876  1.0000
  H   H3286     1.0  0.91124  0.86642  0.39476  1.0000
  H   H3287     1.0  0.89017  0.85682  0.40855  1.0000
  H   H3288     1.0  0.88812  0.83020  0.38882  1.0000
  H   H3289     1.0  0.89198  0.83453  0.36223  1.0000
  H   H3290     1.0  0.89595  0.86621  0.34454  1.0000
  H   H3291     1.0  0.88580  0.88819  0.35565  1.0000
  H   H3292     1.0  0.86239  0.86228  0.34761  1.0000
  H   H3293     1.0  0.85816  0.83968  0.36467  1.0000
  H   H3294     1.0  0.83995  0.86136  0.36493  1.0000
  H   H3295     1.0  0.88774  0.90008  0.38681  1.0000
  H   H3296     1.0  0.86977  0.88919  0.40615  1.0000
  H   H3297     1.0  0.89369  0.89265  0.41186  1.0000
  H   H3298     1.0  0.92732  0.83833  0.36160  1.0000
  H   H3299     1.0  0.92122  0.81599  0.37661  1.0000
  H   H3300     1.0  0.92453  0.83619  0.38893  1.0000
  H   H3301     1.0  0.92436  0.88143  0.34060  1.0000
  H   H3302     1.0  0.92793  0.87011  0.36517  1.0000
  H   H3303     1.0  0.91618  0.89572  0.36061  1.0000
  N   N139      1.0  0.60971  0.70449  0.38669  1.0000
  H   H3304     1.0  0.59961  0.69271  0.35042  1.0000
  H   H3305     1.0  0.55121  0.92008  0.40710  1.0000
  C   C1952     1.0  0.98617  0.67411  0.36504  1.0000
  C   C1953     1.0  0.62896  0.71352  0.37958  1.0000
  H   H3306     1.0  0.97257  0.66827  0.41546  1.0000
  H   H3307     1.0  0.53671  0.66588  0.29118  1.0000
  C   C1954     1.0  0.64366  0.70384  0.36299  1.0000
  H   H3308     1.0  0.52036  0.88780  0.44335  1.0000
  H   H3309     1.0  0.49784  0.65646  0.27401  1.0000
  C   C1955     1.0  0.59361  0.71327  0.37364  1.0000
  C   C1956     1.0  0.89010  0.96806  0.34914  1.0000
  H   H3310     1.0  0.96587  0.97585  0.33023  1.0000
  N   N140      1.0  0.52353  0.87934  0.41333  1.0000
  H   H3311     1.0  0.62556  0.72975  0.37423  1.0000
  H   H3312     1.0  0.63775  0.71263  0.39236  1.0000
  H   H3313     1.0  0.50222  0.75586  0.37558  1.0000
  C   C1957     1.0  0.97728  0.70644  0.37776  1.0000
  H   H3314     1.0  0.50555  0.95366  0.26346  1.0000
  H   H3315     1.0  0.61303  0.70321  0.41814  1.0000
  S   S570      1.0  0.60616  0.97046  0.35557  1.0000
  N   N141      1.0  0.60009  0.93785  0.28700  1.0000
  H   H3316     1.0  0.54184  0.83674  0.42096  1.0000
  H   H3317     1.0  0.65146  0.71568  0.35330  1.0000
  C   C1958     1.0  0.59266  0.91927  0.28283  1.0000
  H   H3318     1.0  0.65576  0.69324  0.36958  1.0000
  H   H3319     1.0  0.64078  0.67747  0.40155  1.0000
  H   H3320     1.0  0.71407  0.98006  0.44120  1.0000
  H   H3321     1.0  0.58219  0.96334  0.31883  1.0000
  H   H3322     1.0  0.54718  0.94252  0.24135  1.0000
  H   H3323     1.0  0.94805  0.65648  0.32090  1.0000
  C   C1959     1.0  0.58291  0.95471  0.28881  1.0000
  H   H3324     1.0  0.56666  0.94412  0.31831  1.0000
  C   C1960     1.0  0.60687  0.95084  0.24924  1.0000
  Fe  Fe288     1.0  0.63210  0.97808  0.33249  1.0000
  C   C1961     1.0  0.66487  0.95668  0.43429  1.0000
  H   H3325     1.0  0.61611  0.94811  0.30798  1.0000
  H   H3326     1.0  0.60555  0.90790  0.27856  1.0000
  C   C1962     1.0  0.86414  0.97841  0.37534  1.0000
  C   C1963     1.0  0.60193  0.70944  0.40759  1.0000
  H   H3327     1.0  0.55457  0.89763  0.42418  1.0000
  H   H3328     1.0  0.52136  0.83949  0.40583  1.0000
  H   H3329     1.0  0.53798  0.86968  0.38527  1.0000
  H   H3330     1.0  0.84491  0.95783  0.44973  1.0000
  C   C1964     1.0  0.84977  0.97489  0.47260  1.0000
  H   H3331     1.0  0.85345  0.97580  0.27899  1.0000
  H   H3332     1.0  0.54017  0.86850  0.43845  1.0000
  C   C1965     1.0  0.53761  0.94613  0.25538  1.0000
  S   S571      1.0  0.56481  0.66494  0.42108  1.0000
  H   H3333     1.0  0.84270  0.95789  0.38661  1.0000
  C   C1966     1.0  0.62893  0.91757  0.30540  1.0000
  C   C1967     1.0  0.53862  0.86542  0.40159  1.0000
  H   H3334     1.0  0.90228  0.65505  0.35107  1.0000
  H   H3335     1.0  0.88814  0.96135  0.28213  1.0000
  H   H3336     1.0  0.62243  0.95689  0.27277  1.0000
  C   C1968     1.0  0.59710  0.73190  0.40999  1.0000
  H   H3337     1.0  0.56445  0.91859  0.30352  1.0000
  H   H3338     1.0  0.72031  0.94082  0.44284  1.0000
  C   C1969     1.0  0.99025  0.80715  0.34878  1.0000
  H   H3339     1.0  0.60984  0.71648  0.34317  1.0000
  H   H3340     1.0  0.70965  0.94451  0.42034  1.0000
  H   H3341     1.0  0.57902  0.70802  0.38031  1.0000
  H   H3342     1.0  0.62764  0.93200  0.26672  1.0000
  C   C1970     1.0  0.53669  0.84296  0.40633  1.0000
  S   S572      1.0  0.80227  0.96762  0.44537  1.0000
  H   H3343     1.0  0.98789  0.83248  0.25101  1.0000
  H   H3344     1.0  0.58369  0.71529  0.34456  1.0000
  H   H3345     1.0  0.55897  0.96943  0.30863  1.0000
  H   H3346     1.0  0.97107  0.81208  0.30791  1.0000
  H   H3347     1.0  0.49767  0.86398  0.41250  1.0000
  C   C1971     1.0  0.52875  0.90033  0.40693  1.0000
  H   H3348     1.0  0.86556  0.96915  0.47221  1.0000
  H   H3349     1.0  0.56154  0.89747  0.39743  1.0000
  C   C1972     1.0  0.61255  0.68201  0.38765  1.0000
  H   H3350     1.0  0.51458  0.85517  0.46266  1.0000
  C   C1973     1.0  0.59731  0.70891  0.35178  1.0000
  H   H3351     1.0  0.50983  0.94217  0.29598  1.0000
  H   H3352     1.0  0.59101  0.72984  0.37275  1.0000
  H   H3353     1.0  0.58626  0.90406  0.31353  1.0000
  H   H3354     1.0  0.92342  0.69722  0.36765  1.0000
  C   C1974     1.0  0.50599  0.92669  0.29926  1.0000
  H   H3355     1.0  0.98031  0.94204  0.34454  1.0000
  C   C1975     1.0  0.57879  0.90898  0.29992  1.0000
  C   C1976     1.0  0.51579  0.91376  0.28277  1.0000
  H   H3356     1.0  0.63671  0.69632  0.35298  1.0000
  S   S573      1.0  0.51744  0.67580  0.41267  1.0000
  C   C1977     1.0  0.93320  0.66761  0.35867  1.0000
  C   C1978     1.0  0.61071  0.93410  0.30545  1.0000
  H   H3357     1.0  0.58413  0.92259  0.26973  1.0000
  C   C1979     1.0  0.98697  0.85906  0.42878  1.0000
  H   H3358     1.0  0.81628  0.96801  0.34371  1.0000
  H   H3359     1.0  0.58383  0.73917  0.40271  1.0000
  C   C1980     1.0  0.86037  0.91503  0.48002  1.0000
  H   H3360     1.0  0.58821  0.96930  0.28283  1.0000
  C   C1981     1.0  0.62684  0.67058  0.40235  1.0000
  C   C1982     1.0  0.67585  0.96988  0.41707  1.0000
  H   H3361     1.0  0.67545  0.94469  0.44139  1.0000
  H   H3362     1.0  0.51762  0.67058  0.46379  1.0000
  H   H3363     1.0  0.93094  0.67919  0.38760  1.0000
  H   H3364     1.0  0.89058  0.85516  0.45852  1.0000
  H   H3365     1.0  0.97103  0.79866  0.28743  1.0000
  H   H3366     1.0  0.51136  0.89848  0.28739  1.0000
  C   C1983     1.0  0.97579  0.67582  0.40049  1.0000
  H   H3367     1.0  0.63433  0.91529  0.32029  1.0000
  H   H3368     1.0  0.81343  0.90838  0.48115  1.0000
  C   C1984     1.0  0.83980  0.97598  0.31973  1.0000
  C   C1985     1.0  0.85603  0.96053  0.37630  1.0000
  H   H3369     1.0  0.59781  0.67620  0.39187  1.0000
  H   H3370     1.0  0.59309  0.73342  0.42616  1.0000
  H   H3371     1.0  0.58804  0.70240  0.41355  1.0000
  N   N142      1.0  0.51078  0.92150  0.26194  1.0000
  H   H3372     1.0  0.82174  0.93177  0.47598  1.0000
  C   C1986     1.0  0.87884  0.96705  0.29546  1.0000
  H   H3373     1.0  0.92767  0.67425  0.34425  1.0000
  H   H3374     1.0  0.90336  0.97086  0.33878  1.0000
  H   H3375     1.0  0.49669  0.78290  0.33855  1.0000
  H   H3376     1.0  0.49547  0.78924  0.40340  1.0000
  H   H3377     1.0  0.61903  0.95653  0.23804  1.0000
  H   H3378     1.0  0.51179  0.92008  0.31351  1.0000
  H   H3379     1.0  0.97151  0.83313  0.38118  1.0000
  H   H3380     1.0  0.96132  0.84819  0.40105  1.0000
  H   H3381     1.0  0.50344  0.88086  0.39100  1.0000
  H   H3382     1.0  0.53780  0.96219  0.25661  1.0000
  H   H3383     1.0  0.98358  0.85762  0.27003  1.0000
  H   H3384     1.0  0.68371  0.96001  0.40593  1.0000
  C   C1987     1.0  0.98896  0.97781  0.30498  1.0000
  H   H3385     1.0  0.51265  0.89471  0.24767  1.0000
  H   H3386     1.0  0.60217  0.93816  0.24336  1.0000
  S   S574      1.0  0.50265  0.65908  0.36609  1.0000
  C   C1988     1.0  0.81764  0.97563  0.46054  1.0000
  H   H3387     1.0  0.61912  0.66934  0.41794  1.0000
  H   H3388     1.0  0.71130  0.97783  0.39681  1.0000
  C   C1989     1.0  0.98762  0.94919  0.33073  1.0000
  H   H3389     1.0  0.98609  0.70266  0.34665  1.0000
  C   C1990     1.0  0.51083  0.85889  0.44710  1.0000
  H   H3390     1.0  0.49470  0.86513  0.44824  1.0000
  C   C1991     1.0  0.98341  0.69510  0.36172  1.0000
  H   H3391     1.0  0.97485  0.86807  0.42086  1.0000
  H   H3392     1.0  0.96973  0.82569  0.28354  1.0000
  H   H3393     1.0  0.94946  0.66936  0.35648  1.0000
  C   C1992     1.0  0.50294  0.87877  0.40761  1.0000
  H   H3394     1.0  0.65602  0.96557  0.44572  1.0000
  S   S575      1.0  0.98615  0.76312  0.40239  1.0000
  C   C1993     1.0  0.86180  0.98300  0.28832  1.0000
  H   H3395     1.0  0.88909  0.97333  0.30339  1.0000
  H   H3396     1.0  0.87404  0.90454  0.47589  1.0000
  H   H3397     1.0  0.50967  0.67085  0.29757  1.0000
  H   H3398     1.0  0.55302  0.90849  0.25141  1.0000
  H   H3399     1.0  0.52579  0.66621  0.31662  1.0000
  C   C1994     1.0  0.88110  0.98225  0.36173  1.0000
  H   H3400     1.0  0.97552  0.72261  0.37506  1.0000
  H   H3401     1.0  0.49946  0.86540  0.23419  1.0000
  C   C1995     1.0  0.96999  0.84818  0.38594  1.0000
  H   H3402     1.0  0.63132  0.65506  0.39868  1.0000
  H   H3403     1.0  0.98012  0.85462  0.44435  1.0000
  H   H3404     1.0  0.98370  0.83015  0.42121  1.0000
  H   H3405     1.0  0.98798  0.87136  0.38789  1.0000
  H   H3406     1.0  0.49892  0.75585  0.34213  1.0000
  H   H3407     1.0  0.80680  0.98032  0.32136  1.0000
  C   C1996     1.0  0.81851  0.98025  0.33120  1.0000
  C   C1997     1.0  0.98950  0.77951  0.48196  1.0000
  H   H3408     1.0  0.83601  0.94609  0.49838  1.0000
  H   H3409     1.0  0.84753  0.93131  0.51822  1.0000
  H   H3410     1.0  0.80314  0.87683  0.53216  1.0000
  C   C1998     1.0  0.81808  0.94560  0.52693  1.0000
  C   C1999     1.0  0.83316  0.93479  0.51152  1.0000
  H   H3411     1.0  0.84349  0.89080  0.49100  1.0000
  H   H3412     1.0  0.78581  0.92751  0.50860  1.0000
  C   C2000     1.0  0.81454  0.92170  0.48841  1.0000
  H   H3413     1.0  0.85612  0.89814  0.50927  1.0000
  H   H3414     1.0  0.98243  0.77051  0.51367  1.0000
  H   H3415     1.0  0.80428  0.91193  0.53043  1.0000
  C   C2001     1.0  0.49463  0.67040  0.48938  1.0000
  H   H3416     1.0  0.80283  0.94945  0.52246  1.0000
  N   N143      1.0  0.82754  0.91629  0.50504  1.0000
  H   H3417     1.0  0.82822  0.89924  0.53431  1.0000
  H   H3418     1.0  0.81738  0.93674  0.54197  1.0000
  C   C2002     1.0  0.81097  0.88427  0.51820  1.0000
  C   C2003     1.0  0.79315  0.93249  0.49352  1.0000
  H   H3419     1.0  0.79316  0.94895  0.49157  1.0000
  C   C2004     1.0  0.81778  0.90359  0.52275  1.0000
  H   H3420     1.0  0.80012  0.88738  0.50709  1.0000
  H   H3421     1.0  0.82339  0.95994  0.52836  1.0000
  H   H3422     1.0  0.49463  0.68597  0.49092  1.0000
  H   H3423     1.0  0.82384  0.87334  0.51314  1.0000
  H   H3424     1.0  0.78328  0.92906  0.48315  1.0000
  H   H3425     1.0  0.53350  0.97480  0.57186  1.0000
  C   C2005     1.0  0.84674  0.90410  0.49705  1.0000
  H   H3426     1.0  0.55884  0.97892  0.56151  1.0000
  H   H3427     1.0  0.86552  0.92822  0.48450  1.0000
  C   C2006     1.0  0.52926  0.82490  0.95629  1.0000
  H   H3428     1.0  0.55464  0.85935  0.96343  1.0000
  H   H3429     1.0  0.56496  0.83540  0.93592  1.0000
  H   H3430     1.0  0.51280  0.82432  0.95757  1.0000
  H   H3431     1.0  0.98345  0.96553  0.75938  1.0000
  C   C2007     1.0  0.56644  0.80852  0.97574  1.0000
  H   H3432     1.0  0.51117  0.94677  0.75554  1.0000
  C   C2008     1.0  0.53400  0.83028  0.97612  1.0000
  H   H3433     1.0  0.56743  0.80574  0.95996  1.0000
  H   H3434     1.0  0.95876  0.97729  0.75672  1.0000
  H   H3435     1.0  0.67796  0.94573  0.97457  1.0000
  N   N144      1.0  0.55587  0.82911  0.97889  1.0000
  H   H3436     1.0  0.57971  0.85507  0.93538  1.0000
  C   C2009     1.0  0.51619  0.96996  0.77299  1.0000
  C   C2010     1.0  0.50242  0.95695  0.76593  1.0000
  C   C2011     1.0  0.56564  0.84558  0.96539  1.0000
  C   C2012     1.0  0.57525  0.84105  0.94427  1.0000
  H   H3437     1.0  0.52883  0.95903  0.77831  1.0000
  H   H3438     1.0  0.50801  0.97590  0.78669  1.0000
  H   H3439     1.0  0.58916  0.83025  0.94479  1.0000
  H   H3440     1.0  0.59586  0.79042  0.97480  1.0000
  H   H3441     1.0  0.53265  0.83661  0.94368  1.0000
  H   H3442     1.0  0.50357  0.96573  0.85411  1.0000
  S   S576      1.0  0.50722  0.77313  0.96956  1.0000
  H   H3443     1.0  0.53649  0.80989  0.95292  1.0000
  C   C2013     1.0  0.49776  0.97587  0.84192  1.0000
  C   C2014     1.0  0.97473  0.98006  0.75439  1.0000
  H   H3444     1.0  0.70179  0.95054  0.97948  1.0000
  C   C2015     1.0  0.52735  0.98084  0.73716  1.0000
  H   H3445     1.0  0.59697  0.81628  0.97647  1.0000
  H   H3446     1.0  0.57787  0.85019  0.97231  1.0000
  H   H3447     1.0  0.53780  0.96661  0.73666  1.0000
  H   H3448     1.0  0.98511  0.65482  0.96173  1.0000
  H   H3449     1.0  0.97959  0.98336  0.73822  1.0000
  H   H3450     1.0  0.95405  0.66521  0.97588  1.0000
  H   H3451     1.0  0.55547  0.97634  0.76082  1.0000
  H   H3452     1.0  0.52594  0.84555  0.97754  1.0000
  H   H3453     1.0  0.53827  0.98270  0.79645  1.0000
  H   H3454     1.0  0.49581  0.94735  0.77913  1.0000
  C   C2016     1.0  0.58796  0.80376  0.98159  1.0000
  H   H3455     1.0  0.51320  0.97769  0.73259  1.0000
  H   H3456     1.0  0.50131  0.72545  0.98225  1.0000
