data_image0
_chemical_formula_structural       CH2CFeS2FeS2FeS2FeSFeS3FeS2HFeS2FeSFeSFeS3FeSFeS2FeSFeS3H3C6H9C6H4C7H4C6H4C2HCSC6H6CNC7H15C5H7NH3CHFeCHCH5NC2H2CH3CSHCH7FeH3CH2C2HCH2CH2NHC2HSCH3CHCH2CHSH3CHSC3HCH2CH4CHCHC4H5CH5FeCH3CH3CH6C2H3C5H4NH3NH2C2H2C2H2NCH2CHCH2CH3C2H2CH4CH4CH3SH2CHCNH9CH2FeS2HCHFeS2FeS2FeSFeS3FeS2CFeS2FeSFeSFeS3FeS2FeSFeSFeS3C2HC6H6C3HNC6H3NC6H4C6H4C2H3C6H5FeH10CH2C2H3NHSH3CHSC2SH3C2SNH8CHNC8H21CH3CH2C5H3CH2NC8H14CHCH3NC8H21CH2CHNH5CHCH2SCH2CHC4HCHCFeH6SHCH3CH3C2HCHCHNCH4CH5CH6FeSH2CH2FeSFeS2FeSFeS3FeS2FeS2FeSFeS2HFeS2FeS2FeS2FeSFeS3FeH2NFeS2CH2C6H4CHCH2C6H5CHCHC6H4CNHCHC6H7C6H3C2H8SH3CH2CH2CH2CH5CHNC8H11CHCH2SH4CHCHFeH4CH5C2HCHCH5CH7CH2SCH6CH2C3HCH2C2H2CHCH2NCH2CSCNHC2HSFeCH5C3H7CHCH2CHCH3CHCH2CH4CHCNHC4HSHCH3CH2C3H5CHFeHFeS2FeS2Fe2S3FeS2FeS2FeSFeS2FeS2HFeS2FeS2FeSFeS3NH2SFeS2H2C7H5CH2NC6H4C6HCHCH7C6H4C6H4C2HCH6CH4C2HC2HCHC3HCH5CNH8SH3CH4C2HCHCH8CHC4HC2H2C3HCH4CNC8H20CH4CSH3CHCH15C2NCHC2FeCH6CSH2C2HC2H2CFeH2NHCH9CHCH4C2H2FeH2NCH3FeH3FeS2CHFeS2CHCFeS2FeS2FeSFeS3HFeS2FeS2FeSFeS3HC6H2CH5CNC6H4C6HCH2C6H5C6H4C6H4C6HNHCH5CH4C2H2CH4CH2CHCH2NC2H5C2H3CH5NC8H20CH2C2HCHC2HCH2CH3CH3CH3CH2NC8H20CSHCSHCH3SCH2SH4CH4NH9N2CH2C2H2CFeH2C2HC2H2S2C5H3C2H2Fe2S2H3FeS2HCH2FeS2FeS2FeSFeS3CHCFeS2FeS2FeSFeS3C7H4C3H2CHSCHC6H5C5H9CSHC5H2FeHC6H4C6H3CNHCHCHCH2CNH4CHCH2CH3C2H2CH3CHCHCH2CH4CSCNHCSHCNC3HSH2C2HNCHCH2C2HCH6C2H2SCH9CH6FeH4C2H3C2H4CH2SH4CH8C3HCH5CH2CHC2H4CH6C2H7CH3FeS2HCS2CFeSCHSHCHC6H6C2HSHCH9FeCHCHCHCH4CH2SH2CH3CH5CHNH3CHC2H6CHNH5NH2C2FeHC2HCH2C3SCH3NHC4H2CH4FeHFeS2FeS2HCSHSC2HC8H6C5HCH2FeSH4SC2H5C3H3CH6CHFeCH3NCH2NHCHCH3C3H4CH8NH4CH3CH2CHCHFeS2H2CH2FeS2H2CH4CH2C6H4SH12SNCHC3H8CHC4H3C2HSCH5NH3CHCH4CH2CFeHCH3CHC2HC2H4CH2CHS2H2CH2FeCSC2H3FeH5C2HC6H6NC2H7CH4CHC2HSCH4CNH2CH4CH3CH2CH11CSH6CHCSCHSCHC3HNCFeH4CFeS2FeS2FeSFeS3HNFeSHFeS2FeSFeS3HCHS3FeS2FeCH3C7H4SHC6H2C3H2NCH4C7H4C6H3SHC7H4C6H9NCSHC3HFeH8C2H2SH2NC8H20CH3C2H2CHCH2CHCH9C2HNC8H20C4SCH7CNCHCHCHCH4CHSHCH3FeHC2H3C2H4CHCH3C2H2CHFeS2FeS2FeSFeS3HNFeS2FeS2FeSFeS3HCFeS2H3FeS2CHC6H6C4NCHCH3CH3C6H4C6H3C6H4C6H4CH3C6H3NC8H25CH2SHCH2CH5CNC8H20CHCH2C3H3C3H3CH5CHCH3NC4H4CHSH3C2HSC2H2NHSCHC2H2C2H5FeCHC2HSH11SH6NC2H3CHC5NH3SH5CH4C2H2C2FeH4CHCH2CFeSH2S2HFeS2FeS2FeSFeS3FeSFeS2FeSFeS3FeS2FeSFeSFeHS2HCHC2H2C6H7C6H4CH4C6H4C4H7C6H5C3NC8H20NC3HCH3C2H2FeH2CH3SHCH3CH2NC9H16CH3NH2NH2CH2CH2SH7C2H2SH2CFeH2CH4CH4C2HNC8H20C2H3CH2CHCHCSCH2CHCH6SHSH4C3H2CHC2SH4CSCH2FeS2NFeS2FeS2FeSFeS3FeS2FeSFeSFeS3FeS2FeS2Fe2S3HFeHNHC4HC6H4CSHC6H5CH2C7H4C2FeCHCH4CHC6H5CH2CH2C2H4SH2NC8H29SC5H4CH7C2NC8H20NC8H14CH6SH2CH2C2HCH6CH4CH3CHCNHCHCHCHCH3CHC2HNFeHCH3C2HC3H2CH2CHCH2C2H2FeSFeS2FeSFeS3FeS2FeS2Fe2CS2HCSHFeS2H2FeS2FeS2FeSFeS3C2NH2C6H7C6H11CHCH2C6H4C6H4CHCH4C3H8SHC2H3CNC6H15CH6C2HSH11SHCHCH2CHCH3CH4NC8H12CH8CH5CH2CH3SCHCNC2HC2HCH2NHCH3CH2CH2CH4CH3CH3C3HCHC6NCHCH2CHNHCH2CHC2HSH9CH2FeNH4FeSFeS2FeSFeS3FeS2FeS2FeSFeS2HFeSHCH2FeSHFeS2FeS2FeSFeS3HCH2NC6H4CH2C6H5C3HC3HCHCHC6H4C6H4CH3CH3CHCSH2S2CHCH6CHCHC3H8CH2NC8H20NC7H16CHCHCHSCH2C2H5C2H3C2HNHC3H9CH4CH2CH4CH2CHSH4CH2CHNH7CH2C4HCHSH6CHNCHSH2C2H4CH2CHCH
_chemical_formula_sum              "C1344 H2304 Fe192 S384 N96"
_cell_length_a       57.5624
_cell_length_b       57.4497
_cell_length_c       84.6205
_cell_angle_alpha    91.0688
_cell_angle_beta     90.9155
_cell_angle_gamma    117.549

_space_group_name_H-M_alt    "P 1"
_space_group_IT_number       1

loop_
  _space_group_symop_operation_xyz
  'x, y, z'

loop_
  _atom_site_type_symbol
  _atom_site_label
  _atom_site_symmetry_multiplicity
  _atom_site_fract_x
  _atom_site_fract_y
  _atom_site_fract_z
  _atom_site_occupancy
  C   C1        1.0  0.99870  0.31936  0.11070  1.0000
  H   H1        1.0  0.31662  0.41156  0.10172  1.0000
  H   H2        1.0  0.99601  0.28998  0.20927  1.0000
  C   C2        1.0  0.38820  0.11841  0.99180  1.0000
  Fe  Fe1       1.0  0.19805  0.01735  0.15764  1.0000
  S   S1        1.0  0.17983  0.04517  0.16010  1.0000
  S   S2        1.0  0.24019  0.02814  0.15324  1.0000
  Fe  Fe2       1.0  0.22270  0.25355  0.14418  1.0000
  S   S3        1.0  0.18973  0.21193  0.14132  1.0000
  S   S4        1.0  0.22634  0.28118  0.12359  1.0000
  Fe  Fe3       1.0  0.23276  0.24348  0.17914  1.0000
  S   S5        1.0  0.20101  0.20187  0.17823  1.0000
  S   S6        1.0  0.25644  0.25949  0.20215  1.0000
  Fe  Fe4       1.0  0.21634  0.19912  0.15436  1.0000
  S   S7        1.0  0.22788  0.16766  0.14618  1.0000
  Fe  Fe5       1.0  0.17734  0.21824  0.16549  1.0000
  S   S8        1.0  0.13862  0.21243  0.17550  1.0000
  S   S9        1.0  0.25004  0.24038  0.15587  1.0000
  S   S10       1.0  0.20852  0.26021  0.16773  1.0000
  Fe  Fe6       1.0  0.01109  0.20828  0.14697  1.0000
  S   S11       1.0  0.02503  0.24998  0.15543  1.0000
  S   S12       1.0  0.03795  0.19504  0.13499  1.0000
  H   H3        1.0  0.00456  0.30199  0.01033  1.0000
  Fe  Fe7       1.0  0.31742  0.39607  0.06298  1.0000
  S   S13       1.0  0.28605  0.38631  0.04419  1.0000
  S   S14       1.0  0.31672  0.36875  0.08274  1.0000
  Fe  Fe8       1.0  0.35324  0.45166  0.04934  1.0000
  S   S15       1.0  0.32297  0.44535  0.03013  1.0000
  Fe  Fe9       1.0  0.29192  0.42755  0.04870  1.0000
  S   S16       1.0  0.25800  0.43601  0.05628  1.0000
  Fe  Fe10      1.0  0.31940  0.40456  0.02714  1.0000
  S   S17       1.0  0.31800  0.38702  0.00233  1.0000
  S   S18       1.0  0.32276  0.43683  0.06823  1.0000
  S   S19       1.0  0.35027  0.41121  0.04559  1.0000
  Fe  Fe11      1.0  0.08030  0.44738  0.05017  1.0000
  S   S20       1.0  0.08300  0.42853  0.02698  1.0000
  Fe  Fe12      1.0  0.06818  0.39580  0.06805  1.0000
  S   S21       1.0  0.07008  0.37519  0.04564  1.0000
  S   S22       1.0  0.06659  0.37300  0.09058  1.0000
  Fe  Fe13      1.0  0.10645  0.41259  0.04067  1.0000
  S   S23       1.0  0.14293  0.41176  0.03026  1.0000
  Fe  Fe14      1.0  0.04658  0.39289  0.03401  1.0000
  S   S24       1.0  0.00743  0.36742  0.02053  1.0000
  S   S25       1.0  0.10568  0.43300  0.06336  1.0000
  S   S26       1.0  0.04272  0.41190  0.05681  1.0000
  H   H4        1.0  0.99664  0.29034  0.16576  1.0000
  H   H5        1.0  0.29026  0.27787  0.06496  1.0000
  H   H6        1.0  0.03403  0.29398  0.18211  1.0000
  C   C3        1.0  0.17422  0.41719  0.03813  1.0000
  C   C4        1.0  0.18286  0.42657  0.05363  1.0000
  C   C5        1.0  0.20840  0.43208  0.05892  1.0000
  C   C6        1.0  0.22559  0.42778  0.04898  1.0000
  C   C7        1.0  0.21677  0.41795  0.03358  1.0000
  C   C8        1.0  0.19142  0.41294  0.02819  1.0000
  H   H7        1.0  0.16996  0.42979  0.06152  1.0000
  H   H8        1.0  0.21488  0.43975  0.07083  1.0000
  H   H9        1.0  0.22963  0.41461  0.02571  1.0000
  H   H10       1.0  0.18510  0.40573  0.01618  1.0000
  H   H11       1.0  0.08170  0.23132  0.11413  1.0000
  H   H12       1.0  0.43261  0.44396  0.03968  1.0000
  H   H13       1.0  0.01460  0.36010  0.21669  1.0000
  H   H14       1.0  0.33670  0.30017  0.03080  1.0000
  H   H15       1.0  0.27759  0.15483  0.19307  1.0000
  C   C9        1.0  0.00676  0.30319  0.11905  1.0000
  C   C10       1.0  0.03307  0.30861  0.11839  1.0000
  C   C11       1.0  0.05095  0.32990  0.10959  1.0000
  C   C12       1.0  0.04284  0.34589  0.10111  1.0000
  C   C13       1.0  0.01657  0.34053  0.10182  1.0000
  C   C14       1.0  0.99170  0.29784  0.02066  1.0000
  H   H16       1.0  0.03971  0.29658  0.12480  1.0000
  H   H17       1.0  0.07128  0.33401  0.10935  1.0000
  H   H18       1.0  0.01018  0.35312  0.09583  1.0000
  H   H19       1.0  0.40571  0.11289  0.01332  1.0000
  C   C15       1.0  0.24587  0.43624  0.10421  1.0000
  C   C16       1.0  0.11110  0.20764  0.16376  1.0000
  C   C17       1.0  0.10392  0.19209  0.14987  1.0000
  C   C18       1.0  0.08127  0.18809  0.14115  1.0000
  C   C19       1.0  0.06559  0.19934  0.14639  1.0000
  C   C20       1.0  0.07270  0.21471  0.16034  1.0000
  C   C21       1.0  0.09543  0.21892  0.16893  1.0000
  H   H20       1.0  0.11564  0.18293  0.14594  1.0000
  H   H21       1.0  0.07572  0.17602  0.13041  1.0000
  H   H22       1.0  0.06079  0.22355  0.16444  1.0000
  H   H23       1.0  0.10107  0.23126  0.17950  1.0000
  C   C22       1.0  0.25196  0.30496  0.11219  1.0000
  C   C23       1.0  0.27854  0.31460  0.11625  1.0000
  C   C24       1.0  0.29797  0.33402  0.10710  1.0000
  C   C25       1.0  0.29122  0.34411  0.09374  1.0000
  C   C26       1.0  0.26465  0.33420  0.08951  1.0000
  C   C27       1.0  0.24521  0.31496  0.09874  1.0000
  H   H24       1.0  0.28415  0.30720  0.12652  1.0000
  H   H25       1.0  0.31842  0.34134  0.11048  1.0000
  H   H26       1.0  0.25908  0.34123  0.07908  1.0000
  H   H27       1.0  0.22478  0.30756  0.09536  1.0000
  C   C28       1.0  0.15756  0.30373  0.10515  1.0000
  C   C29       1.0  0.23971  0.25434  0.22018  1.0000
  H   H28       1.0  0.17285  0.32062  0.11208  1.0000
  C   C30       1.0  0.33952  0.37732  0.99252  1.0000
  S   S27       1.0  0.98343  0.27737  0.13059  1.0000
  C   C31       1.0  0.19308  0.07897  0.15561  1.0000
  C   C32       1.0  0.21584  0.09186  0.14694  1.0000
  C   C33       1.0  0.22611  0.11895  0.14415  1.0000
  C   C34       1.0  0.21386  0.13352  0.15002  1.0000
  C   C35       1.0  0.19115  0.12063  0.15873  1.0000
  C   C36       1.0  0.18076  0.09350  0.16142  1.0000
  H   H29       1.0  0.22540  0.08093  0.14227  1.0000
  H   H30       1.0  0.24361  0.12869  0.13733  1.0000
  H   H31       1.0  0.18144  0.13150  0.16327  1.0000
  H   H32       1.0  0.16311  0.08371  0.16810  1.0000
  H   H33       1.0  0.20381  0.07075  0.19978  1.0000
  H   H34       1.0  0.23998  0.37572  0.13933  1.0000
  C   C37       1.0  0.26861  0.02110  0.21474  1.0000
  N   N1        1.0  0.14724  0.26584  0.12429  1.0000
  C   C38       1.0  0.16281  0.28565  0.13729  1.0000
  C   C39       1.0  0.15868  0.27804  0.10880  1.0000
  C   C40       1.0  0.15148  0.24208  0.12647  1.0000
  C   C41       1.0  0.11866  0.25892  0.12567  1.0000
  C   C42       1.0  0.15492  0.27711  0.15441  1.0000
  C   C43       1.0  0.13781  0.21912  0.11439  1.0000
  C   C44       1.0  0.10080  0.24756  0.11067  1.0000
  H   H35       1.0  0.18413  0.29151  0.13648  1.0000
  H   H36       1.0  0.16101  0.30399  0.13612  1.0000
  H   H37       1.0  0.14928  0.26440  0.09858  1.0000
  H   H38       1.0  0.17965  0.28235  0.10839  1.0000
  H   H39       1.0  0.17275  0.24782  0.12640  1.0000
  H   H40       1.0  0.14481  0.23349  0.13816  1.0000
  H   H41       1.0  0.10974  0.24467  0.13523  1.0000
  H   H42       1.0  0.11674  0.27664  0.12942  1.0000
  H   H43       1.0  0.13387  0.27072  0.15638  1.0000
  H   H44       1.0  0.15993  0.26149  0.15793  1.0000
  H   H45       1.0  0.16626  0.29407  0.16265  1.0000
  H   H46       1.0  0.14407  0.22472  0.10214  1.0000
  H   H47       1.0  0.11620  0.20998  0.11514  1.0000
  H   H48       1.0  0.14332  0.20352  0.11734  1.0000
  H   H49       1.0  0.10826  0.23926  0.10137  1.0000
  C   C45       1.0  0.23923  0.07113  0.19012  1.0000
  C   C46       1.0  0.27638  0.10936  0.20451  1.0000
  C   C47       1.0  0.21856  0.06414  0.20299  1.0000
  C   C48       1.0  0.29213  0.08948  0.17418  1.0000
  C   C49       1.0  0.28464  0.09003  0.21228  1.0000
  H   H50       1.0  0.24839  0.05808  0.19163  1.0000
  H   H51       1.0  0.22836  0.06456  0.17854  1.0000
  H   H52       1.0  0.26605  0.11457  0.21387  1.0000
  H   H53       1.0  0.27143  0.07961  0.22202  1.0000
  H   H54       1.0  0.20761  0.04245  0.20381  1.0000
  H   H55       1.0  0.33329  0.43802  0.11569  1.0000
  H   H56       1.0  0.34920  0.44397  0.99643  1.0000
  N   N2        1.0  0.41490  0.46270  0.00401  1.0000
  H   H57       1.0  0.06697  0.31147  0.20248  1.0000
  H   H58       1.0  0.29758  0.27256  0.01767  1.0000
  H   H59       1.0  0.28615  0.07561  0.20413  1.0000
  C   C50       1.0  0.33953  0.33813  0.05213  1.0000
  H   H60       1.0  0.24042  0.36321  0.11323  1.0000
  Fe  Fe15      1.0  0.98707  0.24523  0.14475  1.0000
  C   C51       1.0  0.25996  0.38116  0.13509  1.0000
  H   H61       1.0  0.23084  0.02006  0.21652  1.0000
  C   C52       1.0  0.36631  0.34842  0.04417  1.0000
  H   H62       1.0  0.16552  0.46393  0.02077  1.0000
  H   H63       1.0  0.38144  0.36415  0.05191  1.0000
  H   H64       1.0  0.13242  0.47853  0.03601  1.0000
  H   H65       1.0  0.03198  0.35479  0.19218  1.0000
  H   H66       1.0  0.05188  0.31818  0.05568  1.0000
  N   N3        1.0  0.01002  0.31268  0.18797  1.0000
  C   C53       1.0  0.31469  0.41976  0.11328  1.0000
  C   C54       1.0  0.29166  0.42647  0.11313  1.0000
  H   H67       1.0  0.27832  0.39049  0.08807  1.0000
  H   H68       1.0  0.02717  0.17946  0.21981  1.0000
  C   C55       1.0  0.24429  0.41192  0.11259  1.0000
  H   H69       1.0  0.30099  0.09248  0.16234  1.0000
  H   H70       1.0  0.37221  0.11869  0.99894  1.0000
  H   H71       1.0  0.29807  0.25286  0.03390  1.0000
  C   C56       1.0  0.28756  0.32116  0.01887  1.0000
  S   S28       1.0  0.99152  0.19078  0.16949  1.0000
  H   H72       1.0  0.03125  0.28477  0.06160  1.0000
  C   C57       1.0  0.21232  0.24139  0.22045  1.0000
  H   H73       1.0  0.21502  0.17402  0.23348  1.0000
  H   H74       1.0  0.28055  0.06800  0.17536  1.0000
  H   H75       1.0  0.05052  0.32870  0.18083  1.0000
  H   H76       1.0  0.34175  0.32976  0.06345  1.0000
  H   H77       1.0  0.27363  0.30015  0.04548  1.0000
  H   H78       1.0  0.22900  0.43942  0.10770  1.0000
  H   H79       1.0  0.05823  0.33601  0.20886  1.0000
  Fe  Fe16      1.0  0.00224  0.23201  0.17727  1.0000
  H   H80       1.0  0.45193  0.47325  0.01646  1.0000
  H   H81       1.0  0.37643  0.43162  0.00940  1.0000
  H   H82       1.0  0.99699  0.34228  0.05028  1.0000
  C   C58       1.0  0.38656  0.45329  0.00814  1.0000
  H   H83       1.0  0.36658  0.35723  0.03263  1.0000
  H   H84       1.0  0.27462  0.32739  0.02532  1.0000
  C   C59       1.0  0.26488  0.39893  0.09083  1.0000
  C   C60       1.0  0.11683  0.19243  0.21934  1.0000
  H   H85       1.0  0.99814  0.25831  0.04262  1.0000
  C   C61       1.0  0.36135  0.37763  0.00021  1.0000
  H   H86       1.0  0.36575  0.38431  0.01242  1.0000
  H   H87       1.0  0.30864  0.09765  0.18297  1.0000
  C   C62       1.0  0.20775  0.48459  0.02327  1.0000
  H   H88       1.0  0.13806  0.30239  0.10733  1.0000
  H   H89       1.0  0.09601  0.26251  0.10550  1.0000
  N   N4        1.0  0.25921  0.09974  0.18969  1.0000
  H   H90       1.0  0.29455  0.12776  0.20222  1.0000
  C   C63       1.0  0.03616  0.31249  0.18791  1.0000
  C   C64       1.0  0.25554  0.19733  0.22976  1.0000
  H   H91       1.0  0.16177  0.30812  0.09247  1.0000
  S   S29       1.0  0.02237  0.24672  0.20145  1.0000
  C   C65       1.0  0.27541  0.10398  0.17516  1.0000
  H   H92       1.0  0.25256  0.20687  0.21913  1.0000
  H   H93       1.0  0.42971  0.42621  0.02163  1.0000
  H   H94       1.0  0.00747  0.33022  0.14873  1.0000
  C   C66       1.0  0.07284  0.19734  0.23756  1.0000
  H   H95       1.0  0.40152  0.42816  0.02960  1.0000
  C   C67       1.0  0.01873  0.33097  0.15968  1.0000
  H   H96       1.0  0.26668  0.36741  0.14003  1.0000
  H   H97       1.0  0.24510  0.41638  0.12551  1.0000
  C   C68       1.0  0.26057  0.14489  0.18475  1.0000
  H   H98       1.0  0.30585  0.30861  0.07633  1.0000
  S   S30       1.0  0.19653  0.99647  0.18019  1.0000
  H   H99       1.0  0.29717  0.44312  0.10497  1.0000
  H   H100      1.0  0.03499  0.32700  0.15593  1.0000
  H   H101      1.0  0.22436  0.39530  0.11024  1.0000
  C   C69       1.0  0.17338  0.48426  0.05009  1.0000
  H   H102      1.0  0.30717  0.02410  0.21708  1.0000
  S   S31       1.0  0.26992  0.02003  0.19383  1.0000
  C   C70       1.0  0.25411  0.26312  0.23456  1.0000
  C   C71       1.0  0.41209  0.12589  0.00300  1.0000
  C   C72       1.0  0.35334  0.99477  0.00274  1.0000
  H   H103      1.0  0.39439  0.36961  0.99815  1.0000
  C   C73       1.0  0.99573  0.36195  0.00044  1.0000
  H   H104      1.0  0.26253  0.09835  0.16429  1.0000
  H   H105      1.0  0.02238  0.33395  0.22004  1.0000
  C   C74       1.0  0.24751  0.02089  0.22302  1.0000
  H   H106      1.0  0.32099  0.35307  0.02967  1.0000
  H   H107      1.0  0.20101  0.23461  0.20947  1.0000
  H   H108      1.0  0.23311  0.11435  0.19881  1.0000
  H   H109      1.0  0.13651  0.48228  0.00777  1.0000
  C   C75       1.0  0.31999  0.29492  0.03884  1.0000
  H   H110      1.0  0.28963  0.12505  0.17405  1.0000
  C   C76       1.0  0.03734  0.30569  0.06432  1.0000
  H   H111      1.0  0.03963  0.25299  0.23399  1.0000
  C   C77       1.0  0.01262  0.33820  0.19498  1.0000
  C   C78       1.0  0.00487  0.24107  0.21923  1.0000
  C   C79       1.0  0.00915  0.30788  0.03584  1.0000
  C   C80       1.0  0.06324  0.21444  0.21280  1.0000
  H   H112      1.0  0.10919  0.25948  0.20457  1.0000
  H   H113      1.0  0.07088  0.22295  0.20116  1.0000
  H   H114      1.0  0.29022  0.32981  0.00698  1.0000
  H   H115      1.0  0.27761  0.29963  0.01700  1.0000
  H   H116      1.0  0.21010  0.47430  0.01264  1.0000
  C   C81       1.0  0.24424  0.11538  0.18799  1.0000
  H   H117      1.0  0.37246  0.33284  0.04275  1.0000
  H   H118      1.0  0.27530  0.27326  0.23445  1.0000
  H   H119      1.0  0.09915  0.25024  0.23265  1.0000
  H   H120      1.0  0.24471  0.43379  0.09116  1.0000
  H   H121      1.0  0.22920  0.10689  0.17832  1.0000
  Fe  Fe17      1.0  0.23745  0.00503  0.17501  1.0000
  C   C82       1.0  0.37761  0.36937  0.99205  1.0000
  H   H122      1.0  0.27365  0.40076  0.14013  1.0000
  H   H123      1.0  0.27370  0.37183  0.11334  1.0000
  H   H124      1.0  0.02398  0.19447  0.20227  1.0000
  C   C83       1.0  0.03750  0.18918  0.20903  1.0000
  H   H125      1.0  0.22752  0.07235  0.21479  1.0000
  H   H126      1.0  0.29113  0.33042  0.05570  1.0000
  H   H127      1.0  0.02260  0.32915  0.03447  1.0000
  C   C84       1.0  0.18104  0.48471  0.02189  1.0000
  H   H128      1.0  0.30435  0.10138  0.21801  1.0000
  H   H129      1.0  0.26397  0.45431  0.10774  1.0000
  H   H130      1.0  0.05817  0.22890  0.21870  1.0000
  H   H131      1.0  0.03750  0.30148  0.21285  1.0000
  H   H132      1.0  0.26712  0.14801  0.17234  1.0000
  H   H133      1.0  0.41053  0.42390  0.99829  1.0000
  C   C85       1.0  0.29024  0.29687  0.06744  1.0000
  C   C86       1.0  0.19949  0.23738  0.23493  1.0000
  H   H134      1.0  0.04075  0.17510  0.20141  1.0000
  H   H135      1.0  0.00382  0.30334  0.07626  1.0000
  H   H136      1.0  0.27266  0.41752  0.08430  1.0000
  C   C87       1.0  0.29060  0.02346  0.22329  1.0000
  C   C88       1.0  0.05007  0.31556  0.20409  1.0000
  C   C89       1.0  0.00043  0.30981  0.17095  1.0000
  C   C90       1.0  0.36652  0.01931  0.99546  1.0000
  C   C91       1.0  0.29216  0.31209  0.05225  1.0000
  H   H137      1.0  0.32834  0.33094  0.01856  1.0000
  H   H138      1.0  0.42045  0.14629  0.00782  1.0000
  H   H139      1.0  0.24794  0.15469  0.18611  1.0000
  H   H140      1.0  0.35067  0.99393  0.01539  1.0000
  N   N5        1.0  0.08374  0.21097  0.22233  1.0000
  H   H141      1.0  0.17831  0.22740  0.23499  1.0000
  H   H142      1.0  0.27743  0.26769  0.03474  1.0000
  H   H143      1.0  0.16288  0.48059  0.07482  1.0000
  N   N6        1.0  0.31602  0.31861  0.04248  1.0000
  H   H144      1.0  0.24095  0.37736  0.07031  1.0000
  H   H145      1.0  0.22420  0.38875  0.08325  1.0000
  C   C92       1.0  0.23802  0.38026  0.08301  1.0000
  C   C93       1.0  0.41778  0.44340  0.99289  1.0000
  H   H146      1.0  0.29137  0.43506  0.12497  1.0000
  H   H147      1.0  0.33700  0.35562  0.05552  1.0000
  C   C94       1.0  0.25992  0.37947  0.11684  1.0000
  C   C95       1.0  0.42287  0.43907  0.02776  1.0000
  H   H148      1.0  0.27135  0.29218  0.07311  1.0000
  H   H149      1.0  0.37386  0.03719  0.00263  1.0000
  N   N7        1.0  0.26516  0.40420  0.10839  1.0000
  C   C96       1.0  0.00949  0.33957  0.21305  1.0000
  H   H150      1.0  0.02207  0.29841  0.03554  1.0000
  H   H151      1.0  0.32632  0.28821  0.04959  1.0000
  C   C97       1.0  0.31457  0.33173  0.02740  1.0000
  H   H152      1.0  0.98896  0.32722  0.21652  1.0000
  C   C98       1.0  0.09266  0.19436  0.21269  1.0000
  H   H153      1.0  0.31297  0.40598  0.12274  1.0000
  H   H154      1.0  0.22891  0.36060  0.08823  1.0000
  C   C99       1.0  0.29686  0.27097  0.03074  1.0000
  H   H155      1.0  0.12060  0.17882  0.21154  1.0000
  H   H156      1.0  0.38543  0.46165  0.01989  1.0000
  H   H157      1.0  0.15953  0.46296  0.04828  1.0000
  C   C100      1.0  0.01870  0.24621  0.23379  1.0000
  C   C101      1.0  0.43063  0.46481  0.01894  1.0000
  H   H158      1.0  0.12973  0.24325  0.20480  1.0000
  H   H159      1.0  0.02334  0.33376  0.06730  1.0000
  C   C102      1.0  0.01412  0.31205  0.06519  1.0000
  H   H160      1.0  0.99786  0.34330  0.18953  1.0000
  H   H161      1.0  0.36791  0.47767  0.00136  1.0000
  H   H162      1.0  0.02668  0.35116  0.16481  1.0000
  H   H163      1.0  0.09708  0.20145  0.20043  1.0000
  C   C103      1.0  0.10622  0.23769  0.22631  1.0000
  H   H164      1.0  0.98891  0.25018  0.06290  1.0000
  H   H165      1.0  0.07670  0.17383  0.21128  1.0000
  H   H166      1.0  0.11383  0.18453  0.23139  1.0000
  H   H167      1.0  0.04783  0.31049  0.07601  1.0000
  C   C104      1.0  0.36956  0.46029  0.99673  1.0000
  H   H168      1.0  0.42904  0.47860  0.02771  1.0000
  H   H169      1.0  0.25714  0.17976  0.22547  1.0000
  H   H170      1.0  0.27435  0.21148  0.23543  1.0000
  S   S32       1.0  0.39661  0.48426  0.05084  1.0000
  H   H171      1.0  0.43205  0.00307  0.99933  1.0000
  H   H172      1.0  0.43888  0.44997  0.99052  1.0000
  C   C105      1.0  0.12146  0.25367  0.21212  1.0000
  H   H173      1.0  0.19264  0.48534  0.05335  1.0000
  C   C106      1.0  0.99075  0.28896  0.19651  1.0000
  N   N8        1.0  0.99494  0.30368  0.05121  1.0000
  H   H174      1.0  0.99128  0.27097  0.19191  1.0000
  H   H175      1.0  0.05861  0.17630  0.23527  1.0000
  H   H176      1.0  0.12059  0.23619  0.23468  1.0000
  H   H177      1.0  0.42369  0.00373  0.02492  1.0000
  H   H178      1.0  0.20907  0.47352  0.03353  1.0000
  H   H179      1.0  0.13484  0.21155  0.21931  1.0000
  H   H180      1.0  0.13833  0.27212  0.21666  1.0000
  H   H181      1.0  0.42733  0.12223  0.99727  1.0000
  H   H182      1.0  0.03301  0.38526  0.99003  1.0000
  C   C107      1.0  0.24838  0.02231  0.23981  1.0000
  H   H183      1.0  0.41807  0.17173  0.98985  1.0000
  H   H184      1.0  0.38479  0.16345  0.98997  1.0000
  Fe  Fe18      1.0  0.20660  0.03166  0.30492  1.0000
  S   S33       1.0  0.24742  0.03749  0.31057  1.0000
  S   S34       1.0  0.19020  0.06134  0.30596  1.0000
  H   H185      1.0  0.22743  0.20636  0.24122  1.0000
  C   C108      1.0  0.39329  0.13352  0.46259  1.0000
  H   H186      1.0  0.37359  0.12564  0.45674  1.0000
  Fe  Fe19      1.0  0.24154  0.27194  0.32326  1.0000
  S   S35       1.0  0.22359  0.23510  0.33724  1.0000
  S   S36       1.0  0.26874  0.31383  0.33284  1.0000
  Fe  Fe20      1.0  0.21173  0.24242  0.29243  1.0000
  S   S37       1.0  0.19148  0.20380  0.30455  1.0000
  S   S38       1.0  0.19641  0.23964  0.26710  1.0000
  Fe  Fe21      1.0  0.18596  0.22700  0.32441  1.0000
  S   S39       1.0  0.14764  0.21228  0.33711  1.0000
  Fe  Fe22      1.0  0.23051  0.21473  0.31604  1.0000
  S   S40       1.0  0.24722  0.18570  0.31823  1.0000
  S   S41       1.0  0.20317  0.26485  0.31163  1.0000
  S   S42       1.0  0.25158  0.25233  0.30279  1.0000
  Fe  Fe23      1.0  0.02072  0.21379  0.30215  1.0000
  S   S43       1.0  0.01508  0.25001  0.30217  1.0000
  S   S44       1.0  0.05969  0.21833  0.29386  1.0000
  C   C109      1.0  0.14036  0.30065  0.33723  1.0000
  Fe  Fe24      1.0  0.32989  0.40405  0.41375  1.0000
  S   S45       1.0  0.30554  0.40505  0.43406  1.0000
  S   S46       1.0  0.31171  0.36255  0.40243  1.0000
  Fe  Fe25      1.0  0.37271  0.46199  0.42136  1.0000
  S   S47       1.0  0.34956  0.46579  0.44158  1.0000
  Fe  Fe26      1.0  0.34369  0.42541  0.44812  1.0000
  S   S48       1.0  0.34888  0.41530  0.47367  1.0000
  Fe  Fe27      1.0  0.31331  0.44464  0.42557  1.0000
  S   S49       1.0  0.28122  0.45680  0.41960  1.0000
  S   S50       1.0  0.36750  0.42197  0.42849  1.0000
  S   S51       1.0  0.33696  0.44334  0.40473  1.0000
  Fe  Fe28      1.0  0.07354  0.39480  0.40249  1.0000
  S   S52       1.0  0.08650  0.38228  0.42452  1.0000
  S   S53       1.0  0.06249  0.37165  0.37846  1.0000
  Fe  Fe29      1.0  0.08822  0.45015  0.41744  1.0000
  S   S54       1.0  0.10294  0.44057  0.44002  1.0000
  Fe  Fe30      1.0  0.12238  0.42194  0.42489  1.0000
  S   S55       1.0  0.15900  0.41767  0.43295  1.0000
  Fe  Fe31      1.0  0.06649  0.40148  0.43846  1.0000
  S   S56       1.0  0.04925  0.38596  0.46284  1.0000
  S   S57       1.0  0.11017  0.43414  0.40222  1.0000
  S   S58       1.0  0.05080  0.41136  0.41636  1.0000
  C   C110      1.0  0.01796  0.37446  0.47167  1.0000
  C   C111      1.0  0.36735  0.40037  0.48190  1.0000
  H   H187      1.0  0.40710  0.00563  0.48387  1.0000
  C   C112      1.0  0.24720  0.44543  0.42351  1.0000
  C   C113      1.0  0.23293  0.42391  0.43296  1.0000
  C   C114      1.0  0.20606  0.41571  0.43559  1.0000
  C   C115      1.0  0.19284  0.42862  0.42869  1.0000
  C   C116      1.0  0.20703  0.44990  0.41907  1.0000
  C   C117      1.0  0.23399  0.45832  0.41662  1.0000
  H   H188      1.0  0.24267  0.41375  0.43838  1.0000
  H   H189      1.0  0.19542  0.39925  0.44306  1.0000
  H   H190      1.0  0.19735  0.46019  0.41371  1.0000
  H   H191      1.0  0.36452  0.02185  0.40937  1.0000
  H   H192      1.0  0.31373  0.01902  0.43863  1.0000
  H   H193      1.0  0.34400  0.31861  0.48378  1.0000
  C   C118      1.0  0.27265  0.22318  0.26761  1.0000
  C   C119      1.0  0.27052  0.02428  0.24824  1.0000
  C   C120      1.0  0.44275  0.13783  0.47830  1.0000
  H   H194      1.0  0.46701  0.48517  0.48356  1.0000
  N   N9        1.0  0.09085  0.28731  0.33762  1.0000
  C   C121      1.0  0.01589  0.28706  0.35680  1.0000
  C   C122      1.0  0.01703  0.29152  0.37330  1.0000
  C   C123      1.0  0.03124  0.31707  0.38017  1.0000
  C   C124      1.0  0.04449  0.33871  0.37061  1.0000
  C   C125      1.0  0.04353  0.33419  0.35410  1.0000
  C   C126      1.0  0.02941  0.30862  0.34723  1.0000
  H   H195      1.0  0.03170  0.32010  0.39285  1.0000
  H   H196      1.0  0.05354  0.35072  0.34655  1.0000
  H   H197      1.0  0.02863  0.30572  0.33453  1.0000
  N   N10       1.0  0.44027  0.48048  0.46404  1.0000
  C   C127      1.0  0.12288  0.21377  0.32528  1.0000
  C   C128      1.0  0.12778  0.22174  0.30966  1.0000
  C   C129      1.0  0.10813  0.22297  0.30025  1.0000
  C   C130      1.0  0.08339  0.21619  0.30632  1.0000
  C   C131      1.0  0.07831  0.20807  0.32195  1.0000
  C   C132      1.0  0.09808  0.20691  0.33143  1.0000
  H   H198      1.0  0.14669  0.22683  0.30473  1.0000
  H   H199      1.0  0.11217  0.22916  0.28816  1.0000
  H   H200      1.0  0.05914  0.20247  0.32664  1.0000
  H   H201      1.0  0.09414  0.20056  0.34348  1.0000
  C   C133      1.0  0.29985  0.34964  0.38297  1.0000
  C   C134      1.0  0.28301  0.32253  0.38083  1.0000
  C   C135      1.0  0.27316  0.31124  0.36565  1.0000
  C   C136      1.0  0.28022  0.32692  0.35234  1.0000
  C   C137      1.0  0.29701  0.35405  0.35450  1.0000
  C   C138      1.0  0.30680  0.36536  0.36968  1.0000
  H   H202      1.0  0.27754  0.31011  0.39097  1.0000
  H   H203      1.0  0.26033  0.29037  0.36421  1.0000
  H   H204      1.0  0.30275  0.36636  0.34429  1.0000
  H   H205      1.0  0.32005  0.38614  0.37104  1.0000
  C   C139      1.0  0.24124  0.25900  0.24909  1.0000
  C   C140      1.0  0.43380  0.08290  0.47002  1.0000
  H   H206      1.0  0.43021  0.44121  0.48860  1.0000
  H   H207      1.0  0.25250  0.26601  0.26006  1.0000
  H   H208      1.0  0.01657  0.24690  0.25930  1.0000
  C   C141      1.0  0.20767  0.09620  0.30789  1.0000
  C   C142      1.0  0.23268  0.10919  0.31504  1.0000
  C   C143      1.0  0.24465  0.13663  0.31786  1.0000
  C   C144      1.0  0.23189  0.15144  0.31353  1.0000
  C   C145      1.0  0.20734  0.13862  0.30580  1.0000
  C   C146      1.0  0.19526  0.11115  0.30309  1.0000
  H   H209      1.0  0.24250  0.09801  0.31879  1.0000
  H   H210      1.0  0.26377  0.14637  0.32370  1.0000
  H   H211      1.0  0.19757  0.14983  0.30209  1.0000
  H   H212      1.0  0.17602  0.10132  0.29741  1.0000
  H   H213      1.0  0.12776  0.34046  0.34808  1.0000
  Fe  Fe32      1.0  0.99250  0.23428  0.32433  1.0000
  H   H214      1.0  0.10831  0.34180  0.36402  1.0000
  H   H215      1.0  0.35883  0.05784  0.41852  1.0000
  H   H216      1.0  0.42829  0.43866  0.46226  1.0000
  H   H217      1.0  0.09716  0.34129  0.34424  1.0000
  H   H218      1.0  0.20620  0.15383  0.27367  1.0000
  H   H219      1.0  0.11791  0.37066  0.44603  1.0000
  H   H220      1.0  0.14597  0.31436  0.34759  1.0000
  H   H221      1.0  0.25533  0.01394  0.39753  1.0000
  H   H222      1.0  0.44057  0.15606  0.47749  1.0000
  H   H223      1.0  0.18959  0.18574  0.27061  1.0000
  C   C147      1.0  0.41256  0.47550  0.46046  1.0000
  H   H224      1.0  0.27880  0.01722  0.42229  1.0000
  H   H225      1.0  0.08793  0.38009  0.48638  1.0000
  C   C148      1.0  0.01599  0.36956  0.48798  1.0000
  C   C149      1.0  0.09237  0.30267  0.32305  1.0000
  H   H226      1.0  0.15101  0.42384  0.46668  1.0000
  H   H227      1.0  0.35464  0.05937  0.43928  1.0000
  H   H228      1.0  0.33378  0.03706  0.39594  1.0000
  N   N11       1.0  0.23360  0.18009  0.25692  1.0000
  H   H229      1.0  0.07017  0.32840  0.48214  1.0000
  S   S59       1.0  0.98459  0.18886  0.28741  1.0000
  H   H230      1.0  0.28629  0.21463  0.26896  1.0000
  H   H231      1.0  0.15373  0.29155  0.33734  1.0000
  H   H232      1.0  0.18411  0.17887  0.24958  1.0000
  C   C150      1.0  0.32634  0.02244  0.42821  1.0000
  H   H233      1.0  0.24470  0.47501  0.40930  1.0000
  S   S60       1.0  0.20285  0.01166  0.28110  1.0000
  C   C151      1.0  0.32646  0.01611  0.39899  1.0000
  C   C152      1.0  0.05929  0.20952  0.24804  1.0000
  S   S61       1.0  0.08042  0.48622  0.41454  1.0000
  H   H234      1.0  0.40866  0.37495  0.47240  1.0000
  H   H235      1.0  0.07213  0.27165  0.30459  1.0000
  H   H236      1.0  0.45098  0.13601  0.46680  1.0000
  C   C153      1.0  0.18562  0.17075  0.26111  1.0000
  C   C154      1.0  0.25267  0.15413  0.27260  1.0000
  S   S62       1.0  0.99720  0.25426  0.34891  1.0000
  N   N12       1.0  0.12605  0.38733  0.47811  1.0000
  H   H237      1.0  0.05905  0.25630  0.36273  1.0000
  H   H238      1.0  0.39947  0.07247  0.48347  1.0000
  H   H239      1.0  0.14271  0.36018  0.47593  1.0000
  H   H240      1.0  0.99121  0.20683  0.36949  1.0000
  H   H241      1.0  0.99625  0.37320  0.45047  1.0000
  H   H242      1.0  0.08661  0.36604  0.46772  1.0000
  H   H243      1.0  0.10588  0.34029  0.45643  1.0000
  H   H244      1.0  0.09970  0.29679  0.36278  1.0000
  C   C155      1.0  0.23178  0.18946  0.24053  1.0000
  H   H245      1.0  0.38496  0.39733  0.46025  1.0000
  N   N13       1.0  0.24763  0.38972  0.37994  1.0000
  C   C156      1.0  0.27657  0.40771  0.38242  1.0000
  C   C157      1.0  0.23550  0.38198  0.39589  1.0000
  C   C158      1.0  0.23440  0.40325  0.37128  1.0000
  C   C159      1.0  0.24422  0.36603  0.37020  1.0000
  C   C160      1.0  0.29158  0.42146  0.36759  1.0000
  C   C161      1.0  0.24440  0.36496  0.40567  1.0000
  C   C162      1.0  0.23741  0.42900  0.37914  1.0000
  C   C163      1.0  0.21588  0.34387  0.36783  1.0000
  H   H246      1.0  0.28020  0.42325  0.39160  1.0000
  H   H247      1.0  0.28668  0.39675  0.38717  1.0000
  H   H248      1.0  0.21372  0.37153  0.39479  1.0000
  H   H249      1.0  0.24019  0.39976  0.40344  1.0000
  H   H250      1.0  0.24124  0.40737  0.35893  1.0000
  H   H251      1.0  0.21292  0.39028  0.37010  1.0000
  H   H252      1.0  0.25195  0.37170  0.35815  1.0000
  H   H253      1.0  0.25589  0.35708  0.37548  1.0000
  H   H254      1.0  0.28514  0.43552  0.36296  1.0000
  H   H255      1.0  0.31272  0.43309  0.37086  1.0000
  H   H256      1.0  0.29015  0.40729  0.35810  1.0000
  H   H257      1.0  0.23477  0.36131  0.41728  1.0000
  H   H258      1.0  0.23879  0.34553  0.39992  1.0000
  H   H259      1.0  0.26580  0.37506  0.40819  1.0000
  H   H260      1.0  0.22888  0.43827  0.37108  1.0000
  H   H261      1.0  0.25809  0.44361  0.38163  1.0000
  H   H262      1.0  0.22632  0.42508  0.39021  1.0000
  H   H263      1.0  0.20688  0.33529  0.37916  1.0000
  H   H264      1.0  0.21628  0.32775  0.36054  1.0000
  H   H265      1.0  0.20317  0.35045  0.36138  1.0000
  H   H266      1.0  0.27774  0.23809  0.27735  1.0000
  C   C164      1.0  0.20627  0.16063  0.26146  1.0000
  H   H267      1.0  0.04850  0.26821  0.33513  1.0000
  H   H268      1.0  0.38054  0.09201  0.46671  1.0000
  H   H269      1.0  0.24122  0.19513  0.28119  1.0000
  C   C165      1.0  0.38785  0.00448  0.48269  1.0000
  H   H270      1.0  0.23225  0.02227  0.24621  1.0000
  H   H271      1.0  0.08866  0.19702  0.24515  1.0000
  C   C166      1.0  0.34389  0.05241  0.42773  1.0000
  C   C167      1.0  0.13010  0.41182  0.46973  1.0000
  C   C168      1.0  0.12162  0.43024  0.47865  1.0000
  C   C169      1.0  0.06467  0.26289  0.33692  1.0000
  C   C170      1.0  0.10741  0.33331  0.35196  1.0000
  H   H272      1.0  0.24203  0.14950  0.24778  1.0000
  H   H273      1.0  0.15852  0.38863  0.46476  1.0000
  H   H274      1.0  0.39252  0.14458  0.47323  1.0000
  C   C171      1.0  0.35013  0.01049  0.39981  1.0000
  H   H275      1.0  0.33232  0.06315  0.42595  1.0000
  H   H276      1.0  0.11120  0.26834  0.34925  1.0000
  N   N14       1.0  0.32386  0.32645  0.44562  1.0000
  C   C172      1.0  0.33768  0.32823  0.43031  1.0000
  C   C173      1.0  0.29810  0.30163  0.44462  1.0000
  C   C174      1.0  0.34075  0.32418  0.45872  1.0000
  C   C175      1.0  0.32040  0.35082  0.44793  1.0000
  C   C176      1.0  0.36558  0.35132  0.42927  1.0000
  C   C177      1.0  0.28031  0.29900  0.43010  1.0000
  C   C178      1.0  0.33088  0.32251  0.47566  1.0000
  C   C179      1.0  0.29702  0.34830  0.45781  1.0000
  H   H277      1.0  0.33900  0.30977  0.42775  1.0000
  H   H278      1.0  0.32640  0.33032  0.42014  1.0000
  H   H279      1.0  0.28642  0.29939  0.45530  1.0000
  H   H280      1.0  0.30151  0.28403  0.44431  1.0000
  H   H281      1.0  0.34403  0.30675  0.45650  1.0000
  H   H282      1.0  0.36051  0.34138  0.45914  1.0000
  H   H283      1.0  0.33834  0.36701  0.45348  1.0000
  H   H284      1.0  0.31810  0.35856  0.43637  1.0000
  H   H285      1.0  0.36664  0.37023  0.43332  1.0000
  H   H286      1.0  0.38017  0.34759  0.43600  1.0000
  H   H287      1.0  0.37149  0.35352  0.41672  1.0000
  H   H288      1.0  0.25990  0.28397  0.43227  1.0000
  H   H289      1.0  0.27998  0.31768  0.42744  1.0000
  H   H290      1.0  0.28679  0.29229  0.41942  1.0000
  C   C180      1.0  0.09192  0.30306  0.35247  1.0000
  H   H291      1.0  0.09400  0.30279  0.29739  1.0000
  C   C181      1.0  0.26988  0.00630  0.39742  1.0000
  H   H292      1.0  0.27809  0.33717  0.45123  1.0000
  H   H293      1.0  0.29913  0.36824  0.46033  1.0000
  H   H294      1.0  0.29591  0.33937  0.46939  1.0000
  N   N15       1.0  0.15702  0.13233  0.34018  1.0000
  C   C182      1.0  0.17990  0.15965  0.34006  1.0000
  C   C183      1.0  0.14209  0.12773  0.32464  1.0000
  C   C184      1.0  0.16788  0.11295  0.34177  1.0000
  C   C185      1.0  0.14064  0.13128  0.35413  1.0000
  C   C186      1.0  0.20050  0.16685  0.35369  1.0000
  C   C187      1.0  0.12954  0.14589  0.32157  1.0000
  C   C188      1.0  0.15053  0.08450  0.33561  1.0000
  C   C189      1.0  0.11465  0.10598  0.35587  1.0000
  H   H295      1.0  0.19068  0.16274  0.32887  1.0000
  H   H296      1.0  0.17311  0.17493  0.34047  1.0000
  H   H297      1.0  0.12597  0.10742  0.32324  1.0000
  H   H298      1.0  0.15515  0.12975  0.31463  1.0000
  H   H299      1.0  0.18647  0.11968  0.33528  1.0000
  H   H300      1.0  0.17325  0.11182  0.35434  1.0000
  H   H301      1.0  0.15189  0.13368  0.36537  1.0000
  H   H302      1.0  0.13640  0.14836  0.35458  1.0000
  H   H303      1.0  0.19217  0.16684  0.36540  1.0000
  H   H304      1.0  0.21019  0.15406  0.35367  1.0000
  H   H305      1.0  0.21639  0.18705  0.35206  1.0000
  H   H306      1.0  0.11562  0.14465  0.33082  1.0000
  H   H307      1.0  0.14447  0.16655  0.32037  1.0000
  H   H308      1.0  0.11823  0.13986  0.31017  1.0000
  H   H309      1.0  0.16027  0.07234  0.33876  1.0000
  H   H310      1.0  0.14861  0.08340  0.32251  1.0000
  H   H311      1.0  0.13090  0.07528  0.34077  1.0000
  H   H312      1.0  0.11782  0.09118  0.36254  1.0000
  H   H313      1.0  0.10430  0.09713  0.34452  1.0000
  H   H314      1.0  0.10080  0.11082  0.36244  1.0000
  H   H315      1.0  0.26700  0.14635  0.27129  1.0000
  C   C190      1.0  0.11199  0.27875  0.33817  1.0000
  H   H316      1.0  0.30885  0.02693  0.24617  1.0000
  H   H317      1.0  0.10882  0.26417  0.32846  1.0000
  C   C191      1.0  0.09702  0.36993  0.47944  1.0000
  H   H318      1.0  0.10718  0.28317  0.30596  1.0000
  N   N16       1.0  0.41653  0.11445  0.48073  1.0000
  H   H319      1.0  0.23397  0.13724  0.27587  1.0000
  H   H320      1.0  0.42384  0.45348  0.43421  1.0000
  H   H321      1.0  0.29960  0.04070  0.40900  1.0000
  H   H322      1.0  0.00668  0.27510  0.38087  1.0000
  H   H323      1.0  0.46266  0.45883  0.46145  1.0000
  C   C192      1.0  0.39931  0.11057  0.46631  1.0000
  H   H324      1.0  0.11920  0.40657  0.45816  1.0000
  C   C193      1.0  0.44679  0.48265  0.48153  1.0000
  H   H325      1.0  0.12728  0.44818  0.47169  1.0000
  H   H326      1.0  0.23223  0.21359  0.26828  1.0000
  S   S63       1.0  0.27407  0.02691  0.26915  1.0000
  C   C194      1.0  0.39678  0.38071  0.47967  1.0000
  H   H327      1.0  0.07299  0.22974  0.25230  1.0000
  H   H328      1.0  0.03773  0.22953  0.35023  1.0000
  C   C195      1.0  0.09136  0.28894  0.30701  1.0000
  H   H329      1.0  0.27039  0.17896  0.25321  1.0000
  C   C196      1.0  0.99515  0.36959  0.46301  1.0000
  C   C197      1.0  0.13880  0.37398  0.46865  1.0000
  C   C198      1.0  0.08897  0.34352  0.48756  1.0000
  C   C199      1.0  0.38328  0.39334  0.47273  1.0000
  H   H330      1.0  0.06315  0.24986  0.32664  1.0000
  C   C200      1.0  0.28988  0.01932  0.41128  1.0000
  H   H331      1.0  0.38441  0.47852  0.47648  1.0000
  C   C201      1.0  0.41914  0.08978  0.48291  1.0000
  Fe  Fe33      1.0  0.24232  0.01547  0.28721  1.0000
  H   H332      1.0  0.26021  0.16896  0.28246  1.0000
  H   H333      1.0  0.07609  0.30810  0.32283  1.0000
  H   H334      1.0  0.13639  0.35293  0.44651  1.0000
  H   H335      1.0  0.36052  0.01587  0.38845  1.0000
  H   H336      1.0  0.41008  0.47862  0.44777  1.0000
  H   H337      1.0  0.11070  0.32155  0.32310  1.0000
  S   S64       1.0  0.00040  0.19926  0.32494  1.0000
  H   H338      1.0  0.45439  0.09823  0.46905  1.0000
  C   C202      1.0  0.00568  0.24287  0.24818  1.0000
  H   H339      1.0  0.27934  0.01116  0.38578  1.0000
  H   H340      1.0  0.27602  0.23393  0.25649  1.0000
  H   H341      1.0  0.40862  0.10766  0.45555  1.0000
  C   C203      1.0  0.12362  0.35860  0.45360  1.0000
  H   H342      1.0  0.33236  0.34159  0.47982  1.0000
  H   H343      1.0  0.39852  0.45447  0.46212  1.0000
  H   H344      1.0  0.31453  0.00461  0.38846  1.0000
  C   C204      1.0  0.24379  0.20257  0.26894  1.0000
  C   C205      1.0  0.25007  0.16590  0.25680  1.0000
  H   H345      1.0  0.07092  0.23584  0.35264  1.0000
  C   C206      1.0  0.05816  0.24547  0.35157  1.0000
  H   H346      1.0  0.45919  0.46844  0.43366  1.0000
  C   C207      1.0  0.44343  0.45740  0.45756  1.0000
  H   H347      1.0  0.07187  0.29933  0.35584  1.0000
  N   N17       1.0  0.30991  0.00957  0.41348  1.0000
  C   C208      1.0  0.44154  0.45342  0.43940  1.0000
  H   H348      1.0  0.42347  0.07867  0.45835  1.0000
  H   H349      1.0  0.14383  0.31148  0.32609  1.0000
  H   H350      1.0  0.31080  0.30639  0.47703  1.0000
  H   H351      1.0  0.40815  0.14756  0.45464  1.0000
  C   C209      1.0  0.21383  0.24605  0.24930  1.0000
  H   H352      1.0  0.33920  0.01334  0.43124  1.0000
  H   H353      1.0  0.19868  0.14268  0.25360  1.0000
  H   H354      1.0  0.44038  0.43402  0.43632  1.0000
  H   H355      1.0  0.43450  0.06459  0.47337  1.0000
  H   H356      1.0  0.16605  0.15418  0.26335  1.0000
  C   C210      1.0  0.33812  0.00099  0.47948  1.0000
  H   H357      1.0  0.17970  0.40658  0.48858  1.0000
  H   H358      1.0  0.05208  0.19762  0.25877  1.0000
  H   H359      1.0  0.04192  0.20936  0.24209  1.0000
  H   H360      1.0  0.10007  0.42117  0.47983  1.0000
  H   H361      1.0  0.36284  0.10255  0.48848  1.0000
  H   H362      1.0  0.28624  0.98951  0.33611  1.0000
  Fe  Fe34      1.0  0.22834  0.99720  0.32144  1.0000
  S   S65       1.0  0.18752  0.99304  0.31745  1.0000
  H   H363      1.0  0.31875  0.99955  0.47840  1.0000
  H   H364      1.0  0.10324  0.33583  0.48606  1.0000
  C   C211      1.0  0.29156  0.02507  0.23983  1.0000
  H   H365      1.0  0.48218  0.16086  0.48825  1.0000
  H   H366      1.0  0.40737  0.45472  0.48963  1.0000
  Fe  Fe35      1.0  0.45898  0.09672  0.55223  1.0000
  S   S66       1.0  0.45024  0.10586  0.52779  1.0000
  Fe  Fe36      1.0  0.40238  0.08305  0.56306  1.0000
  S   S67       1.0  0.39023  0.09038  0.53883  1.0000
  S   S68       1.0  0.38007  0.07871  0.58630  1.0000
  Fe  Fe37      1.0  0.41162  0.06894  0.52893  1.0000
  S   S69       1.0  0.40417  0.03977  0.50805  1.0000
  Fe  Fe38      1.0  0.42947  0.12690  0.53922  1.0000
  S   S70       1.0  0.43151  0.16433  0.52806  1.0000
  S   S71       1.0  0.42102  0.05905  0.55312  1.0000
  S   S72       1.0  0.44098  0.12047  0.56367  1.0000
  Fe  Fe39      1.0  0.42092  0.34987  0.52894  1.0000
  S   S73       1.0  0.43267  0.37909  0.54957  1.0000
  S   S74       1.0  0.41073  0.35726  0.50363  1.0000
  Fe  Fe40      1.0  0.43500  0.31121  0.54699  1.0000
  S   S75       1.0  0.44840  0.33933  0.56800  1.0000
  S   S76       1.0  0.43746  0.27341  0.55381  1.0000
  Fe  Fe41      1.0  0.41145  0.34295  0.56442  1.0000
  S   S77       1.0  0.39059  0.33959  0.58795  1.0000
  Fe  Fe42      1.0  0.46869  0.37304  0.55166  1.0000
  S   S78       1.0  0.39740  0.31412  0.54369  1.0000
  S   S79       1.0  0.45773  0.34467  0.53072  1.0000
  H   H367      1.0  0.42629  0.20596  0.51252  1.0000
  Fe  Fe43      1.0  0.22047  0.02397  0.65355  1.0000
  S   S80       1.0  0.20345  0.04973  0.64442  1.0000
  S   S81       1.0  0.26356  0.03782  0.65730  1.0000
  Fe  Fe44      1.0  0.20423  0.21618  0.65434  1.0000
  S   S82       1.0  0.23314  0.25913  0.65483  1.0000
  S   S83       1.0  0.15931  0.19735  0.65602  1.0000
  Fe  Fe45      1.0  0.24869  0.20045  0.65926  1.0000
  S   S84       1.0  0.28017  0.24251  0.66065  1.0000
  S   S85       1.0  0.26263  0.17039  0.66474  1.0000
  Fe  Fe46      1.0  0.25192  0.24955  0.67573  1.0000
  S   S86       1.0  0.25827  0.27149  0.69949  1.0000
  Fe  Fe47      1.0  0.25894  0.24798  0.63956  1.0000
  S   S87       1.0  0.27720  0.26450  0.61551  1.0000
  S   S88       1.0  0.22229  0.20730  0.67563  1.0000
  S   S89       1.0  0.22827  0.20515  0.63768  1.0000
  Fe  Fe48      1.0  0.99406  0.21112  0.67505  1.0000
  H   H368      1.0  0.11127  0.25081  0.67920  1.0000
  H   H369      1.0  0.41938  0.10738  0.62839  1.0000
  N   N18       1.0  0.45385  0.07862  0.60935  1.0000
  Fe  Fe49      1.0  0.03355  0.22386  0.64859  1.0000
  S   S90       1.0  0.07776  0.24292  0.64451  1.0000
  S   S91       1.0  0.02087  0.24865  0.66354  1.0000
  C   C212      1.0  0.16778  0.41369  0.49537  1.0000
  H   H370      1.0  0.05378  0.25018  0.61388  1.0000
  H   H371      1.0  0.28472  0.11175  0.59148  1.0000
  C   C213      1.0  0.13712  0.21056  0.65264  1.0000
  C   C214      1.0  0.14559  0.23681  0.64882  1.0000
  C   C215      1.0  0.12717  0.24630  0.64628  1.0000
  C   C216      1.0  0.10008  0.22975  0.64755  1.0000
  C   C217      1.0  0.09163  0.20355  0.65141  1.0000
  C   C218      1.0  0.11003  0.19408  0.65401  1.0000
  H   H372      1.0  0.16632  0.24975  0.64771  1.0000
  H   H373      1.0  0.13402  0.26660  0.64327  1.0000
  H   H374      1.0  0.07089  0.19045  0.65210  1.0000
  H   H375      1.0  0.10320  0.17370  0.65683  1.0000
  C   C219      1.0  0.26022  0.25721  0.71758  1.0000
  H   H376      1.0  0.05488  0.17638  0.67816  1.0000
  C   C220      1.0  0.13835  0.39379  0.49449  1.0000
  H   H377      1.0  0.99870  0.46591  0.50923  1.0000
  H   H378      1.0  0.37304  0.28347  0.57768  1.0000
  C   C221      1.0  0.21854  0.08284  0.65108  1.0000
  C   C222      1.0  0.23990  0.09245  0.66177  1.0000
  C   C223      1.0  0.25292  0.11930  0.66602  1.0000
  C   C224      1.0  0.24447  0.13668  0.65981  1.0000
  C   C225      1.0  0.22274  0.12702  0.64937  1.0000
  C   C226      1.0  0.20987  0.10015  0.64498  1.0000
  H   H379      1.0  0.24660  0.07927  0.66665  1.0000
  H   H380      1.0  0.26969  0.12668  0.67412  1.0000
  H   H381      1.0  0.21615  0.14032  0.64452  1.0000
  H   H382      1.0  0.19331  0.09280  0.63672  1.0000
  H   H383      1.0  0.31665  0.09024  0.58920  1.0000
  C   C227      1.0  0.30901  0.10095  0.63522  1.0000
  H   H384      1.0  0.24996  0.28258  0.73165  1.0000
  C   C228      1.0  0.48065  0.10219  0.60947  1.0000
  H   H385      1.0  0.40629  0.04371  0.58741  1.0000
  C   C229      1.0  0.35877  0.31886  0.59532  1.0000
  C   C230      1.0  0.33700  0.30408  0.58534  1.0000
  C   C231      1.0  0.31233  0.28775  0.59177  1.0000
  C   C232      1.0  0.30899  0.28567  0.60825  1.0000
  C   C233      1.0  0.33080  0.30035  0.61823  1.0000
  C   C234      1.0  0.35540  0.31698  0.61180  1.0000
  H   H386      1.0  0.33905  0.30551  0.57266  1.0000
  H   H387      1.0  0.29563  0.27670  0.58390  1.0000
  H   H388      1.0  0.32864  0.29917  0.63091  1.0000
  H   H389      1.0  0.37197  0.32839  0.61969  1.0000
  C   C235      1.0  0.00625  0.24574  0.72032  1.0000
  N   N19       1.0  0.36806  0.24721  0.58794  1.0000
  H   H390      1.0  0.04160  0.20809  0.71698  1.0000
  C   C236      1.0  0.40482  0.11938  0.49546  1.0000
  H   H391      1.0  0.27725  0.05017  0.73536  1.0000
  C   C237      1.0  0.35166  0.05549  0.59616  1.0000
  C   C238      1.0  0.33572  0.03001  0.59011  1.0000
  C   C239      1.0  0.31377  0.01235  0.59855  1.0000
  C   C240      1.0  0.30718  0.01983  0.61310  1.0000
  C   C241      1.0  0.32309  0.04533  0.61914  1.0000
  C   C242      1.0  0.34514  0.06295  0.61075  1.0000
  H   H392      1.0  0.34037  0.02382  0.57897  1.0000
  H   H393      1.0  0.04980  0.24901  0.70270  1.0000
  H   H394      1.0  0.31267  0.08937  0.64441  1.0000
  H   H395      1.0  0.47130  0.13438  0.60334  1.0000
  H   H396      1.0  0.35731  0.08250  0.61565  1.0000
  H   H397      1.0  0.16497  0.15369  0.71703  1.0000
  H   H398      1.0  0.32633  0.25269  0.57109  1.0000
  C   C243      1.0  0.43253  0.19423  0.53560  1.0000
  C   C244      1.0  0.43684  0.20172  0.55166  1.0000
  C   C245      1.0  0.43830  0.22592  0.55691  1.0000
  C   C246      1.0  0.43504  0.24292  0.54630  1.0000
  C   C247      1.0  0.43060  0.23539  0.53026  1.0000
  C   C248      1.0  0.42952  0.21135  0.52497  1.0000
  H   H399      1.0  0.43941  0.18901  0.56002  1.0000
  H   H400      1.0  0.39482  0.21725  0.57593  1.0000
  H   H401      1.0  0.42818  0.24815  0.52188  1.0000
  C   C249      1.0  0.39591  0.25848  0.59434  1.0000
  C   C250      1.0  0.40814  0.28719  0.60076  1.0000
  H   H402      1.0  0.39728  0.24626  0.60404  1.0000
  H   H403      1.0  0.40936  0.25836  0.58507  1.0000
  H   H404      1.0  0.42767  0.29255  0.60626  1.0000
  H   H405      1.0  0.41149  0.30105  0.59109  1.0000
  H   H406      1.0  0.39627  0.29041  0.60991  1.0000
  H   H407      1.0  0.43112  0.09834  0.60244  1.0000
  H   H408      1.0  0.27167  0.14082  0.59938  1.0000
  H   H409      1.0  0.19844  0.25762  0.70138  1.0000
  S   S92       1.0  0.20896  0.00274  0.67630  1.0000
  H   H410      1.0  0.34529  0.26616  0.55421  1.0000
  H   H411      1.0  0.09250  0.24525  0.73578  1.0000
  H   H412      1.0  0.41638  0.02770  0.60199  1.0000
  C   C251      1.0  0.36581  0.39528  0.49816  1.0000
  H   H413      1.0  0.44794  0.07827  0.58410  1.0000
  H   H414      1.0  0.07988  0.26876  0.71321  1.0000
  C   C252      1.0  0.10513  0.23987  0.70482  1.0000
  H   H415      1.0  0.41305  0.06886  0.61233  1.0000
  H   H416      1.0  0.37782  0.22456  0.56008  1.0000
  C   C253      1.0  0.37947  0.38281  0.50514  1.0000
  H   H417      1.0  0.31217  0.23444  0.61034  1.0000
  H   H418      1.0  0.32060  0.20918  0.60502  1.0000
  C   C254      1.0  0.45366  0.06075  0.62225  1.0000
  H   H419      1.0  0.21076  0.22333  0.70678  1.0000
  H   H420      1.0  0.32417  0.10544  0.62622  1.0000
  H   H421      1.0  0.26371  0.11804  0.63286  1.0000
  H   H422      1.0  0.24048  0.12277  0.60892  1.0000
  H   H423      1.0  0.08633  0.34547  0.50041  1.0000
  C   C255      1.0  0.34236  0.25268  0.56409  1.0000
  H   H424      1.0  0.99251  0.18464  0.73216  1.0000
  N   N20       1.0  0.05340  0.30062  0.61307  1.0000
  C   C256      1.0  0.05222  0.29220  0.62998  1.0000
  C   C257      1.0  0.03915  0.27591  0.60293  1.0000
  C   C258      1.0  0.03960  0.31748  0.61203  1.0000
  C   C259      1.0  0.08188  0.31598  0.60905  1.0000
  C   C260      1.0  0.06195  0.31433  0.64286  1.0000
  C   C261      1.0  0.05216  0.25769  0.60218  1.0000
  C   C262      1.0  0.02929  0.32032  0.59561  1.0000
  C   C263      1.0  0.08807  0.32380  0.59169  1.0000
  H   H425      1.0  0.03176  0.27807  0.63291  1.0000
  H   H426      1.0  0.06398  0.28161  0.63184  1.0000
  H   H427      1.0  0.03652  0.28009  0.59050  1.0000
  H   H428      1.0  0.01879  0.26418  0.60709  1.0000
  H   H429      1.0  0.02211  0.30964  0.61961  1.0000
  H   H430      1.0  0.05253  0.33772  0.61679  1.0000
  H   H431      1.0  0.09135  0.33471  0.61611  1.0000
  H   H432      1.0  0.09326  0.30558  0.61271  1.0000
  H   H433      1.0  0.04937  0.32424  0.64336  1.0000
  H   H434      1.0  0.06081  0.30551  0.65458  1.0000
  H   H435      1.0  0.08270  0.32895  0.64146  1.0000
  C   C264      1.0  0.27009  0.02913  0.73516  1.0000
  H   H436      1.0  0.14244  0.20285  0.72225  1.0000
  C   C265      1.0  0.06250  0.21346  0.68967  1.0000
  H   H437      1.0  0.02151  0.33474  0.59664  1.0000
  H   H438      1.0  0.04455  0.32758  0.58663  1.0000
  S   S93       1.0  0.00280  0.21622  0.62945  1.0000
  H   H439      1.0  0.08942  0.34346  0.58976  1.0000
  H   H440      1.0  0.07398  0.30947  0.58298  1.0000
  H   H441      1.0  0.10725  0.32468  0.58887  1.0000
  H   H442      1.0  0.06788  0.20071  0.72026  1.0000
  C   C266      1.0  0.26674  0.23660  0.71800  1.0000
  H   H443      1.0  0.23605  0.04050  0.61975  1.0000
  C   C267      1.0  0.36808  0.26304  0.57391  1.0000
  H   H444      1.0  0.27106  0.22935  0.70711  1.0000
  Fe  Fe50      1.0  0.25159  0.01376  0.67929  1.0000
  H   H445      1.0  0.08369  0.18978  0.69065  1.0000
  H   H446      1.0  0.36965  0.10577  0.50922  1.0000
  H   H447      1.0  0.37767  0.37868  0.51761  1.0000
  H   H448      1.0  0.03978  0.24020  0.59453  1.0000
  C   C268      1.0  0.32233  0.22835  0.60134  1.0000
  H   H449      1.0  0.35157  0.26883  0.60090  1.0000
  H   H450      1.0  0.13911  0.19433  0.69283  1.0000
  H   H451      1.0  0.27963  0.06516  0.62469  1.0000
  H   H452      1.0  0.33852  0.20922  0.57870  1.0000
  H   H453      1.0  0.35370  0.40073  0.50544  1.0000
  C   C269      1.0  0.38073  0.01918  0.49326  1.0000
  C   C270      1.0  0.44856  0.06506  0.59332  1.0000
  H   H454      1.0  0.31150  0.22563  0.59001  1.0000
  C   C271      1.0  0.06340  0.18705  0.68957  1.0000
  H   H455      1.0  0.13645  0.17029  0.72574  1.0000
  C   C272      1.0  0.26191  0.13512  0.61087  1.0000
  H   H456      1.0  0.10826  0.22417  0.71051  1.0000
  H   H457      1.0  0.33650  0.23300  0.55866  1.0000
  H   H458      1.0  0.31863  0.05134  0.63039  1.0000
  H   H459      1.0  0.07177  0.26741  0.59688  1.0000
  H   H460      1.0  0.42906  0.09050  0.49442  1.0000
  C   C273      1.0  0.28109  0.08449  0.62815  1.0000
  H   H461      1.0  0.44209  0.23154  0.56932  1.0000
  H   H462      1.0  0.01256  0.30163  0.59132  1.0000
  H   H463      1.0  0.07554  0.26248  0.67696  1.0000
  H   H464      1.0  0.21677  0.03858  0.60274  1.0000
  H   H465      1.0  0.99640  0.41473  0.52023  1.0000
  H   H466      1.0  0.05118  0.17407  0.69891  1.0000
  H   H467      1.0  0.37171  0.07985  0.49839  1.0000
  C   C274      1.0  0.35574  0.01745  0.49151  1.0000
  H   H468      1.0  0.43324  0.46390  0.50407  1.0000
  H   H469      1.0  0.13152  0.43708  0.49037  1.0000
  S   S94       1.0  0.27942  0.99633  0.62335  1.0000
  C   C275      1.0  0.27403  0.12171  0.62146  1.0000
  H   H470      1.0  0.34984  0.02847  0.49955  1.0000
  H   H471      1.0  0.46966  0.03493  0.62979  1.0000
  H   H472      1.0  0.26444  0.15344  0.61705  1.0000
  H   H473      1.0  0.45792  0.14816  0.50292  1.0000
  H   H474      1.0  0.27404  0.21032  0.73269  1.0000
  H   H475      1.0  0.04144  0.20878  0.68914  1.0000
  C   C276      1.0  0.25489  0.26655  0.73185  1.0000
  H   H476      1.0  0.99802  0.44321  0.53094  1.0000
  H   H477      1.0  0.13257  0.16078  0.69612  1.0000
  C   C277      1.0  0.18820  0.24335  0.71073  1.0000
  C   C278      1.0  0.43266  0.08649  0.61228  1.0000
  C   C279      1.0  0.29178  0.10385  0.60130  1.0000
  H   H478      1.0  0.46096  0.03118  0.60923  1.0000
  C   C280      1.0  0.39481  0.37511  0.49589  1.0000
  H   H479      1.0  0.36522  0.19215  0.56738  1.0000
  H   H480      1.0  0.07012  0.22252  0.67822  1.0000
  C   C281      1.0  0.29639  0.08176  0.59368  1.0000
  C   C282      1.0  0.42244  0.03942  0.59123  1.0000
  H   H481      1.0  0.46155  0.07208  0.63360  1.0000
  H   H482      1.0  0.14014  0.26190  0.69117  1.0000
  C   C283      1.0  0.20650  0.17429  0.71350  1.0000
  H   H483      1.0  0.07553  0.28834  0.68875  1.0000
  C   C284      1.0  0.35135  0.24944  0.60098  1.0000
  H   H484      1.0  0.11535  0.25767  0.71270  1.0000
  H   H485      1.0  0.17487  0.41645  0.50789  1.0000
  N   N21       1.0  0.27320  0.09668  0.61483  1.0000
  C   C285      1.0  0.42816  0.45914  0.49129  1.0000
  H   H486      1.0  0.35956  0.24869  0.61288  1.0000
  H   H487      1.0  0.43333  0.04602  0.62498  1.0000
  C   C286      1.0  0.26557  0.01541  0.72056  1.0000
  S   S95       1.0  0.27139  0.03289  0.70284  1.0000
  C   C287      1.0  0.18686  0.20183  0.73433  1.0000
  N   N22       1.0  0.07616  0.23180  0.70360  1.0000
  H   H488      1.0  0.12774  0.40118  0.50236  1.0000
  C   C288      1.0  0.20048  0.99880  0.72790  1.0000
  C   C289      1.0  0.07128  0.25540  0.70270  1.0000
  H   H489      1.0  0.11075  0.17241  0.70304  1.0000
  S   S96       1.0  0.98990  0.20061  0.70105  1.0000
  Fe  Fe51      1.0  0.25639  0.00056  0.64431  1.0000
  C   C290      1.0  0.08242  0.27318  0.68847  1.0000
  H   H490      1.0  0.24115  0.08451  0.59753  1.0000
  H   H491      1.0  0.18249  0.21204  0.69441  1.0000
  H   H492      1.0  0.31137  0.11924  0.64127  1.0000
  H   H493      1.0  0.19879  0.25261  0.72199  1.0000
  H   H494      1.0  0.24958  0.04410  0.60025  1.0000
  C   C291      1.0  0.01153  0.25859  0.73533  1.0000
  C   C292      1.0  0.46379  0.14339  0.49137  1.0000
  C   C293      1.0  0.24537  0.07860  0.60925  1.0000
  H   H495      1.0  0.12318  0.22834  0.68541  1.0000
  H   H496      1.0  0.10413  0.28391  0.68918  1.0000
  H   H497      1.0  0.42470  0.02646  0.58213  1.0000
  H   H498      1.0  0.29451  0.13683  0.62429  1.0000
  H   H499      1.0  0.29525  0.06669  0.60194  1.0000
  H   H500      1.0  0.47901  0.11935  0.58661  1.0000
  H   H501      1.0  0.23120  0.08024  0.61746  1.0000
  C   C294      1.0  0.12013  0.24533  0.68916  1.0000
  H   H502      1.0  0.28240  0.07201  0.58359  1.0000
  C   C295      1.0  0.13180  0.17822  0.70138  1.0000
  H   H503      1.0  0.17415  0.16888  0.69841  1.0000
  H   H504      1.0  0.20032  0.03714  0.72779  1.0000
  C   C296      1.0  0.37538  0.21330  0.57097  1.0000
  H   H505      1.0  0.16782  0.24048  0.71080  1.0000
  C   C297      1.0  0.35904  0.21875  0.58341  1.0000
  H   H506      1.0  0.21228  0.17455  0.72608  1.0000
  H   H507      1.0  0.31127  0.12048  0.60466  1.0000
  H   H508      1.0  0.38376  0.26515  0.56565  1.0000
  C   C298      1.0  0.23699  0.04891  0.60793  1.0000
  H   H509      1.0  0.99512  0.42978  0.49530  1.0000
  C   C299      1.0  0.99896  0.21889  0.71914  1.0000
  H   H510      1.0  0.35891  0.20763  0.59410  1.0000
  H   H511      1.0  0.13647  0.37572  0.50020  1.0000
  C   C300      1.0  0.06333  0.21729  0.71832  1.0000
  H   H512      1.0  0.26715  0.08019  0.63797  1.0000
  H   H513      1.0  0.40752  0.13984  0.49621  1.0000
  H   H514      1.0  0.46496  0.06119  0.58957  1.0000
  H   H515      1.0  0.20668  0.15686  0.70768  1.0000
  C   C301      1.0  0.37555  0.10059  0.49778  1.0000
  H   H516      1.0  0.17155  0.43327  0.49118  1.0000
  C   C302      1.0  0.26836  0.22580  0.73253  1.0000
  N   N23       1.0  0.17539  0.19519  0.71763  1.0000
  H   H517      1.0  0.22174  0.19169  0.70783  1.0000
  C   C303      1.0  0.98552  0.42221  0.52773  1.0000
  C   C304      1.0  0.14640  0.18689  0.71760  1.0000
  C   C305      1.0  0.17883  0.17217  0.71135  1.0000
  C   C306      1.0  0.18962  0.21782  0.70687  1.0000
  H   H518      1.0  0.01649  0.27919  0.73624  1.0000
  S   S97       1.0  0.00839  0.18674  0.66104  1.0000
  H   H519      1.0  0.30179  0.99269  0.59374  1.0000
  C   C307      1.0  0.43543  0.10176  0.62797  1.0000
  H   H520      1.0  0.41535  0.11785  0.50621  1.0000
  H   H521      1.0  0.45419  0.12012  0.62904  1.0000
  H   H522      1.0  0.00711  0.25640  0.70975  1.0000
  C   C308      1.0  0.07098  0.23358  0.73401  1.0000
  H   H523      1.0  0.21681  0.03123  0.71184  1.0000
  H   H524      1.0  0.43329  0.08943  0.63832  1.0000
  C   C309      1.0  0.99166  0.35979  0.49553  1.0000
  C   C310      1.0  0.46969  0.04589  0.61910  1.0000
  C   C311      1.0  0.99787  0.20535  0.73296  1.0000
  H   H525      1.0  0.46857  0.12691  0.49268  1.0000
  H   H526      1.0  0.99059  0.35609  0.50806  1.0000
  H   H527      1.0  0.03343  0.37324  0.49484  1.0000
  H   H528      1.0  0.20839  0.21481  0.73416  1.0000
  H   H529      1.0  0.21723  0.00771  0.73654  1.0000
  C   C312      1.0  0.19931  0.02172  0.71932  1.0000
  H   H530      1.0  0.06153  0.24658  0.73483  1.0000
  Fe  Fe52      1.0  0.98836  0.23844  0.64510  1.0000
  H   H531      1.0  0.18180  0.01520  0.71140  1.0000
  Fe  Fe53      1.0  0.40183  0.33681  0.94230  1.0000
  S   S98       1.0  0.41964  0.36277  0.92146  1.0000
  S   S99       1.0  0.39416  0.35113  0.96644  1.0000
  Fe  Fe54      1.0  0.40954  0.29065  0.92756  1.0000
  S   S100      1.0  0.42898  0.31459  0.90652  1.0000
  S   S101      1.0  0.39388  0.24549  0.92897  1.0000
  Fe  Fe55      1.0  0.45109  0.34999  0.92304  1.0000
  Fe  Fe56      1.0  0.39652  0.32609  0.90610  1.0000
  S   S102      1.0  0.38183  0.32526  0.88052  1.0000
  S   S103      1.0  0.43411  0.32482  0.94433  1.0000
  S   S104      1.0  0.37620  0.30124  0.92675  1.0000
  Fe  Fe57      1.0  0.40021  0.06329  0.94498  1.0000
  S   S105      1.0  0.41126  0.04083  0.92713  1.0000
  S   S106      1.0  0.38616  0.05247  0.97038  1.0000
  Fe  Fe58      1.0  0.42150  0.11330  0.92478  1.0000
  S   S107      1.0  0.43449  0.09397  0.90582  1.0000
  S   S108      1.0  0.43339  0.15751  0.92299  1.0000
  Fe  Fe59      1.0  0.39495  0.05860  0.90894  1.0000
  S   S109      1.0  0.37060  0.03441  0.88710  1.0000
  Fe  Fe60      1.0  0.44993  0.07768  0.92515  1.0000
  S   S110      1.0  0.38144  0.07875  0.92703  1.0000
  S   S111      1.0  0.43932  0.09930  0.94382  1.0000
  Fe  Fe61      1.0  0.20730  0.01141  0.80168  1.0000
  S   S112      1.0  0.25040  0.02441  0.79976  1.0000
  S   S113      1.0  0.18942  0.03600  0.79160  1.0000
  H   H532      1.0  0.35754  0.10548  0.84440  1.0000
  Fe  Fe62      1.0  0.19804  0.21817  0.80356  1.0000
  S   S114      1.0  0.23816  0.25227  0.80009  1.0000
  S   S115      1.0  0.16469  0.22728  0.79612  1.0000
  Fe  Fe63      1.0  0.22197  0.18247  0.81375  1.0000
  S   S116      1.0  0.26305  0.21400  0.81061  1.0000
  S   S117      1.0  0.22162  0.14693  0.82511  1.0000
  Fe  Fe64      1.0  0.25063  0.24105  0.82308  1.0000
  S   S118      1.0  0.26833  0.26513  0.84622  1.0000
  Fe  Fe65      1.0  0.24702  0.22209  0.78801  1.0000
  S   S119      1.0  0.26621  0.22129  0.76479  1.0000
  S   S120      1.0  0.20977  0.20900  0.82720  1.0000
  S   S121      1.0  0.20664  0.18858  0.79041  1.0000
  N   N24       1.0  0.33141  0.22904  0.88843  1.0000
  H   H533      1.0  0.98652  0.43308  0.96048  1.0000
  H   H534      1.0  0.34767  0.20672  0.90090  1.0000
  S   S122      1.0  0.01375  0.26057  0.76801  1.0000
  Fe  Fe66      1.0  0.01964  0.20671  0.81338  1.0000
  S   S123      1.0  0.04888  0.19201  0.82083  1.0000
  S   S124      1.0  0.02826  0.24912  0.81350  1.0000
  H   H535      1.0  0.37285  0.09983  0.89765  1.0000
  H   H536      1.0  0.27985  0.16970  0.80301  1.0000
  C   C313      1.0  0.37775  0.25794  0.87764  1.0000
  C   C314      1.0  0.13208  0.21610  0.80270  1.0000
  C   C315      1.0  0.12136  0.19736  0.81436  1.0000
  C   C316      1.0  0.09589  0.19020  0.81972  1.0000
  C   C317      1.0  0.08077  0.20157  0.81349  1.0000
  C   C318      1.0  0.09145  0.22019  0.80177  1.0000
  C   C319      1.0  0.11691  0.22735  0.79641  1.0000
  H   H537      1.0  0.13270  0.18846  0.81930  1.0000
  H   H538      1.0  0.08779  0.17572  0.82876  1.0000
  H   H539      1.0  0.08011  0.22912  0.79687  1.0000
  H   H540      1.0  0.12500  0.24192  0.78742  1.0000
  H   H541      1.0  0.04372  0.35544  0.91079  1.0000
  C   C320      1.0  0.01228  0.37283  0.98775  1.0000
  H   H542      1.0  0.34442  0.00529  0.85861  1.0000
  H   H543      1.0  0.43311  0.36442  0.83636  1.0000
  N   N25       1.0  0.00185  0.33281  0.90654  1.0000
  C   C321      1.0  0.19786  0.06652  0.80117  1.0000
  C   C322      1.0  0.18766  0.08275  0.79531  1.0000
  C   C323      1.0  0.19499  0.10766  0.80237  1.0000
  C   C324      1.0  0.21216  0.11618  0.81555  1.0000
  C   C325      1.0  0.22202  0.09977  0.82152  1.0000
  C   C326      1.0  0.21510  0.07513  0.81429  1.0000
  H   H544      1.0  0.17412  0.07606  0.78524  1.0000
  H   H545      1.0  0.18704  0.12005  0.79782  1.0000
  H   H546      1.0  0.23516  0.10617  0.83178  1.0000
  H   H547      1.0  0.22300  0.06274  0.81892  1.0000
  C   C327      1.0  0.34317  0.03269  0.87591  1.0000
  C   C328      1.0  0.33019  0.04723  0.88016  1.0000
  C   C329      1.0  0.30941  0.04616  0.87051  1.0000
  C   C330      1.0  0.30081  0.03009  0.85667  1.0000
  C   C331      1.0  0.31352  0.01525  0.85253  1.0000
  C   C332      1.0  0.33459  0.01665  0.86206  1.0000
  H   H548      1.0  0.33600  0.05912  0.89093  1.0000
  C   C333      1.0  0.44156  0.15019  0.97066  1.0000
  H   H549      1.0  0.01687  0.31612  0.92439  1.0000
  C   C334      1.0  0.26485  0.01570  0.74949  1.0000
  H   H550      1.0  0.36766  0.25234  0.90194  1.0000
  H   H551      1.0  0.30718  0.23017  0.92617  1.0000
  H   H552      1.0  0.28090  0.22484  0.87530  1.0000
  H   H553      1.0  0.37695  0.08112  0.86340  1.0000
  H   H554      1.0  0.34799  0.20413  0.88035  1.0000
  H   H555      1.0  0.99477  0.32713  0.93166  1.0000
  H   H556      1.0  0.40784  0.42407  0.96973  1.0000
  C   C335      1.0  0.35006  0.30707  0.87138  1.0000
  C   C336      1.0  0.34793  0.30156  0.85497  1.0000
  C   C337      1.0  0.32317  0.28791  0.84714  1.0000
  C   C338      1.0  0.30015  0.28019  0.85557  1.0000
  C   C339      1.0  0.30231  0.28568  0.87199  1.0000
  C   C340      1.0  0.32704  0.29871  0.87989  1.0000
  H   H557      1.0  0.36554  0.30801  0.84822  1.0000
  H   H558      1.0  0.32191  0.28409  0.83450  1.0000
  H   H559      1.0  0.28470  0.28002  0.87864  1.0000
  H   H560      1.0  0.32827  0.30302  0.89246  1.0000
  C   C341      1.0  0.40533  0.22139  0.92700  1.0000
  C   C342      1.0  0.43149  0.22798  0.92408  1.0000
  C   C343      1.0  0.43952  0.20817  0.92282  1.0000
  C   C344      1.0  0.42166  0.18144  0.92447  1.0000
  C   C345      1.0  0.39541  0.17476  0.92722  1.0000
  C   C346      1.0  0.38737  0.19458  0.92847  1.0000
  H   H561      1.0  0.44562  0.24839  0.92292  1.0000
  H   H562      1.0  0.45988  0.21370  0.92070  1.0000
  H   H563      1.0  0.38134  0.15438  0.92849  1.0000
  H   H564      1.0  0.36708  0.18915  0.93074  1.0000
  C   C347      1.0  0.37256  0.36101  0.97602  1.0000
  C   C348      1.0  0.37292  0.12159  0.87635  1.0000
  H   H565      1.0  0.37573  0.46320  0.98434  1.0000
  C   C349      1.0  0.42576  0.17041  0.87995  1.0000
  H   H566      1.0  0.42654  0.10637  0.85074  1.0000
  H   H567      1.0  0.99651  0.36687  0.88541  1.0000
  H   H568      1.0  0.43802  0.35258  0.87942  1.0000
  H   H569      1.0  0.27498  0.99522  0.88182  1.0000
  H   H570      1.0  0.20873  0.14451  0.76793  1.0000
  H   H571      1.0  0.35217  0.12820  0.97521  1.0000
  C   C350      1.0  0.43528  0.36436  0.84943  1.0000
  H   H572      1.0  0.43482  0.09826  0.86976  1.0000
  H   H573      1.0  0.18971  0.00610  0.75730  1.0000
  H   H574      1.0  0.48243  0.35491  0.86416  1.0000
  H   H575      1.0  0.02574  0.34949  0.87602  1.0000
  C   C351      1.0  0.40427  0.18168  0.96868  1.0000
  C   C352      1.0  0.26297  0.23507  0.74680  1.0000
  H   H576      1.0  0.41308  0.20218  0.97353  1.0000
  C   C353      1.0  0.02619  0.35871  0.90916  1.0000
  C   C354      1.0  0.00960  0.24472  0.74921  1.0000
  H   H577      1.0  0.41875  0.36652  0.85457  1.0000
  C   C355      1.0  0.00609  0.31778  0.89305  1.0000
  H   H578      1.0  0.47415  0.43506  0.89544  1.0000
  C   C356      1.0  0.33438  0.36887  0.97653  1.0000
  C   C357      1.0  0.35284  0.09469  0.96393  1.0000
  C   C358      1.0  0.02583  0.37552  0.92353  1.0000
  H   H579      1.0  0.29322  0.21512  0.89923  1.0000
  C   C359      1.0  0.25678  0.15457  0.78115  1.0000
  H   H580      1.0  0.26207  0.14715  0.74115  1.0000
  H   H581      1.0  0.01508  0.37595  0.96240  1.0000
  H   H582      1.0  0.00725  0.37680  0.92422  1.0000
  H   H583      1.0  0.45038  0.16514  0.96145  1.0000
  H   H584      1.0  0.24297  0.14112  0.78979  1.0000
  C   C360      1.0  0.25596  0.25536  0.74638  1.0000
  N   N26       1.0  0.25688  0.13980  0.76623  1.0000
  H   H585      1.0  0.31250  0.24944  0.89996  1.0000
  H   H586      1.0  0.44356  0.18185  0.88755  1.0000
  H   H587      1.0  0.01310  0.31687  0.86801  1.0000
  H   H588      1.0  0.43354  0.34489  0.85241  1.0000
  H   H589      1.0  0.29958  0.05752  0.87395  1.0000
  H   H590      1.0  0.40930  0.17151  0.88593  1.0000
  H   H591      1.0  0.25198  0.26285  0.75728  1.0000
  H   H592      1.0  0.34657  0.35451  0.95601  1.0000
  S   S125      1.0  0.27380  0.02902  0.84538  1.0000
  H   H593      1.0  0.35501  0.10512  0.87085  1.0000
  H   H594      1.0  0.40888  0.45556  0.96981  1.0000
  H   H595      1.0  0.43991  0.41966  0.89922  1.0000
  C   C361      1.0  0.41207  0.13224  0.96669  1.0000
  H   H596      1.0  0.02921  0.36772  0.93476  1.0000
  H   H597      1.0  0.23480  0.99307  0.86612  1.0000
  H   H598      1.0  0.38182  0.09610  0.83766  1.0000
  H   H599      1.0  0.45877  0.40317  0.90389  1.0000
  C   C362      1.0  0.26819  0.15822  0.75272  1.0000
  C   C363      1.0  0.35081  0.36089  0.96830  1.0000
  H   H600      1.0  0.02363  0.31486  0.89556  1.0000
  C   C364      1.0  0.27113  0.12359  0.76834  1.0000
  H   H601      1.0  0.34402  0.08253  0.97436  1.0000
  C   C365      1.0  0.00911  0.32947  0.87654  1.0000
  H   H602      1.0  0.30329  0.18833  0.74251  1.0000
  H   H603      1.0  0.39535  0.15065  0.85223  1.0000
  H   H604      1.0  0.37083  0.26132  0.86602  1.0000
  H   H605      1.0  0.31538  0.16417  0.89635  1.0000
  H   H606      1.0  0.37074  0.13955  0.87420  1.0000
  H   H607      1.0  0.39533  0.08976  0.88104  1.0000
  H   H608      1.0  0.39598  0.27616  0.88079  1.0000
  H   H609      1.0  0.03066  0.37121  0.89870  1.0000
  C   C366      1.0  0.33571  0.20521  0.89005  1.0000
  H   H610      1.0  0.31755  0.36852  0.97043  1.0000
  C   C367      1.0  0.31373  0.23069  0.90090  1.0000
  C   C368      1.0  0.44940  0.40311  0.87841  1.0000
  C   C369      1.0  0.22880  0.12090  0.76164  1.0000
  C   C370      1.0  0.31109  0.17824  0.88963  1.0000
  H   H611      1.0  0.30530  0.17054  0.87728  1.0000
  C   C371      1.0  0.37008  0.02091  0.97899  1.0000
  C   C372      1.0  0.32159  0.22871  0.91816  1.0000
  H   H612      1.0  0.29416  0.17833  0.89555  1.0000
  H   H613      1.0  0.35150  0.11444  0.89819  1.0000
  C   C373      1.0  0.35773  0.25308  0.89074  1.0000
  C   C374      1.0  0.32081  0.22974  0.87206  1.0000
  C   C375      1.0  0.29084  0.21482  0.86913  1.0000
  H   H614      1.0  0.35528  0.27114  0.89191  1.0000
  C   C376      1.0  0.42169  0.14200  0.87796  1.0000
  H   H615      1.0  0.32633  0.25031  0.86891  1.0000
  H   H616      1.0  0.32980  0.22241  0.86296  1.0000
  H   H617      1.0  0.28207  0.19403  0.87244  1.0000
  H   H618      1.0  0.28643  0.21505  0.85630  1.0000
  C   C377      1.0  0.99852  0.31725  0.92130  1.0000
  N   N27       1.0  0.18757  0.27687  0.84241  1.0000
  C   C378      1.0  0.16401  0.25007  0.84198  1.0000
  C   C379      1.0  0.18014  0.29555  0.83407  1.0000
  C   C380      1.0  0.19637  0.28692  0.85912  1.0000
  C   C381      1.0  0.20971  0.27472  0.83438  1.0000
  C   C382      1.0  0.16563  0.22942  0.85273  1.0000
  C   C383      1.0  0.17584  0.29125  0.81600  1.0000
  C   C384      1.0  0.17562  0.28935  0.86938  1.0000
  C   C385      1.0  0.23533  0.30062  0.83283  1.0000
  H   H619      1.0  0.14577  0.25122  0.84493  1.0000
  H   H620      1.0  0.16033  0.24147  0.82980  1.0000
  H   H621      1.0  0.19482  0.31637  0.83650  1.0000
  H   H622      1.0  0.16154  0.29414  0.83870  1.0000
  H   H623      1.0  0.20356  0.27447  0.86536  1.0000
  H   H624      1.0  0.21359  0.30681  0.85921  1.0000
  H   H625      1.0  0.21550  0.26160  0.84101  1.0000
  H   H626      1.0  0.20360  0.26468  0.82253  1.0000
  H   H627      1.0  0.16539  0.23427  0.86544  1.0000
  H   H628      1.0  0.14812  0.21017  0.85025  1.0000
  H   H629      1.0  0.18303  0.22656  0.85048  1.0000
  H   H630      1.0  0.19398  0.29451  0.80991  1.0000
  H   H631      1.0  0.15997  0.27139  0.81284  1.0000
  H   H632      1.0  0.16971  0.30552  0.81126  1.0000
  H   H633      1.0  0.17096  0.30490  0.86512  1.0000
  H   H634      1.0  0.18366  0.29512  0.88167  1.0000
  H   H635      1.0  0.15730  0.27060  0.86997  1.0000
  H   H636      1.0  0.24801  0.30501  0.84366  1.0000
  H   H637      1.0  0.23210  0.31774  0.83039  1.0000
  H   H638      1.0  0.24622  0.29873  0.82258  1.0000
  C   C386      1.0  0.40005  0.16275  0.98231  1.0000
  H   H639      1.0  0.32135  0.20962  0.92030  1.0000
  H   H640      1.0  0.33652  0.09033  0.95529  1.0000
  H   H641      1.0  0.47761  0.38317  0.84936  1.0000
  H   H642      1.0  0.42238  0.13461  0.88994  1.0000
  C   C387      1.0  0.45616  0.41589  0.89518  1.0000
  S   S126      1.0  0.20465  0.99594  0.82621  1.0000
  H   H643      1.0  0.29243  0.13591  0.77049  1.0000
  H   H644      1.0  0.24196  0.08707  0.77902  1.0000
  H   H645      1.0  0.44948  0.41824  0.87035  1.0000
  C   C388      1.0  0.21073  0.13331  0.75768  1.0000
  H   H646      1.0  0.30684  0.18647  0.76321  1.0000
  C   C389      1.0  0.40305  0.43772  0.97681  1.0000
  H   H647      1.0  0.26114  0.11318  0.79332  1.0000
  H   H648      1.0  0.46181  0.32983  0.87669  1.0000
  H   H649      1.0  0.34099  0.24491  0.92175  1.0000
  H   H650      1.0  0.27516  0.09521  0.78337  1.0000
  H   H651      1.0  0.38151  0.42733  0.97824  1.0000
  H   H652      1.0  0.38586  0.13470  0.90113  1.0000
  H   H653      1.0  0.44625  0.16012  0.98241  1.0000
  H   H654      1.0  0.00326  0.42738  0.98486  1.0000
  H   H655      1.0  0.26035  0.17262  0.75245  1.0000
  H   H656      1.0  0.41784  0.18092  0.95979  1.0000
  H   H657      1.0  0.06354  0.22004  0.74404  1.0000
  H   H658      1.0  0.41132  0.07327  0.85641  1.0000
  H   H659      1.0  0.42853  0.38770  0.87852  1.0000
  H   H660      1.0  0.38328  0.24191  0.87659  1.0000
  H   H661      1.0  0.18786  0.22151  0.75679  1.0000
  C   C390      1.0  0.47486  0.35131  0.87626  1.0000
  C   C391      1.0  0.37101  0.11741  0.89433  1.0000
  N   N28       1.0  0.39724  0.12325  0.86883  1.0000
  C   C392      1.0  0.39830  0.13281  0.85225  1.0000
  H   H662      1.0  0.42910  0.18028  0.86846  1.0000
  C   C393      1.0  0.39575  0.09638  0.86878  1.0000
  C   C394      1.0  0.37789  0.11293  0.84030  1.0000
  Fe  Fe67      1.0  0.24747  0.00637  0.82372  1.0000
  C   C395      1.0  0.41858  0.09377  0.86102  1.0000
  H   H663      1.0  0.41805  0.13942  0.84723  1.0000
  H   H664      1.0  0.26974  0.11230  0.75719  1.0000
  H   H665      1.0  0.43948  0.14334  0.87216  1.0000
  H   H666      1.0  0.37906  0.12276  0.82894  1.0000
  H   H667      1.0  0.29125  0.19217  0.78707  1.0000
  H   H668      1.0  0.36630  0.08836  0.95833  1.0000
  C   C396      1.0  0.00201  0.36742  0.97206  1.0000
  S   S127      1.0  0.99680  0.19557  0.79021  1.0000
  H   H669      1.0  0.21916  0.10714  0.77127  1.0000
  H   H670      1.0  0.46394  0.40490  0.84904  1.0000
  C   C397      1.0  0.36648  0.12431  0.96836  1.0000
  C   C398      1.0  0.36039  0.99755  0.96991  1.0000
  H   H671      1.0  0.15546  0.19975  0.74970  1.0000
  C   C399      1.0  0.29826  0.17437  0.75234  1.0000
  C   C400      1.0  0.45932  0.36627  0.88075  1.0000
  H   H672      1.0  0.46207  0.36984  0.89371  1.0000
  H   H673      1.0  0.19075  0.11733  0.75470  1.0000
  C   C401      1.0  0.26153  0.10381  0.78182  1.0000
  Fe  Fe68      1.0  0.00376  0.23735  0.79071  1.0000
  H   H674      1.0  0.04203  0.39581  0.92267  1.0000
  H   H675      1.0  0.36284  0.99836  0.95724  1.0000
  N   N29       1.0  0.39246  0.13472  0.97732  1.0000
  H   H676      1.0  0.24867  0.16838  0.77865  1.0000
  C   C402      1.0  0.28318  0.17114  0.79007  1.0000
  H   H677      1.0  0.40890  0.11160  0.96635  1.0000
  H   H678      1.0  0.26808  0.02638  0.76065  1.0000
  H   H679      1.0  0.30728  0.00283  0.84194  1.0000
  H   H680      1.0  0.36881  0.13458  0.95702  1.0000
  H   H681      1.0  0.40881  0.13631  0.95424  1.0000
  H   H682      1.0  0.30778  0.16181  0.74980  1.0000
  H   H683      1.0  0.29827  0.16476  0.78815  1.0000
  H   H684      1.0  0.45220  0.13826  0.97022  1.0000
  H   H685      1.0  0.25903  0.01230  0.89027  1.0000
  C   C403      1.0  0.17512  0.21446  0.74591  1.0000
  H   H686      1.0  0.22794  0.10830  0.75123  1.0000
  C   C404      1.0  0.00335  0.21819  0.74785  1.0000
  H   H687      1.0  0.99060  0.32908  0.87226  1.0000
  H   H688      1.0  0.42440  0.00648  0.97159  1.0000
  H   H689      1.0  0.38173  0.09744  0.98842  1.0000
  H   H690      1.0  0.38546  0.17783  0.96275  1.0000
  C   C405      1.0  0.46217  0.38692  0.85483  1.0000
  C   C406      1.0  0.17201  0.99661  0.74926  1.0000
  H   H691      1.0  0.98939  0.29782  0.89162  1.0000
  H   H692      1.0  0.00229  0.20735  0.75829  1.0000
  Fe  Fe69      1.0  0.98993  0.23628  0.82616  1.0000
  H   H693      1.0  0.14615  0.99655  0.76769  1.0000
  H   H694      1.0  0.21729  0.14596  0.74727  1.0000
  N   N30       1.0  0.46663  0.39160  0.87247  1.0000
  C   C407      1.0  0.25640  0.99237  0.88704  1.0000
  H   H695      1.0  0.16927  0.01296  0.74427  1.0000
  H   H696      1.0  0.18440  0.18379  0.74039  1.0000
  H   H697      1.0  0.17358  0.23146  0.74115  1.0000
  Fe  Fe70      1.0  0.00290  0.75306  0.14987  1.0000
  H   H698      1.0  0.43368  0.63030  0.04981  1.0000
  H   H699      1.0  0.14643  0.51300  0.03943  1.0000
  H   H700      1.0  0.44771  0.49516  0.99353  1.0000
  Fe  Fe71      1.0  0.01542  0.81030  0.15242  1.0000
  S   S128      1.0  0.04347  0.85025  0.14338  1.0000
  S   S129      1.0  0.02816  0.78598  0.16720  1.0000
  C   C408      1.0  0.27764  0.80572  0.07270  1.0000
  H   H701      1.0  0.99123  0.50859  0.99675  1.0000
  Fe  Fe72      1.0  0.18449  0.96007  0.16495  1.0000
  S   S130      1.0  0.15642  0.92060  0.17487  1.0000
  S   S131      1.0  0.22585  0.96712  0.16129  1.0000
  C   C409      1.0  0.99649  0.52902  0.00066  1.0000
  H   H702      1.0  0.32714  0.81978  0.07677  1.0000
  C   C410      1.0  0.46571  0.90820  0.05094  1.0000
  Fe  Fe73      1.0  0.06754  0.67837  0.05890  1.0000
  S   S132      1.0  0.08369  0.69493  0.03506  1.0000
  S   S133      1.0  0.04823  0.70091  0.07147  1.0000
  Fe  Fe74      1.0  0.08284  0.63330  0.05455  1.0000
  S   S134      1.0  0.10057  0.64835  0.03114  1.0000
  S   S135      1.0  0.07716  0.59397  0.06512  1.0000
  Fe  Fe75      1.0  0.11858  0.68940  0.04230  1.0000
  S   S136      1.0  0.16081  0.71872  0.03541  1.0000
  Fe  Fe76      1.0  0.06446  0.65303  0.02571  1.0000
  S   S137      1.0  0.04629  0.63597  0.00106  1.0000
  S   S138      1.0  0.10326  0.67409  0.06646  1.0000
  S   S139      1.0  0.04592  0.63670  0.04886  1.0000
  H   H703      1.0  0.02756  0.76805  0.21310  1.0000
  Fe  Fe77      1.0  0.34592  0.89727  0.04647  1.0000
  S   S140      1.0  0.31445  0.88210  0.02716  1.0000
  S   S141      1.0  0.37716  0.88334  0.04193  1.0000
  Fe  Fe78      1.0  0.31805  0.92585  0.06320  1.0000
  S   S142      1.0  0.28686  0.91387  0.04402  1.0000
  S   S143      1.0  0.31692  0.94425  0.08730  1.0000
  Fe  Fe79      1.0  0.28418  0.87347  0.04575  1.0000
  S   S144      1.0  0.24411  0.83918  0.05213  1.0000
  Fe  Fe80      1.0  0.32006  0.92373  0.02707  1.0000
  S   S145      1.0  0.32616  0.93975  0.00193  1.0000
  S   S146      1.0  0.31516  0.88549  0.06514  1.0000
  S   S147      1.0  0.35170  0.93878  0.04617  1.0000
  H   H704      1.0  0.02529  0.55076  0.05929  1.0000
  C   C411      1.0  0.45410  0.92254  0.05808  1.0000
  C   C412      1.0  0.42727  0.91550  0.05540  1.0000
  C   C413      1.0  0.41141  0.89375  0.04562  1.0000
  C   C414      1.0  0.42303  0.87951  0.03840  1.0000
  C   C415      1.0  0.44993  0.88670  0.04096  1.0000
  C   C416      1.0  0.99659  0.63321  0.99810  1.0000
  H   H705      1.0  0.41882  0.92674  0.06107  1.0000
  H   H706      1.0  0.41115  0.86270  0.03076  1.0000
  C   C417      1.0  0.21568  0.95046  0.23595  1.0000
  H   H707      1.0  0.18909  0.55379  0.02249  1.0000
  H   H708      1.0  0.16056  0.97460  0.21901  1.0000
  H   H709      1.0  0.36874  0.83055  0.05165  1.0000
  H   H710      1.0  0.17518  0.94977  0.20511  1.0000
  H   H711      1.0  0.45328  0.63425  0.03266  1.0000
  C   C418      1.0  0.00204  0.57616  0.01734  1.0000
  N   N31       1.0  0.19396  0.93778  0.22353  1.0000
  C   C419      1.0  0.22096  0.80582  0.04698  1.0000
  C   C420      1.0  0.22365  0.79226  0.03379  1.0000
  C   C421      1.0  0.20507  0.76579  0.03046  1.0000
  C   C422      1.0  0.18316  0.75251  0.04002  1.0000
  C   C423      1.0  0.18036  0.76617  0.05313  1.0000
  C   C424      1.0  0.19923  0.79247  0.05664  1.0000
  H   H712      1.0  0.23989  0.80217  0.02607  1.0000
  H   H713      1.0  0.20749  0.75553  0.02028  1.0000
  H   H714      1.0  0.16385  0.75628  0.06070  1.0000
  H   H715      1.0  0.19698  0.80238  0.06702  1.0000
  C   C425      1.0  0.08153  0.56578  0.05968  1.0000
  C   C426      1.0  0.07063  0.54343  0.06914  1.0000
  C   C427      1.0  0.07284  0.52044  0.06523  1.0000
  C   C428      1.0  0.08633  0.51940  0.05181  1.0000
  C   C429      1.0  0.09732  0.54178  0.04236  1.0000
  C   C430      1.0  0.09488  0.56469  0.04619  1.0000
  H   H716      1.0  0.06031  0.54387  0.07962  1.0000
  C   C431      1.0  0.43632  0.95947  0.00218  1.0000
  H   H717      1.0  0.10785  0.54143  0.03196  1.0000
  H   H718      1.0  0.10357  0.58161  0.03880  1.0000
  C   C432      1.0  0.41919  0.51885  0.05048  1.0000
  C   C433      1.0  0.41098  0.53826  0.04948  1.0000
  C   C434      1.0  0.42962  0.56523  0.04942  1.0000
  C   C435      1.0  0.45685  0.57343  0.05016  1.0000
  C   C436      1.0  0.34322  0.97143  0.99360  1.0000
  C   C437      1.0  0.44641  0.52702  0.05116  1.0000
  H   H719      1.0  0.39025  0.53255  0.04896  1.0000
  H   H720      1.0  0.42283  0.57987  0.04888  1.0000
  H   H721      1.0  0.06432  0.50362  0.07271  1.0000
  H   H722      1.0  0.45322  0.51241  0.05201  1.0000
  H   H723      1.0  0.99221  0.53580  0.06510  1.0000
  C   C438      1.0  0.27449  0.96511  0.11758  1.0000
  C   C439      1.0  0.29177  0.95641  0.11117  1.0000
  C   C440      1.0  0.29503  0.95569  0.09472  1.0000
  C   C441      1.0  0.28118  0.96442  0.08477  1.0000
  C   C442      1.0  0.99865  0.53101  0.01893  1.0000
  C   C443      1.0  0.17340  0.96962  0.22667  1.0000
  H   H724      1.0  0.30260  0.95004  0.11902  1.0000
  H   H725      1.0  0.28386  0.96456  0.07215  1.0000
  H   H726      1.0  0.22592  0.93826  0.23773  1.0000
  H   H727      1.0  0.13028  0.88542  0.22554  1.0000
  C   C444      1.0  0.07441  0.86987  0.15267  1.0000
  C   C445      1.0  0.08319  0.86120  0.16572  1.0000
  C   C446      1.0  0.10835  0.87699  0.17244  1.0000
  C   C447      1.0  0.12490  0.90150  0.16616  1.0000
  C   C448      1.0  0.11612  0.91014  0.15313  1.0000
  C   C449      1.0  0.09096  0.89439  0.14643  1.0000
  H   H728      1.0  0.07060  0.84241  0.17064  1.0000
  H   H729      1.0  0.11500  0.87019  0.18253  1.0000
  H   H730      1.0  0.12865  0.92900  0.14822  1.0000
  H   H731      1.0  0.08430  0.90122  0.13634  1.0000
  C   C450      1.0  0.02641  0.71863  0.12121  1.0000
  C   C451      1.0  0.02306  0.73075  0.10779  1.0000
  C   C452      1.0  0.03000  0.72517  0.09278  1.0000
  C   C453      1.0  0.04061  0.70756  0.09090  1.0000
  C   C454      1.0  0.04431  0.69573  0.10436  1.0000
  C   C455      1.0  0.03716  0.70117  0.11937  1.0000
  H   H732      1.0  0.28497  0.81004  0.02270  1.0000
  N   N32       1.0  0.41067  0.96065  0.00166  1.0000
  H   H733      1.0  0.05239  0.68214  0.10317  1.0000
  C   C456      1.0  0.01923  0.76967  0.22417  1.0000
  H   H734      1.0  0.22437  0.50472  0.02370  1.0000
  H   H735      1.0  0.10115  0.91025  0.23925  1.0000
  H   H736      1.0  0.20507  0.97458  0.21211  1.0000
  H   H737      1.0  0.30584  0.77499  0.06743  1.0000
  H   H738      1.0  0.42037  0.62931  0.03049  1.0000
  C   C457      1.0  0.14067  0.50018  0.01500  1.0000
  H   H739      1.0  0.45527  0.67390  0.06914  1.0000
  H   H740      1.0  0.00890  0.57816  0.00504  1.0000
  H   H741      1.0  0.40947  0.50660  0.01367  1.0000
  H   H742      1.0  0.38765  0.90459  0.00636  1.0000
  C   C458      1.0  0.03872  0.57067  0.02861  1.0000
  C   C459      1.0  0.41524  0.98568  0.99365  1.0000
  H   H743      1.0  0.28999  0.82231  0.08094  1.0000
  H   H744      1.0  0.32639  0.83841  0.03557  1.0000
  C   C460      1.0  0.14655  0.90079  0.21901  1.0000
  H   H745      1.0  0.34278  0.78405  0.04359  1.0000
  H   H746      1.0  0.44628  0.67504  0.02673  1.0000
  H   H747      1.0  0.00125  0.64489  0.00897  1.0000
  H   H748      1.0  0.27205  0.96525  0.13023  1.0000
  C   C461      1.0  0.20246  0.54477  0.02337  1.0000
  H   H749      1.0  0.17942  0.51387  0.06899  1.0000
  H   H750      1.0  0.28495  0.76630  0.05031  1.0000
  C   C462      1.0  0.99669  0.77310  0.22411  1.0000
  H   H751      1.0  0.45837  0.87539  0.03537  1.0000
  C   C463      1.0  0.18715  0.95767  0.21623  1.0000
  H   H752      1.0  0.20218  0.53487  0.01201  1.0000
  H   H753      1.0  0.27129  0.79736  0.04789  1.0000
  N   N33       1.0  0.17489  0.49879  0.03513  1.0000
  C   C464      1.0  0.36005  0.82543  0.06345  1.0000
  C   C465      1.0  0.32067  0.81711  0.03620  1.0000
  H   H754      1.0  0.44203  0.95695  0.99002  1.0000
  H   H755      1.0  0.07214  0.87210  0.22929  1.0000
  H   H756      1.0  0.46596  0.93919  0.06583  1.0000
  H   H757      1.0  0.18061  0.49288  0.01020  1.0000
  H   H758      1.0  0.22291  0.56072  0.02488  1.0000
  C   C466      1.0  0.20389  0.92650  0.21056  1.0000
  C   C467      1.0  0.23000  0.94579  0.20317  1.0000
  H   H759      1.0  0.20662  0.90971  0.21493  1.0000
  H   H760      1.0  0.01314  0.83354  0.22914  1.0000
  H   H761      1.0  0.43207  0.91952  0.00427  1.0000
  C   C468      1.0  0.43755  0.93747  0.01178  1.0000
  H   H762      1.0  0.36225  0.89616  0.99167  1.0000
  H   H763      1.0  0.22858  0.96223  0.19738  1.0000
  H   H764      1.0  0.24670  0.95371  0.21185  1.0000
  H   H765      1.0  0.23489  0.93518  0.19375  1.0000
  H   H766      1.0  0.01480  0.74417  0.10893  1.0000
  N   N34       1.0  0.21582  0.88580  0.08221  1.0000
  C   C469      1.0  0.22540  0.86746  0.08884  1.0000
  C   C470      1.0  0.18712  0.86987  0.07774  1.0000
  C   C471      1.0  0.21902  0.90681  0.09422  1.0000
  C   C472      1.0  0.23185  0.89894  0.06812  1.0000
  C   C473      1.0  0.25402  0.88034  0.09527  1.0000
  C   C474      1.0  0.18093  0.85274  0.06244  1.0000
  C   C475      1.0  0.20551  0.89709  0.11007  1.0000
  C   C476      1.0  0.22381  0.91745  0.05916  1.0000
  H   H767      1.0  0.21272  0.85570  0.09847  1.0000
  H   H768      1.0  0.22393  0.85270  0.07969  1.0000
  H   H769      1.0  0.17737  0.88258  0.07653  1.0000
  H   H770      1.0  0.17645  0.85633  0.08734  1.0000
  H   H771      1.0  0.24003  0.91988  0.09697  1.0000
  H   H772      1.0  0.21146  0.91999  0.08937  1.0000
  H   H773      1.0  0.25274  0.91133  0.07178  1.0000
  H   H774      1.0  0.23260  0.88438  0.05953  1.0000
  H   H775      1.0  0.25770  0.89483  0.10504  1.0000
  H   H776      1.0  0.25829  0.86484  0.10010  1.0000
  H   H777      1.0  0.26827  0.88960  0.08581  1.0000
  H   H778      1.0  0.15945  0.83981  0.06127  1.0000
  H   H779      1.0  0.18679  0.86487  0.05176  1.0000
  H   H780      1.0  0.19051  0.83991  0.06246  1.0000
  H   H781      1.0  0.20890  0.91450  0.11762  1.0000
  H   H782      1.0  0.21398  0.88617  0.11665  1.0000
  H   H783      1.0  0.18401  0.88502  0.10847  1.0000
  H   H784      1.0  0.23520  0.93800  0.06373  1.0000
  H   H785      1.0  0.20277  0.91200  0.05986  1.0000
  H   H786      1.0  0.22767  0.91671  0.04639  1.0000
  C   C477      1.0  0.41991  0.98415  0.02911  1.0000
  H   H787      1.0  0.47189  0.65588  0.06314  1.0000
  H   H788      1.0  0.33687  0.84600  0.06343  1.0000
  C   C478      1.0  0.29996  0.80299  0.02287  1.0000
  C   C479      1.0  0.19583  0.52677  0.03767  1.0000
  H   H789      1.0  0.38230  0.96351  0.01692  1.0000
  C   C480      1.0  0.01505  0.62646  0.99178  1.0000
  H   H790      1.0  0.03514  0.84201  0.21321  1.0000
  C   C481      1.0  0.00485  0.53967  0.05468  1.0000
  C   C482      1.0  0.43854  0.63910  0.03798  1.0000
  H   H791      1.0  0.00476  0.57584  0.04840  1.0000
  C   C483      1.0  0.05277  0.86633  0.23444  1.0000
  H   H792      1.0  0.31272  0.75852  0.03474  1.0000
  H   H793      1.0  0.33860  0.81589  0.03289  1.0000
  C   C484      1.0  0.99816  0.55594  0.04282  1.0000
  H   H794      1.0  0.19002  0.53680  0.04701  1.0000
  H   H795      1.0  0.21435  0.52779  0.04260  1.0000
  H   H796      1.0  0.35885  0.80652  0.06720  1.0000
  C   C485      1.0  0.40077  0.96174  0.01792  1.0000
  H   H797      1.0  0.23100  0.96966  0.23195  1.0000
  H   H798      1.0  0.44432  0.51859  0.01651  1.0000
  H   H799      1.0  0.43861  0.98332  0.03103  1.0000
  C   C486      1.0  0.46505  0.55397  0.05090  1.0000
  H   H800      1.0  0.27585  0.78700  0.07721  1.0000
  H   H801      1.0  0.36146  0.91313  0.00923  1.0000
  H   H802      1.0  0.13926  0.91418  0.21430  1.0000
  C   C487      1.0  0.26412  0.97339  0.09119  1.0000
  H   H803      1.0  0.32444  0.75413  0.05329  1.0000
  H   H804      1.0  0.43204  0.52931  0.00026  1.0000
  N   N35       1.0  0.09321  0.80337  0.12672  1.0000
  C   C488      1.0  0.10203  0.80014  0.14306  1.0000
  C   C489      1.0  0.11362  0.82907  0.12053  1.0000
  C   C490      1.0  0.09028  0.78140  0.11555  1.0000
  C   C491      1.0  0.06688  0.80286  0.12784  1.0000
  C   C492      1.0  0.08576  0.77326  0.15056  1.0000
  C   C493      1.0  0.11464  0.85407  0.12825  1.0000
  C   C494      1.0  0.11494  0.77765  0.11366  1.0000
  C   C495      1.0  0.05547  0.80795  0.11239  1.0000
  H   H805      1.0  0.12280  0.80385  0.14321  1.0000
  H   H806      1.0  0.10165  0.81508  0.15149  1.0000
  H   H807      1.0  0.11125  0.83010  0.10753  1.0000
  H   H808      1.0  0.13361  0.83083  0.12219  1.0000
  H   H809      1.0  0.07417  0.76237  0.11915  1.0000
  H   H810      1.0  0.08425  0.78432  0.10348  1.0000
  H   H811      1.0  0.05186  0.78332  0.13168  1.0000
  H   H812      1.0  0.06687  0.81652  0.13734  1.0000
  H   H813      1.0  0.06525  0.76920  0.15233  1.0000
  H   H814      1.0  0.08604  0.75679  0.14367  1.0000
  H   H815      1.0  0.09426  0.77348  0.16247  1.0000
  H   H816      1.0  0.11781  0.85495  0.14124  1.0000
  H   H817      1.0  0.13131  0.87167  0.12351  1.0000
  H   H818      1.0  0.09665  0.85586  0.12546  1.0000
  H   H819      1.0  0.12167  0.77308  0.12498  1.0000
  H   H820      1.0  0.13115  0.79496  0.10841  1.0000
  H   H821      1.0  0.11004  0.76061  0.10541  1.0000
  H   H822      1.0  0.04422  0.78948  0.10534  1.0000
  H   H823      1.0  0.07042  0.82244  0.10481  1.0000
  H   H824      1.0  0.04226  0.81655  0.11536  1.0000
  C   C496      1.0  0.32261  0.76907  0.04595  1.0000
  S   S148      1.0  0.47940  0.60807  0.05052  1.0000
  H   H825      1.0  0.14526  0.49321  0.06336  1.0000
  C   C497      1.0  0.47325  0.67590  0.06323  1.0000
  S   S149      1.0  0.01705  0.72411  0.14040  1.0000
  H   H826      1.0  0.01496  0.54206  0.99493  1.0000
  C   C498      1.0  0.28799  0.81090  0.05573  1.0000
  H   H827      1.0  0.04619  0.58987  0.03516  1.0000
  H   H828      1.0  0.46411  0.71546  0.05448  1.0000
  H   H829      1.0  0.03988  0.69162  0.12963  1.0000
  S   S150      1.0  0.99185  0.77793  0.13451  1.0000
  C   C499      1.0  0.44767  0.66896  0.03888  1.0000
  H   H830      1.0  0.42541  0.93222  0.02235  1.0000
  H   H831      1.0  0.01076  0.52142  0.02268  1.0000
  S   S151      1.0  0.18236  0.97983  0.14269  1.0000
  H   H832      1.0  0.43249  0.67191  0.04537  1.0000
  H   H833      1.0  0.01218  0.59649  0.02259  1.0000
  H   H834      1.0  0.25772  0.80431  0.07271  1.0000
  H   H835      1.0  0.02702  0.73445  0.08248  1.0000
  C   C500      1.0  0.03390  0.83994  0.22625  1.0000
  H   H836      1.0  0.17610  0.90038  0.23494  1.0000
  H   H837      1.0  0.07576  0.58778  0.01677  1.0000
  H   H838      1.0  0.04718  0.88143  0.23030  1.0000
  H   H839      1.0  0.18799  0.98795  0.23283  1.0000
  N   N36       1.0  0.00929  0.55814  0.02654  1.0000
  H   H840      1.0  0.30960  0.80781  0.01126  1.0000
  H   H841      1.0  0.15069  0.89059  0.20904  1.0000
  H   H842      1.0  0.00158  0.52043  0.04962  1.0000
  H   H843      1.0  0.45280  0.97849  0.00645  1.0000
  H   H844      1.0  0.05289  0.55690  0.00835  1.0000
  H   H845      1.0  0.29017  0.78135  0.02383  1.0000
  H   H846      1.0  0.18945  0.91839  0.20051  1.0000
  H   H847      1.0  0.03935  0.82437  0.22915  1.0000
  H   H848      1.0  0.37411  0.84085  0.07182  1.0000
  N   N37       1.0  0.47436  0.68540  0.04656  1.0000
  N   N38       1.0  0.31218  0.80770  0.05267  1.0000
  C   C501      1.0  0.42807  0.51203  0.00754  1.0000
  H   H849      1.0  0.04987  0.58660  0.00461  1.0000
  H   H850      1.0  0.45786  0.94428  0.01652  1.0000
  C   C502      1.0  0.17048  0.91523  0.23040  1.0000
  C   C503      1.0  0.33329  0.82529  0.06444  1.0000
  H   H851      1.0  0.39515  0.94334  0.02434  1.0000
  H   H852      1.0  0.29135  0.83102  0.05279  1.0000
  C   C504      1.0  0.30545  0.77922  0.05467  1.0000
  Fe  Fe81      1.0  0.99116  0.77575  0.18054  1.0000
  H   H853      1.0  0.15547  0.51778  0.00926  1.0000
  H   H854      1.0  0.46472  0.71799  0.02413  1.0000
  C   C505      1.0  0.05469  0.57554  0.01352  1.0000
  C   C506      1.0  0.26047  0.97363  0.10762  1.0000
  H   H855      1.0  0.04464  0.55835  0.03590  1.0000
  C   C507      1.0  0.37487  0.91159  0.00050  1.0000
  C   C508      1.0  0.47967  0.71370  0.04765  1.0000
  H   H856      1.0  0.41087  0.98199  0.04086  1.0000
  H   H857      1.0  0.25359  0.98015  0.08337  1.0000
  S   S152      1.0  0.23734  0.98359  0.11482  1.0000
  S   S153      1.0  0.09033  0.49103  0.04633  1.0000
  C   C509      1.0  0.42714  0.48949  0.99685  1.0000
  C   C510      1.0  0.14838  0.49763  0.03218  1.0000
  C   C511      1.0  0.48236  0.72778  0.03198  1.0000
  C   C512      1.0  0.16472  0.49386  0.06499  1.0000
  C   C513      1.0  0.39004  0.93776  0.99205  1.0000
  H   H858      1.0  0.12215  0.50180  0.01507  1.0000
  H   H859      1.0  0.48221  0.68902  0.01413  1.0000
  H   H860      1.0  0.04864  0.76614  0.23868  1.0000
  C   C514      1.0  0.98611  0.77525  0.23858  1.0000
  C   C515      1.0  0.03113  0.76863  0.23867  1.0000
  H   H861      1.0  0.16023  0.95615  0.23541  1.0000
  H   H862      1.0  0.39802  0.98938  0.99495  1.0000
  Fe  Fe82      1.0  0.22489  0.98911  0.13980  1.0000
  Fe  Fe83      1.0  0.03038  0.82504  0.31571  1.0000
  S   S154      1.0  0.05290  0.80228  0.31333  1.0000
  S   S155      1.0  0.05096  0.86935  0.31875  1.0000
  H   H863      1.0  0.43588  0.64163  0.42258  1.0000
  H   H864      1.0  0.00406  0.85850  0.27862  1.0000
  H   H865      1.0  0.36498  0.83325  0.39925  1.0000
  Fe  Fe84      1.0  0.18744  0.97394  0.29410  1.0000
  S   S156      1.0  0.22695  0.97620  0.29853  1.0000
  S   S157      1.0  0.15721  0.93479  0.28346  1.0000
  H   H866      1.0  0.12644  0.74603  0.34003  1.0000
  C   C516      1.0  0.12203  0.76032  0.34659  1.0000
  H   H867      1.0  0.36153  0.86162  0.39397  1.0000
  H   H868      1.0  0.32634  0.79615  0.41157  1.0000
  Fe  Fe85      1.0  0.32543  0.93700  0.43587  1.0000
  S   S158      1.0  0.35536  0.95378  0.41712  1.0000
  S   S159      1.0  0.32195  0.96534  0.45419  1.0000
  Fe  Fe86      1.0  0.30125  0.88081  0.42024  1.0000
  S   S160      1.0  0.33037  0.89546  0.40050  1.0000
  S   S161      1.0  0.27564  0.83556  0.42013  1.0000
  Fe  Fe87      1.0  0.36144  0.91783  0.41942  1.0000
  S   S162      1.0  0.40204  0.92021  0.42561  1.0000
  Fe  Fe88      1.0  0.32163  0.93009  0.39989  1.0000
  S   S163      1.0  0.31692  0.94901  0.37696  1.0000
  S   S164      1.0  0.33265  0.90201  0.43920  1.0000
  S   S165      1.0  0.29127  0.91441  0.41855  1.0000
  C   C517      1.0  0.46725  0.67819  0.43254  1.0000
  H   H869      1.0  0.12915  0.69094  0.35736  1.0000
  C   C518      1.0  0.28101  0.97825  0.34675  1.0000
  Fe  Fe89      1.0  0.07692  0.66961  0.40627  1.0000
  S   S166      1.0  0.08440  0.69559  0.42794  1.0000
  S   S167      1.0  0.05500  0.67062  0.38355  1.0000
  Fe  Fe90      1.0  0.10757  0.64210  0.42013  1.0000
  S   S168      1.0  0.11813  0.66804  0.44226  1.0000
  S   S169      1.0  0.12404  0.61214  0.41855  1.0000
  Fe  Fe91      1.0  0.07561  0.65937  0.44189  1.0000
  S   S170      1.0  0.05679  0.64623  0.46613  1.0000
  Fe  Fe92      1.0  0.12638  0.70234  0.42663  1.0000
  S   S171      1.0  0.15650  0.74650  0.42962  1.0000
  S   S172      1.0  0.06501  0.63258  0.42025  1.0000
  S   S173      1.0  0.11893  0.67720  0.40445  1.0000
  C   C519      1.0  0.02445  0.63340  0.47351  1.0000
  C   C520      1.0  0.09330  0.52138  0.41539  1.0000
  C   C521      1.0  0.07636  0.53235  0.41204  1.0000
  C   C522      1.0  0.08529  0.55987  0.41289  1.0000
  C   C523      1.0  0.11147  0.57706  0.41707  1.0000
  C   C524      1.0  0.12846  0.56612  0.42027  1.0000
  C   C525      1.0  0.11949  0.53859  0.41953  1.0000
  H   H870      1.0  0.05613  0.51941  0.40869  1.0000
  H   H871      1.0  0.07196  0.56777  0.41016  1.0000
  H   H872      1.0  0.14879  0.57906  0.42340  1.0000
  H   H873      1.0  0.13289  0.53070  0.42209  1.0000
  C   C526      1.0  0.43899  0.52620  0.41864  1.0000
  C   C527      1.0  0.43290  0.54470  0.42598  1.0000
  C   C528      1.0  0.45223  0.57132  0.42799  1.0000
  H   H874      1.0  0.45544  0.50325  0.44309  1.0000
  H   H875      1.0  0.09946  0.85045  0.26072  1.0000
  C   C529      1.0  0.46491  0.53486  0.41364  1.0000
  H   H876      1.0  0.41320  0.53861  0.42993  1.0000
  S   S174      1.0  0.00432  0.79928  0.33443  1.0000
  C   C530      1.0  0.19427  0.90919  0.34414  1.0000
  H   H877      1.0  0.29835  0.76100  0.42679  1.0000
  C   C531      1.0  0.18984  0.77082  0.42694  1.0000
  C   C532      1.0  0.19672  0.79759  0.42957  1.0000
  C   C533      1.0  0.22261  0.81763  0.42742  1.0000
  C   C534      1.0  0.24224  0.81126  0.42268  1.0000
  C   C535      1.0  0.23533  0.78449  0.41999  1.0000
  C   C536      1.0  0.20940  0.76447  0.42203  1.0000
  H   H878      1.0  0.18189  0.80289  0.43336  1.0000
  H   H879      1.0  0.22742  0.83799  0.42961  1.0000
  H   H880      1.0  0.25018  0.77915  0.41631  1.0000
  H   H881      1.0  0.20459  0.74409  0.41991  1.0000
  H   H882      1.0  0.45656  0.90055  0.38782  1.0000
  C   C537      1.0  0.45982  0.50473  0.45603  1.0000
  C   C538      1.0  0.44975  0.92011  0.43078  1.0000
  C   C539      1.0  0.42977  0.91609  0.41954  1.0000
  C   C540      1.0  0.43245  0.90884  0.40403  1.0000
  C   C541      1.0  0.45480  0.90600  0.39988  1.0000
  H   H883      1.0  0.01708  0.54514  0.43432  1.0000
  H   H884      1.0  0.44802  0.92566  0.44282  1.0000
  H   H885      1.0  0.41740  0.90562  0.39519  1.0000
  H   H886      1.0  0.47699  0.54705  0.45465  1.0000
  H   H887      1.0  0.36761  0.80817  0.42217  1.0000
  H   H888      1.0  0.05347  0.75608  0.38505  1.0000
  H   H889      1.0  0.11038  0.75007  0.41152  1.0000
  H   H890      1.0  0.33298  0.83044  0.39455  1.0000
  H   H891      1.0  0.06604  0.90763  0.25688  1.0000
  C   C542      1.0  0.29280  0.95648  0.36797  1.0000
  S   S175      1.0  0.23388  0.98166  0.34555  1.0000
  H   H892      1.0  0.11142  0.61955  0.47075  1.0000
  C   C543      1.0  0.25675  0.97156  0.35349  1.0000
  C   C544      1.0  0.25052  0.95687  0.36736  1.0000
  C   C545      1.0  0.26817  0.94906  0.37442  1.0000
  C   C546      1.0  0.14671  0.88189  0.34587  1.0000
  C   C547      1.0  0.10810  0.60380  0.46184  1.0000
  H   H893      1.0  0.10441  0.86027  0.34847  1.0000
  H   H894      1.0  0.26274  0.93738  0.38488  1.0000
  Fe  Fe93      1.0  0.02503  0.77453  0.33070  1.0000
  H   H895      1.0  0.45527  0.68011  0.44222  1.0000
  C   C548      1.0  0.08073  0.88727  0.30912  1.0000
  C   C549      1.0  0.09134  0.87467  0.29955  1.0000
  C   C550      1.0  0.11476  0.88949  0.29168  1.0000
  C   C551      1.0  0.12802  0.91692  0.29359  1.0000
  C   C552      1.0  0.11765  0.92954  0.30333  1.0000
  C   C553      1.0  0.09401  0.91473  0.31102  1.0000
  H   H896      1.0  0.08139  0.85353  0.29813  1.0000
  H   H897      1.0  0.12280  0.87964  0.28423  1.0000
  H   H898      1.0  0.12769  0.95072  0.30480  1.0000
  H   H899      1.0  0.08592  0.92458  0.31844  1.0000
  C   C554      1.0  0.04331  0.73784  0.36173  1.0000
  C   C555      1.0  0.05051  0.73912  0.37784  1.0000
  C   C556      1.0  0.05389  0.71868  0.38475  1.0000
  C   C557      1.0  0.05013  0.69659  0.37562  1.0000
  C   C558      1.0  0.04262  0.69515  0.35955  1.0000
  C   C559      1.0  0.03942  0.71570  0.35261  1.0000
  H   H900      1.0  0.05936  0.71999  0.39715  1.0000
  H   H901      1.0  0.03967  0.67817  0.35237  1.0000
  H   H902      1.0  0.03415  0.71446  0.34018  1.0000
  C   C560      1.0  0.20812  0.95528  0.25266  1.0000
  N   N39       1.0  0.34464  0.82770  0.42926  1.0000
  H   H903      1.0  0.18579  0.89142  0.29753  1.0000
  C   C561      1.0  0.33707  0.83479  0.44495  1.0000
  H   H904      1.0  0.07055  0.60846  0.48304  1.0000
  C   C562      1.0  0.35805  0.85936  0.45383  1.0000
  H   H905      1.0  0.30452  0.80637  0.42017  1.0000
  C   C563      1.0  0.47485  0.91017  0.41111  1.0000
  H   H906      1.0  0.28851  0.96960  0.40408  1.0000
  H   H907      1.0  0.31916  0.83750  0.44340  1.0000
  C   C564      1.0  0.16681  0.88761  0.32002  1.0000
  N   N40       1.0  0.05376  0.86635  0.25228  1.0000
  H   H908      1.0  0.34885  0.86420  0.46397  1.0000
  H   H909      1.0  0.36651  0.87697  0.44650  1.0000
  H   H910      1.0  0.37384  0.85559  0.45890  1.0000
  H   H911      1.0  0.33185  0.81873  0.45344  1.0000
  C   C565      1.0  0.02484  0.56574  0.43881  1.0000
  H   H912      1.0  0.39881  0.86378  0.43754  1.0000
  C   C566      1.0  0.18923  0.90308  0.30873  1.0000
  H   H913      1.0  0.41098  0.84115  0.43293  1.0000
  H   H914      1.0  0.10471  0.76020  0.34048  1.0000
  C   C567      1.0  0.35234  0.84296  0.40044  1.0000
  H   H915      1.0  0.16325  0.92145  0.24090  1.0000
  H   H916      1.0  0.14838  0.86347  0.34710  1.0000
  H   H917      1.0  0.16792  0.78352  0.36378  1.0000
  C   C568      1.0  0.39563  0.84693  0.42968  1.0000
  C   C569      1.0  0.32160  0.80282  0.42294  1.0000
  H   H918      1.0  0.21032  0.92544  0.33791  1.0000
  H   H919      1.0  0.11390  0.86146  0.32849  1.0000
  C   C570      1.0  0.99795  0.77418  0.25302  1.0000
  H   H920      1.0  0.17647  0.76179  0.39437  1.0000
  H   H921      1.0  0.14859  0.88996  0.35816  1.0000
  H   H922      1.0  0.39940  0.85382  0.41739  1.0000
  C   C571      1.0  0.08266  0.84208  0.25211  1.0000
  H   H923      1.0  0.07627  0.89263  0.27173  1.0000
  C   C572      1.0  0.31178  0.77896  0.43376  1.0000
  H   H924      1.0  0.00636  0.63995  0.45279  1.0000
  C   C573      1.0  0.02005  0.62402  0.48900  1.0000
  H   H925      1.0  0.44701  0.58532  0.43349  1.0000
  H   H926      1.0  0.18240  0.94026  0.32703  1.0000
  C   C574      1.0  0.15950  0.77667  0.37555  1.0000
  H   H927      1.0  0.13981  0.77641  0.40494  1.0000
  H   H928      1.0  0.19130  0.79641  0.39323  1.0000
  H   H929      1.0  0.16041  0.95699  0.34438  1.0000
  H   H930      1.0  0.15497  0.73905  0.35572  1.0000
  C   C575      1.0  0.00338  0.63280  0.46471  1.0000
  S   S176      1.0  0.99618  0.74928  0.31157  1.0000
  C   C576      1.0  0.05845  0.58864  0.48769  1.0000
  N   N41       1.0  0.16820  0.90093  0.33578  1.0000
  H   H931      1.0  0.12315  0.61361  0.45284  1.0000
  C   C577      1.0  0.20252  0.88744  0.34644  1.0000
  S   S177      1.0  0.00137  0.80377  0.29583  1.0000
  H   H932      1.0  0.03304  0.58677  0.46099  1.0000
  C   C578      1.0  0.36828  0.82295  0.43113  1.0000
  N   N42       1.0  0.13562  0.75025  0.37396  1.0000
  C   C579      1.0  0.11511  0.75287  0.36393  1.0000
  C   C580      1.0  0.12414  0.74036  0.38986  1.0000
  C   C581      1.0  0.12064  0.76025  0.40078  1.0000
  H   H933      1.0  0.09641  0.73435  0.36368  1.0000
  S   S178      1.0  0.41552  0.49209  0.41568  1.0000
  H   H934      1.0  0.13591  0.73291  0.39662  1.0000
  H   H935      1.0  0.10455  0.72295  0.38843  1.0000
  C   C582      1.0  0.02058  0.77098  0.25314  1.0000
  C   C583      1.0  0.47204  0.91716  0.42664  1.0000
  H   H936      1.0  0.19448  0.91743  0.35616  1.0000
  N   N43       1.0  0.05882  0.56859  0.46026  1.0000
  C   C584      1.0  0.03293  0.56835  0.45650  1.0000
  H   H937      1.0  0.00885  0.57129  0.43727  1.0000
  C   C585      1.0  0.05803  0.54433  0.45254  1.0000
  H   H938      1.0  0.11262  0.58886  0.46706  1.0000
  H   H939      1.0  0.04120  0.57878  0.43140  1.0000
  C   C586      1.0  0.45572  0.64865  0.42809  1.0000
  C   C587      1.0  0.08218  0.53992  0.45525  1.0000
  H   H940      1.0  0.19673  0.96631  0.25276  1.0000
  C   C588      1.0  0.16151  0.93902  0.34795  1.0000
  H   H941      1.0  0.46294  0.68755  0.42240  1.0000
  H   H942      1.0  0.19783  0.77722  0.37851  1.0000
  H   H943      1.0  0.15437  0.79212  0.37985  1.0000
  H   H944      1.0  0.04059  0.52639  0.45640  1.0000
  H   H945      1.0  0.05573  0.54452  0.43950  1.0000
  H   H946      1.0  0.08264  0.59064  0.44095  1.0000
  C   C589      1.0  0.06089  0.56698  0.47796  1.0000
  C   C590      1.0  0.12087  0.70359  0.36214  1.0000
  H   H947      1.0  0.04537  0.54778  0.48199  1.0000
  H   H948      1.0  0.98975  0.71110  0.34288  1.0000
  S   S179      1.0  0.03939  0.76442  0.35387  1.0000
  C   C591      1.0  0.47809  0.58003  0.42283  1.0000
  H   H949      1.0  0.03486  0.88751  0.27893  1.0000
  H   H950      1.0  0.47003  0.52093  0.40791  1.0000
  H   H951      1.0  0.07836  0.52094  0.44940  1.0000
  H   H952      1.0  0.08644  0.53851  0.46789  1.0000
  H   H953      1.0  0.19734  0.93659  0.25891  1.0000
  H   H954      1.0  0.22225  0.89634  0.35236  1.0000
  H   H955      1.0  0.10738  0.70427  0.35288  1.0000
  H   H956      1.0  0.32800  0.77570  0.43863  1.0000
  H   H957      1.0  0.11400  0.88988  0.33812  1.0000
  C   C592      1.0  0.34888  0.84902  0.41784  1.0000
  H   H958      1.0  0.14813  0.92069  0.32488  1.0000
  H   H959      1.0  0.46775  0.64454  0.41947  1.0000
  H   H960      1.0  0.17831  0.94545  0.35646  1.0000
  H   H961      1.0  0.30008  0.78096  0.44351  1.0000
  H   H962      1.0  0.22636  0.96727  0.25980  1.0000
  H   H963      1.0  0.39591  0.50288  0.46179  1.0000
  Fe  Fe94      1.0  0.02231  0.77919  0.29443  1.0000
  H   H964      1.0  0.31164  0.97377  0.41910  1.0000
  H   H965      1.0  0.10851  0.76833  0.39518  1.0000
  H   H966      1.0  0.11020  0.76792  0.36912  1.0000
  H   H967      1.0  0.45330  0.63671  0.43868  1.0000
  C   C593      1.0  0.18241  0.77788  0.38595  1.0000
  C   C594      1.0  0.08060  0.59328  0.45381  1.0000
  H   H968      1.0  0.14844  0.88361  0.31341  1.0000
  H   H969      1.0  0.23188  0.95155  0.37274  1.0000
  H   H970      1.0  0.44311  0.53221  0.45838  1.0000
  C   C595      1.0  0.11838  0.87320  0.33971  1.0000
  C   C596      1.0  0.16505  0.92519  0.33304  1.0000
  H   H971      1.0  0.07558  0.60977  0.45480  1.0000
  H   H972      1.0  0.20429  0.87857  0.33507  1.0000
  H   H973      1.0  0.48080  0.73034  0.42559  1.0000
  H   H974      1.0  0.18909  0.87192  0.35423  1.0000
  C   C597      1.0  0.29891  0.97093  0.35401  1.0000
  H   H975      1.0  0.36610  0.86773  0.42135  1.0000
  H   H976      1.0  0.31775  0.97667  0.34878  1.0000
  S   S180      1.0  0.03677  0.77113  0.27115  1.0000
  H   H977      1.0  0.13840  0.78043  0.34565  1.0000
  H   H978      1.0  0.06214  0.84704  0.27167  1.0000
  H   H979      1.0  0.09962  0.55518  0.44952  1.0000
  H   H980      1.0  0.33208  0.85356  0.41801  1.0000
  C   C598      1.0  0.14353  0.73101  0.36653  1.0000
  H   H981      1.0  0.20869  0.90689  0.31358  1.0000
  H   H982      1.0  0.10949  0.69368  0.37257  1.0000
  H   H983      1.0  0.15709  0.72770  0.37465  1.0000
  H   H984      1.0  0.14302  0.92665  0.35396  1.0000
  H   H985      1.0  0.16580  0.86797  0.32155  1.0000
  H   H986      1.0  0.18964  0.92184  0.30552  1.0000
  H   H987      1.0  0.02006  0.87397  0.25144  1.0000
  H   H988      1.0  0.36816  0.81415  0.44277  1.0000
  C   C599      1.0  0.29692  0.98026  0.41548  1.0000
  C   C600      1.0  0.46141  0.53121  0.46138  1.0000
  C   C601      1.0  0.05913  0.84487  0.25864  1.0000
  H   H989      1.0  0.46687  0.53612  0.47405  1.0000
  C   C602      1.0  0.02503  0.86625  0.27565  1.0000
  H   H990      1.0  0.11124  0.89321  0.25363  1.0000
  H   H991      1.0  0.03324  0.85615  0.28318  1.0000
  H   H992      1.0  0.07951  0.56734  0.48181  1.0000
  H   H993      1.0  0.99076  0.68962  0.37391  1.0000
  H   H994      1.0  0.99249  0.73229  0.36962  1.0000
  C   C603      1.0  0.02703  0.86144  0.25780  1.0000
  H   H995      1.0  0.07700  0.82086  0.25038  1.0000
  H   H996      1.0  0.47992  0.50661  0.45736  1.0000
  C   C604      1.0  0.34512  0.98596  0.46907  1.0000
  H   H997      1.0  0.01661  0.55208  0.46260  1.0000
  C   C605      1.0  0.10119  0.90535  0.25186  1.0000
  C   C606      1.0  0.07351  0.89307  0.25872  1.0000
  H   H998      1.0  0.04159  0.82535  0.25702  1.0000
  H   H999      1.0  0.11344  0.92429  0.25833  1.0000
  H   H1000     1.0  0.41607  0.50642  0.47865  1.0000
  H   H1001     1.0  0.37599  0.97662  0.46284  1.0000
  C   C607      1.0  0.40215  0.49185  0.47003  1.0000
  H   H1002     1.0  0.98950  0.77578  0.26404  1.0000
  H   H1003     1.0  0.26812  0.94804  0.42879  1.0000
  H   H1004     1.0  0.03770  0.58471  0.48799  1.0000
  H   H1005     1.0  0.01204  0.84078  0.25504  1.0000
  H   H1006     1.0  0.44740  0.50039  0.48723  1.0000
  H   H1007     1.0  0.03033  0.69107  0.48629  1.0000
  C   C608      1.0  0.27511  0.96947  0.42779  1.0000
  C   C609      1.0  0.37021  0.98796  0.47072  1.0000
  H   H1008     1.0  0.25779  0.97196  0.42430  1.0000
  H   H1009     1.0  0.98466  0.70152  0.39203  1.0000
  H   H1010     1.0  0.28226  0.97829  0.43975  1.0000
  H   H1011     1.0  0.25873  0.98469  0.39826  1.0000
  H   H1012     1.0  0.34367  0.98934  0.40113  1.0000
  H   H1013     1.0  0.08936  0.85086  0.24053  1.0000
  H   H1014     1.0  0.00198  0.87473  0.61459  1.0000
  C   C610      1.0  0.19001  0.88024  0.63524  1.0000
  H   H1015     1.0  0.26838  0.90950  0.60924  1.0000
  H   H1016     1.0  0.16533  0.92644  0.72682  1.0000
  H   H1017     1.0  0.06578  0.89635  0.63827  1.0000
  Fe  Fe95      1.0  0.04169  0.79578  0.64779  1.0000
  S   S181      1.0  0.07702  0.82893  0.63615  1.0000
  S   S182      1.0  0.03967  0.76189  0.66184  1.0000
  H   H1018     1.0  0.05075  0.85868  0.62221  1.0000
  C   C611      1.0  0.02699  0.68347  0.51135  1.0000
  S   S183      1.0  0.01783  0.80535  0.66480  1.0000
  S   S184      1.0  0.00624  0.76996  0.63232  1.0000
  C   C612      1.0  0.15522  0.95961  0.70856  1.0000
  Fe  Fe96      1.0  0.20543  0.96734  0.66250  1.0000
  S   S185      1.0  0.17277  0.92788  0.67033  1.0000
  C   C613      1.0  0.23201  0.89935  0.65097  1.0000
  H   H1019     1.0  0.19169  0.84862  0.64898  1.0000
  S   S186      1.0  0.98884  0.69422  0.63851  1.0000
  H   H1020     1.0  0.04809  0.69797  0.51306  1.0000
  C   C614      1.0  0.23215  0.89441  0.62224  1.0000
  H   H1021     1.0  0.23439  0.88121  0.65141  1.0000
  C   C615      1.0  0.10275  0.85687  0.64596  1.0000
  C   C616      1.0  0.10752  0.85777  0.66227  1.0000
  C   C617      1.0  0.12879  0.87983  0.66949  1.0000
  C   C618      1.0  0.14533  0.90145  0.66060  1.0000
  C   C619      1.0  0.14011  0.90092  0.64435  1.0000
  C   C620      1.0  0.11913  0.87861  0.63705  1.0000
  H   H1022     1.0  0.09512  0.84123  0.66928  1.0000
  H   H1023     1.0  0.13258  0.87999  0.68207  1.0000
  H   H1024     1.0  0.15239  0.91752  0.63739  1.0000
  H   H1025     1.0  0.11556  0.87818  0.62444  1.0000
  H   H1026     1.0  0.20915  0.93058  0.64412  1.0000
  H   H1027     1.0  0.03623  0.62477  0.49604  1.0000
  C   C621      1.0  0.02008  0.78232  0.73622  1.0000
  C   C622      1.0  0.25237  0.97500  0.73476  1.0000
  H   H1028     1.0  0.05705  0.85929  0.65645  1.0000
  S   S187      1.0  0.01864  0.78306  0.70419  1.0000
  H   H1029     1.0  0.04626  0.92748  0.62724  1.0000
  C   C623      1.0  0.02477  0.67458  0.53945  1.0000
  H   H1030     1.0  0.99313  0.71604  0.60681  1.0000
  H   H1031     1.0  0.03086  0.64281  0.54889  1.0000
  H   H1032     1.0  0.03621  0.88842  0.61138  1.0000
  H   H1033     1.0  0.00755  0.71693  0.52080  1.0000
  H   H1034     1.0  0.19977  0.94905  0.72450  1.0000
  H   H1035     1.0  0.06854  0.88988  0.66679  1.0000
  H   H1036     1.0  0.03448  0.86697  0.66734  1.0000
  H   H1037     1.0  0.15356  0.97271  0.69961  1.0000
  H   H1038     1.0  0.98514  0.69499  0.57996  1.0000
  Fe  Fe97      1.0  0.01358  0.77023  0.67821  1.0000
  C   C624      1.0  0.21873  0.90092  0.66637  1.0000
  H   H1039     1.0  0.14406  0.98275  0.72391  1.0000
  C   C625      1.0  0.98371  0.66193  0.52423  1.0000
  H   H1040     1.0  0.04543  0.90519  0.64949  1.0000
  C   C626      1.0  0.01532  0.74247  0.72325  1.0000
  H   H1041     1.0  0.99912  0.84112  0.65050  1.0000
  C   C627      1.0  0.22016  0.92707  0.63447  1.0000
  H   H1042     1.0  0.24596  0.95408  0.73457  1.0000
  H   H1043     1.0  0.23048  0.89990  0.67663  1.0000
  H   H1044     1.0  0.01602  0.71275  0.55619  1.0000
  H   H1045     1.0  0.18954  0.93103  0.62068  1.0000
  C   C628      1.0  0.05171  0.87492  0.65964  1.0000
  H   H1046     1.0  0.23497  0.87690  0.62474  1.0000
  H   H1047     1.0  0.17345  0.95826  0.70655  1.0000
  S   S188      1.0  0.24799  0.97729  0.66676  1.0000
  H   H1048     1.0  0.04551  0.68979  0.54161  1.0000
  H   H1049     1.0  0.19251  0.84449  0.62770  1.0000
  C   C629      1.0  0.01823  0.76799  0.72226  1.0000
  H   H1050     1.0  0.03098  0.83627  0.63644  1.0000
  H   H1051     1.0  0.03682  0.72373  0.53102  1.0000
  H   H1052     1.0  0.18041  0.88072  0.62381  1.0000
  C   C630      1.0  0.02480  0.64781  0.53744  1.0000
  H   H1053     1.0  0.25231  0.91585  0.65181  1.0000
  H   H1054     1.0  0.01401  0.73128  0.71255  1.0000
  H   H1055     1.0  0.13611  0.95119  0.73109  1.0000
  H   H1056     1.0  0.20724  0.91878  0.60892  1.0000
  H   H1057     1.0  0.02267  0.80217  0.73558  1.0000
  C   C631      1.0  0.01173  0.83136  0.61403  1.0000
  H   H1058     1.0  0.99170  0.81936  0.61839  1.0000
  N   N44       1.0  0.02441  0.87035  0.63412  1.0000
  H   H1059     1.0  0.99737  0.67403  0.49225  1.0000
  H   H1060     1.0  0.27296  0.92346  0.62881  1.0000
  H   H1061     1.0  0.06505  0.58875  0.50011  1.0000
  C   C632      1.0  0.18435  0.85153  0.63737  1.0000
  H   H1062     1.0  0.19871  0.88444  0.66737  1.0000
  C   C633      1.0  0.20914  0.93231  0.61887  1.0000
  C   C634      1.0  0.02160  0.88577  0.62059  1.0000
  H   H1063     1.0  0.22250  0.95238  0.61491  1.0000
  H   H1064     1.0  0.21990  0.88872  0.61116  1.0000
  H   H1065     1.0  0.24064  0.94291  0.63649  1.0000
  H   H1066     1.0  0.02669  0.66439  0.50875  1.0000
  H   H1067     1.0  0.25336  0.97753  0.70927  1.0000
  H   H1068     1.0  0.98345  0.69560  0.54741  1.0000
  C   C635      1.0  0.25940  0.91674  0.61836  1.0000
  H   H1069     1.0  0.16276  0.83883  0.63698  1.0000
  N   N45       1.0  0.01214  0.68225  0.52610  1.0000
  H   H1070     1.0  0.01689  0.70918  0.49662  1.0000
  H   H1071     1.0  0.25808  0.93382  0.61333  1.0000
  H   H1072     1.0  0.01311  0.91429  0.63423  1.0000
  H   H1073     1.0  0.03914  0.64841  0.52865  1.0000
  H   H1074     1.0  0.01886  0.81731  0.61001  1.0000
  N   N46       1.0  0.21854  0.90024  0.63570  1.0000
  H   H1075     1.0  0.21812  0.91979  0.66772  1.0000
  H   H1076     1.0  0.13886  0.93975  0.70572  1.0000
  C   C636      1.0  0.03073  0.84957  0.62718  1.0000
  C   C637      1.0  0.99505  0.61419  0.49564  1.0000
  Fe  Fe98      1.0  0.00214  0.73669  0.64750  1.0000
  H   H1077     1.0  0.17907  0.88506  0.64435  1.0000
  C   C638      1.0  0.04722  0.88792  0.64494  1.0000
  C   C639      1.0  0.01698  0.68997  0.49593  1.0000
  H   H1078     1.0  0.01102  0.84220  0.60350  1.0000
  C   C640      1.0  0.01558  0.70934  0.53021  1.0000
  H   H1079     1.0  0.00509  0.63167  0.53431  1.0000
  H   H1080     1.0  0.00653  0.89110  0.65842  1.0000
  C   C641      1.0  0.00342  0.71189  0.54588  1.0000
  C   C642      1.0  0.18405  0.93972  0.73308  1.0000
  C   C643      1.0  0.15199  0.96851  0.72548  1.0000
  S   S189      1.0  0.21340  0.98778  0.63930  1.0000
  C   C644      1.0  0.99907  0.85654  0.64274  1.0000
  H   H1081     1.0  0.01189  0.71179  0.73898  1.0000
  H   H1082     1.0  0.20666  0.98843  0.71912  1.0000
  H   H1083     1.0  0.01472  0.67346  0.55073  1.0000
  N   N47       1.0  0.17605  0.98050  0.73625  1.0000
  H   H1084     1.0  0.99206  0.60699  0.50754  1.0000
  C   C645      1.0  0.01399  0.73145  0.73822  1.0000
  C   C646      1.0  0.02535  0.91366  0.62448  1.0000
  C   C647      1.0  0.99024  0.87368  0.65264  1.0000
  C   C648      1.0  0.98645  0.69512  0.60547  1.0000
  H   H1085     1.0  0.01966  0.92119  0.61388  1.0000
  H   H1086     1.0  0.00206  0.73056  0.54617  1.0000
  C   C649      1.0  0.25659  0.98825  0.72042  1.0000
  H   H1087     1.0  0.98396  0.49481  0.52197  1.0000
  H   H1088     1.0  0.26913  0.96484  0.86436  1.0000
  H   H1089     1.0  0.33914  0.95518  0.96993  1.0000
  H   H1090     1.0  0.39868  0.93347  0.98140  1.0000
  Fe  Fe99      1.0  0.98414  0.74271  0.82697  1.0000
  H   H1091     1.0  0.11991  0.79345  0.78450  1.0000
  Fe  Fe100     1.0  0.01605  0.79772  0.81261  1.0000
  S   S190      1.0  0.04427  0.84196  0.81243  1.0000
  S   S191      1.0  0.02428  0.76326  0.81582  1.0000
  Fe  Fe101     1.0  0.19514  0.95705  0.81415  1.0000
  S   S192      1.0  0.23779  0.96649  0.81316  1.0000
  S   S193      1.0  0.16784  0.91594  0.82303  1.0000
  H   H1092     1.0  0.24202  0.91519  0.85610  1.0000
  C   C650      1.0  0.02568  0.68341  0.93291  1.0000
  S   S194      1.0  0.19432  0.97173  0.78990  1.0000
  H   H1093     1.0  0.08579  0.77230  0.78643  1.0000
  S   S195      1.0  0.99573  0.78346  0.78885  1.0000
  C   C651      1.0  0.20350  0.94335  0.85753  1.0000
  C   C652      1.0  0.23262  0.97892  0.87553  1.0000
  H   H1094     1.0  0.26607  0.93664  0.84288  1.0000
  C   C653      1.0  0.00204  0.68810  0.90147  1.0000
  C   C654      1.0  0.34690  0.97305  0.97715  1.0000
  C   C655      1.0  0.07872  0.86198  0.81545  1.0000
  C   C656      1.0  0.09058  0.88738  0.80930  1.0000
  C   C657      1.0  0.11776  0.90409  0.81139  1.0000
  C   C658      1.0  0.13346  0.89571  0.81987  1.0000
  C   C659      1.0  0.12160  0.87034  0.82609  1.0000
  C   C660      1.0  0.09445  0.85353  0.82385  1.0000
  H   H1095     1.0  0.07861  0.89423  0.80289  1.0000
  H   H1096     1.0  0.12649  0.92355  0.80660  1.0000
  H   H1097     1.0  0.13348  0.86366  0.83273  1.0000
  H   H1098     1.0  0.08561  0.83424  0.82885  1.0000
  H   H1099     1.0  0.16145  0.93012  0.85689  1.0000
  H   H1100     1.0  0.07736  0.82355  0.79373  1.0000
  C   C661      1.0  0.00149  0.64171  0.91827  1.0000
  C   C662      1.0  0.02811  0.70894  0.94070  1.0000
  C   C663      1.0  0.11906  0.83423  0.77183  1.0000
  C   C664      1.0  0.00852  0.61120  0.97763  1.0000
  C   C665      1.0  0.10102  0.79333  0.78731  1.0000
  H   H1101     1.0  0.02254  0.60566  0.97269  1.0000
  C   C666      1.0  0.01507  0.74566  0.75218  1.0000
  H   H1102     1.0  0.23233  0.92665  0.83865  1.0000
  H   H1103     1.0  0.17944  0.96071  0.86721  1.0000
  Fe  Fe102     1.0  0.00223  0.74854  0.79234  1.0000
  S   S196      1.0  0.01386  0.73196  0.77095  1.0000
  H   H1104     1.0  0.13993  0.87555  0.77934  1.0000
  H   H1105     1.0  0.11590  0.85676  0.79267  1.0000
  H   H1106     1.0  0.12951  0.97147  0.75288  1.0000
  H   H1107     1.0  0.24994  0.91611  0.88420  1.0000
  S   S197      1.0  0.24980  0.97086  0.76700  1.0000
  C   C667      1.0  0.10281  0.78346  0.75279  1.0000
  C   C668      1.0  0.01261  0.62629  0.92781  1.0000
  H   H1108     1.0  0.24326  0.92917  0.90162  1.0000
  H   H1109     1.0  0.08323  0.79614  0.80967  1.0000
  H   H1110     1.0  0.01213  0.61017  0.92013  1.0000
  H   H1111     1.0  0.05474  0.79591  0.78283  1.0000
  H   H1112     1.0  0.01523  0.71616  0.93521  1.0000
  C   C669      1.0  0.17841  0.94111  0.86520  1.0000
  C   C670      1.0  0.18082  0.95964  0.74408  1.0000
  C   C671      1.0  0.07307  0.81472  0.78165  1.0000
  H   H1113     1.0  0.14591  0.85413  0.79214  1.0000
  H   H1114     1.0  0.11030  0.78946  0.81182  1.0000
  H   H1115     1.0  0.21091  0.91254  0.87544  1.0000
  C   C672      1.0  0.01822  0.77115  0.75102  1.0000
  H   H1116     1.0  0.01449  0.64952  0.90804  1.0000
  H   H1117     1.0  0.43849  0.98468  0.97325  1.0000
  H   H1118     1.0  0.11639  0.82199  0.80760  1.0000
  H   H1119     1.0  0.03362  0.67494  0.94195  1.0000
  H   H1120     1.0  0.04999  0.83511  0.77720  1.0000
  H   H1121     1.0  0.99160  0.69721  0.89490  1.0000
  C   C673      1.0  0.13068  0.85602  0.78486  1.0000
  H   H1122     1.0  0.00379  0.67405  0.89303  1.0000
  Fe  Fe103     1.0  0.23725  0.98372  0.78945  1.0000
  C   C674      1.0  0.06650  0.83328  0.77170  1.0000
  H   H1123     1.0  0.21568  0.97695  0.88254  1.0000
  H   H1124     1.0  0.04016  0.68874  0.92332  1.0000
  H   H1125     1.0  0.08318  0.85336  0.77159  1.0000
  N   N48       1.0  0.09479  0.80944  0.77565  1.0000
  C   C675      1.0  0.10284  0.80109  0.80501  1.0000
  H   H1126     1.0  0.21042  0.93475  0.89012  1.0000
  H   H1127     1.0  0.40371  0.97221  0.96873  1.0000
  N   N49       1.0  0.22767  0.95284  0.86819  1.0000
  H   H1128     1.0  0.02446  0.70652  0.95357  1.0000
  C   C676      1.0  0.25017  0.95685  0.85775  1.0000
  H   H1129     1.0  0.15085  0.96824  0.76778  1.0000
  C   C677      1.0  0.22267  0.93272  0.88067  1.0000
  H   H1130     1.0  0.10739  0.77079  0.76063  1.0000
  H   H1131     1.0  0.99269  0.64859  0.95112  1.0000
  H   H1132     1.0  0.00067  0.61695  0.93815  1.0000
  C   C678      1.0  0.24698  0.93274  0.88883  1.0000
  C   C679      1.0  0.14816  0.98193  0.75981  1.0000
  C   C680      1.0  0.08452  0.79298  0.76058  1.0000
  H   H1133     1.0  0.03334  0.63873  0.93163  1.0000
  H   H1134     1.0  0.17404  0.93021  0.87634  1.0000
  H   H1135     1.0  0.20732  0.95632  0.84723  1.0000
  H   H1136     1.0  0.26552  0.95109  0.88811  1.0000
  C   C681      1.0  0.24715  0.93220  0.84844  1.0000
  H   H1137     1.0  0.11585  0.84315  0.76096  1.0000
  H   H1138     1.0  0.07971  0.80366  0.75132  1.0000
  H   H1139     1.0  0.25319  0.97207  0.84892  1.0000
  H   H1140     1.0  0.13525  0.82970  0.76870  1.0000
  H   H1141     1.0  0.06002  0.82582  0.75943  1.0000
  H   H1142     1.0  0.98575  0.68111  0.84409  1.0000
  H   H1143     1.0  0.06592  0.77503  0.76278  1.0000
  H   H1144     1.0  0.04831  0.72495  0.93916  1.0000
  N   N50       1.0  0.99872  0.66325  0.92723  1.0000
  H   H1145     1.0  0.01983  0.78261  0.76154  1.0000
  H   H1146     1.0  0.19857  0.96890  0.75207  1.0000
  H   H1147     1.0  0.02169  0.70416  0.90485  1.0000
  H   H1148     1.0  0.41725  0.48975  0.98559  1.0000
  C   C682      1.0  0.42079  0.98690  0.97580  1.0000
  H   H1149     1.0  0.19808  0.92346  0.85240  1.0000
  H   H1150     1.0  0.37463  0.94271  0.98749  1.0000
  H   H1151     1.0  0.09255  0.77122  0.74210  1.0000
  C   C683      1.0  0.98390  0.60274  0.96990  1.0000
  H   H1152     1.0  0.12112  0.79999  0.74874  1.0000
  H   H1153     1.0  0.16436  0.94739  0.75172  1.0000
  C   C684      1.0  0.25603  0.98855  0.74933  1.0000
  H   H1154     1.0  0.25308  0.98159  0.89820  1.0000
  C   C685      1.0  0.98597  0.67429  0.91597  1.0000
  H   H1155     1.0  0.18967  0.92717  0.74042  1.0000
  Fe  Fe104     1.0  0.95506  0.18953  0.15844  1.0000
  S   S198      1.0  0.96503  0.23049  0.16745  1.0000
  S   S199      1.0  0.91754  0.15422  0.16648  1.0000
  H   H1156     1.0  0.69696  0.99094  0.11029  1.0000
  H   H1157     1.0  0.82997  0.01956  0.10417  1.0000
  C   C686      1.0  0.88138  0.00951  0.13448  1.0000
  H   H1158     1.0  0.86987  0.00415  0.16602  1.0000
  H   H1159     1.0  0.93125  0.08564  0.14001  1.0000
  Fe  Fe105     1.0  0.78311  0.02354  0.14875  1.0000
  S   S200      1.0  0.74260  0.01626  0.15571  1.0000
  S   S201      1.0  0.81280  0.06019  0.13656  1.0000
  H   H1160     1.0  0.73438  0.11637  0.16916  1.0000
  H   H1161     1.0  0.77680  0.14013  0.16209  1.0000
  C   C687      1.0  0.74829  0.99986  0.21952  1.0000
  H   H1162     1.0  0.84092  0.03268  0.15111  1.0000
  H   H1163     1.0  0.83218  0.99998  0.14596  1.0000
  H   H1164     1.0  0.84185  0.99696  0.10915  1.0000
  H   H1165     1.0  0.89172  0.01381  0.12306  1.0000
  C   C688      1.0  0.85779  0.01455  0.16639  1.0000
  H   H1166     1.0  0.73139  0.07953  0.13332  1.0000
  H   H1167     1.0  0.84224  0.13448  0.16412  1.0000
  C   C689      1.0  0.88981  0.12729  0.15744  1.0000
  C   C690      1.0  0.87319  0.10673  0.16701  1.0000
  C   C691      1.0  0.84999  0.08567  0.16074  1.0000
  C   C692      1.0  0.84292  0.08510  0.14479  1.0000
  C   C693      1.0  0.85975  0.10539  0.13513  1.0000
  C   C694      1.0  0.88314  0.12631  0.14138  1.0000
  H   H1168     1.0  0.87819  0.10730  0.17945  1.0000
  H   H1169     1.0  0.83743  0.07017  0.16833  1.0000
  H   H1170     1.0  0.85450  0.10516  0.12277  1.0000
  H   H1171     1.0  0.89568  0.14202  0.13388  1.0000
  S   S202      1.0  0.74205  0.01237  0.20188  1.0000
  H   H1172     1.0  0.85475  0.05054  0.12488  1.0000
  H   H1173     1.0  0.81245  0.05233  0.22582  1.0000
  H   H1174     1.0  0.97853  0.31568  0.11128  1.0000
  H   H1175     1.0  0.84015  0.00232  0.17323  1.0000
  H   H1176     1.0  0.74565  0.11167  0.14249  1.0000
  H   H1177     1.0  0.72844  0.01576  0.23420  1.0000
  H   H1178     1.0  0.96828  0.31704  0.04106  1.0000
  H   H1179     1.0  0.74502  0.07194  0.15814  1.0000
  H   H1180     1.0  0.76334  0.10306  0.12792  1.0000
  H   H1181     1.0  0.90157  0.05082  0.15509  1.0000
  H   H1182     1.0  0.92303  0.05699  0.12780  1.0000
  H   H1183     1.0  0.67159  0.99170  0.08638  1.0000
  S   S203      1.0  0.97397  0.20396  0.13497  1.0000
  N   N51       1.0  0.78355  0.10613  0.16116  1.0000
  C   C695      1.0  0.80536  0.12216  0.15017  1.0000
  H   H1184     1.0  0.76843  0.07245  0.14497  1.0000
  C   C696      1.0  0.79379  0.09267  0.17237  1.0000
  C   C697      1.0  0.83114  0.14327  0.15802  1.0000
  C   C698      1.0  0.96879  0.34580  0.99717  1.0000
  H   H1185     1.0  0.81043  0.10917  0.14263  1.0000
  H   H1186     1.0  0.79899  0.13290  0.14178  1.0000
  H   H1187     1.0  0.95575  0.33725  0.00686  1.0000
  H   H1188     1.0  0.79976  0.07960  0.16562  1.0000
  H   H1189     1.0  0.81156  0.10710  0.17905  1.0000
  H   H1190     1.0  0.78987  0.13465  0.17997  1.0000
  H   H1191     1.0  0.84414  0.15553  0.14866  1.0000
  H   H1192     1.0  0.82793  0.15663  0.16629  1.0000
  C   C699      1.0  0.91501  0.06944  0.13312  1.0000
  H   H1193     1.0  0.96692  0.22864  0.20809  1.0000
  C   C700      1.0  0.62493  0.00995  0.99285  1.0000
  C   C701      1.0  0.74775  0.11204  0.17674  1.0000
  C   C702      1.0  0.89231  0.05409  0.14428  1.0000
  C   C703      1.0  0.75003  0.09592  0.13805  1.0000
  H   H1194     1.0  0.75643  0.06016  0.18022  1.0000
  H   H1195     1.0  0.95716  0.27095  0.04434  1.0000
  H   H1196     1.0  0.73868  0.09073  0.17872  1.0000
  C   C704      1.0  0.83651  0.01170  0.11425  1.0000
  C   C705      1.0  0.97787  0.23280  0.21919  1.0000
  H   H1197     1.0  0.97720  0.32298  0.07724  1.0000
  S   S204      1.0  0.79232  0.01021  0.17161  1.0000
  C   C706      1.0  0.86021  0.03455  0.12264  1.0000
  H   H1198     1.0  0.97636  0.43313  0.99025  1.0000
  H   H1199     1.0  0.63112  0.02678  0.00085  1.0000
  H   H1200     1.0  0.78469  0.06594  0.19174  1.0000
  H   H1201     1.0  0.77145  0.08825  0.19398  1.0000
  H   H1202     1.0  0.94752  0.30128  0.06623  1.0000
  N   N52       1.0  0.87049  0.02850  0.13770  1.0000
  H   H1203     1.0  0.96491  0.27308  0.06456  1.0000
  H   H1204     1.0  0.96566  0.23566  0.04659  1.0000
  H   H1205     1.0  0.88448  0.06772  0.14808  1.0000
  C   C707      1.0  0.77567  0.12435  0.16999  1.0000
  H   H1206     1.0  0.57696  0.99306  0.07536  1.0000
  C   C708      1.0  0.76158  0.08548  0.15105  1.0000
  H   H1207     1.0  0.87560  0.04203  0.11360  1.0000
  H   H1208     1.0  0.74854  0.12159  0.18842  1.0000
  H   H1209     1.0  0.90900  0.07895  0.12372  1.0000
  H   H1210     1.0  0.94424  0.22452  0.23345  1.0000
  C   C709      1.0  0.77514  0.07593  0.18515  1.0000
  H   H1211     1.0  0.62933  0.00107  0.11742  1.0000
  H   H1212     1.0  0.96019  0.33604  0.06556  1.0000
  C   C710      1.0  0.97396  0.27575  0.05276  1.0000
  Fe  Fe106     1.0  0.75117  0.00019  0.17798  1.0000
  H   H1213     1.0  0.86862  0.03356  0.17303  1.0000
  C   C711      1.0  0.81061  0.04720  0.23850  1.0000
  H   H1214     1.0  0.59500  0.99625  0.10011  1.0000
  H   H1215     1.0  0.95060  0.26960  0.20459  1.0000
  H   H1216     1.0  0.95279  0.27381  0.18372  1.0000
  C   C712      1.0  0.84923  0.01872  0.14974  1.0000
  H   H1217     1.0  0.95963  0.30151  0.19686  1.0000
  C   C713      1.0  0.96502  0.23039  0.23358  1.0000
  C   C714      1.0  0.96186  0.28347  0.19529  1.0000
  H   H1218     1.0  0.81945  0.00233  0.12193  1.0000
  C   C715      1.0  0.96593  0.32006  0.06604  1.0000
  C   C716      1.0  0.73934  0.00466  0.23399  1.0000
  H   H1219     1.0  0.89650  0.01219  0.14372  1.0000
  H   H1220     1.0  0.97357  0.40028  0.99025  1.0000
  H   H1221     1.0  0.81149  0.02838  0.23920  1.0000
  H   H1222     1.0  0.97973  0.30806  0.01857  1.0000
  C   C717      1.0  0.98200  0.32135  0.05134  1.0000
  H   H1223     1.0  0.97891  0.27632  0.02060  1.0000
  H   H1224     1.0  0.98135  0.31030  0.17010  1.0000
  C   C718      1.0  0.98252  0.25406  0.05121  1.0000
  H   H1225     1.0  0.88604  0.11809  0.36902  1.0000
  S   S205      1.0  0.95373  0.21126  0.31091  1.0000
  S   S206      1.0  0.93622  0.13405  0.31507  1.0000
  H   H1226     1.0  0.97735  0.17349  0.36263  1.0000
  H   H1227     1.0  0.56044  0.99120  0.39106  1.0000
  C   C719      1.0  0.88304  0.27580  0.48264  1.0000
  H   H1228     1.0  0.93460  0.18619  0.39484  1.0000
  H   H1229     1.0  0.84813  0.23658  0.46367  1.0000
  Fe  Fe107     1.0  0.78674  0.01966  0.31653  1.0000
  C   C720      1.0  0.90983  0.19881  0.34271  1.0000
  S   S207      1.0  0.81173  0.06447  0.31768  1.0000
  C   C721      1.0  0.97143  0.42929  0.47536  1.0000
  C   C722      1.0  0.74410  0.99487  0.24819  1.0000
  H   H1230     1.0  0.92976  0.21579  0.34299  1.0000
  H   H1231     1.0  0.89973  0.10125  0.35759  1.0000
  H   H1232     1.0  0.88353  0.28332  0.45707  1.0000
  Fe  Fe108     1.0  0.96312  0.17740  0.31019  1.0000
  H   H1233     1.0  0.95329  0.35563  0.46363  1.0000
  H   H1234     1.0  0.82223  0.00323  0.26945  1.0000
  H   H1235     1.0  0.86715  0.12236  0.27797  1.0000
  H   H1236     1.0  0.62702  0.99787  0.38740  1.0000
  H   H1237     1.0  0.82543  0.10192  0.26875  1.0000
  C   C723      1.0  0.78757  0.06896  0.26879  1.0000
  C   C724      1.0  0.91019  0.17227  0.34466  1.0000
  H   H1238     1.0  0.85970  0.07854  0.28587  1.0000
  C   C725      1.0  0.90148  0.11499  0.31500  1.0000
  C   C726      1.0  0.89063  0.08799  0.31795  1.0000
  C   C727      1.0  0.86326  0.07218  0.31868  1.0000
  C   C728      1.0  0.84636  0.08330  0.31670  1.0000
  C   C729      1.0  0.85720  0.11031  0.31371  1.0000
  C   C730      1.0  0.88455  0.12601  0.31267  1.0000
  H   H1239     1.0  0.90351  0.07923  0.31977  1.0000
  H   H1240     1.0  0.85525  0.05146  0.32098  1.0000
  H   H1241     1.0  0.84431  0.11910  0.31207  1.0000
  H   H1242     1.0  0.89250  0.14664  0.31015  1.0000
  H   H1243     1.0  0.73674  0.99828  0.25922  1.0000
  H   H1244     1.0  0.77905  0.07936  0.27598  1.0000
  N   N53       1.0  0.83194  0.06769  0.26606  1.0000
  C   C731      1.0  0.97881  0.23528  0.24815  1.0000
  C   C732      1.0  0.83310  0.06940  0.24825  1.0000
  H   H1245     1.0  0.57654  0.04971  0.47334  1.0000
  H   H1246     1.0  0.81483  0.22406  0.47030  1.0000
  H   H1247     1.0  0.85142  0.06975  0.24388  1.0000
  H   H1248     1.0  0.93420  0.43814  0.48940  1.0000
  H   H1249     1.0  0.95089  0.41888  0.47074  1.0000
  H   H1250     1.0  0.81670  0.03959  0.28462  1.0000
  H   H1251     1.0  0.90168  0.16084  0.39800  1.0000
  C   C733      1.0  0.87469  0.11145  0.27045  1.0000
  H   H1252     1.0  0.79971  0.02783  0.26635  1.0000
  H   H1253     1.0  0.93413  0.14246  0.34741  1.0000
  H   H1254     1.0  0.87193  0.07322  0.26784  1.0000
  H   H1255     1.0  0.89554  0.11864  0.27422  1.0000
  C   C734      1.0  0.90920  0.17198  0.37348  1.0000
  H   H1256     1.0  0.84202  0.21977  0.48939  1.0000
  C   C735      1.0  0.81964  0.03983  0.27161  1.0000
  C   C736      1.0  0.89686  0.11909  0.35813  1.0000
  H   H1257     1.0  0.89763  0.20197  0.35165  1.0000
  S   S208      1.0  0.96231  0.23331  0.26601  1.0000
  C   C737      1.0  0.83530  0.02461  0.26833  1.0000
  H   H1258     1.0  0.90028  0.39599  0.48635  1.0000
  H   H1259     1.0  0.61619  0.05462  0.48248  1.0000
  H   H1260     1.0  0.78381  0.07177  0.25627  1.0000
  H   H1261     1.0  0.92441  0.15197  0.38989  1.0000
  C   C738      1.0  0.91839  0.16764  0.38986  1.0000
  N   N54       1.0  0.92390  0.16982  0.35943  1.0000
  H   H1262     1.0  0.97925  0.45075  0.47409  1.0000
  H   H1263     1.0  0.95907  0.19651  0.34750  1.0000
  C   C739      1.0  0.81717  0.08137  0.27277  1.0000
  H   H1264     1.0  0.83408  0.08829  0.24445  1.0000
  H   H1265     1.0  0.90080  0.31281  0.46936  1.0000
  H   H1266     1.0  0.95231  0.21052  0.36454  1.0000
  H   H1267     1.0  0.91942  0.16894  0.33395  1.0000
  C   C740      1.0  0.92397  0.14360  0.35825  1.0000
  H   H1268     1.0  0.84407  0.28265  0.46461  1.0000
  H   H1269     1.0  0.54204  0.02652  0.47384  1.0000
  H   H1270     1.0  0.96744  0.18197  0.38122  1.0000
  C   C741      1.0  0.85958  0.08158  0.27293  1.0000
  H   H1271     1.0  0.88773  0.15883  0.37202  1.0000
  H   H1272     1.0  0.88463  0.11770  0.34757  1.0000
  C   C742      1.0  0.97075  0.35953  0.47053  1.0000
  H   H1273     1.0  0.81935  0.08286  0.28591  1.0000
  H   H1274     1.0  0.93549  0.14097  0.36802  1.0000
  H   H1275     1.0  0.84332  0.02777  0.25629  1.0000
  H   H1276     1.0  0.91057  0.19193  0.37435  1.0000
  H   H1277     1.0  0.90085  0.19862  0.33095  1.0000
  H   H1278     1.0  0.77674  0.04801  0.27186  1.0000
  H   H1279     1.0  0.81879  0.26493  0.47745  1.0000
  H   H1280     1.0  0.87120  0.31635  0.48319  1.0000
  H   H1281     1.0  0.61537  0.08560  0.48673  1.0000
  H   H1282     1.0  0.88931  0.15706  0.34396  1.0000
  H   H1283     1.0  0.66137  0.02559  0.47330  1.0000
  C   C743      1.0  0.83793  0.26689  0.47345  1.0000
  S   S209      1.0  0.74829  0.00450  0.30266  1.0000
  H   H1284     1.0  0.87435  0.11644  0.25789  1.0000
  H   H1285     1.0  0.60161  0.99901  0.39859  1.0000
  H   H1286     1.0  0.60693  0.01048  0.37850  1.0000
  H   H1287     1.0  0.85156  0.03021  0.27721  1.0000
  H   H1288     1.0  0.56750  0.99918  0.36402  1.0000
  H   H1289     1.0  0.82531  0.24174  0.45222  1.0000
  C   C744      1.0  0.83128  0.24073  0.46465  1.0000
  H   H1290     1.0  0.60250  0.00226  0.35019  1.0000
  C   C745      1.0  0.95164  0.19201  0.35974  1.0000
  S   S210      1.0  0.76861  0.99190  0.33664  1.0000
  C   C746      1.0  0.64477  0.01145  0.47959  1.0000
  H   H1291     1.0  0.91475  0.29143  0.46604  1.0000
  S   S211      1.0  0.79946  0.99303  0.30387  1.0000
  C   C747      1.0  0.60670  0.99535  0.38651  1.0000
  H   H1292     1.0  0.88129  0.25605  0.48018  1.0000
  C   C748      1.0  0.89587  0.29183  0.46793  1.0000
  C   C749      1.0  0.96879  0.35441  0.48681  1.0000
  C   C750      1.0  0.56222  0.02994  0.47693  1.0000
  H   H1293     1.0  0.56549  0.01577  0.46934  1.0000
  N   N55       1.0  0.85728  0.27470  0.48719  1.0000
  C   C751      1.0  0.97277  0.18795  0.36893  1.0000
  Fe  Fe109     1.0  0.97750  0.22396  0.28873  1.0000
  H   H1294     1.0  0.79103  0.04400  0.24202  1.0000
  H   H1295     1.0  0.98308  0.42289  0.46771  1.0000
  H   H1296     1.0  0.54623  0.48924  0.48918  1.0000
  H   H1297     1.0  0.82504  0.30228  0.48976  1.0000
  C   C752      1.0  0.55205  0.30953  0.56648  1.0000
  Fe  Fe110     1.0  0.64453  0.10228  0.54530  1.0000
  S   S212      1.0  0.67268  0.11233  0.52500  1.0000
  S   S213      1.0  0.60879  0.10980  0.53981  1.0000
  Fe  Fe111     1.0  0.67476  0.07780  0.56341  1.0000
  S   S214      1.0  0.70305  0.08553  0.54398  1.0000
  S   S215      1.0  0.67465  0.05428  0.58515  1.0000
  Fe  Fe112     1.0  0.70578  0.12606  0.54330  1.0000
  S   S216      1.0  0.74936  0.15729  0.54111  1.0000
  Fe  Fe113     1.0  0.66809  0.07144  0.52722  1.0000
  S   S217      1.0  0.66512  0.04699  0.50472  1.0000
  S   S218      1.0  0.67820  0.11873  0.56364  1.0000
  S   S219      1.0  0.63924  0.06096  0.54668  1.0000
  H   H1298     1.0  0.48781  0.30613  0.53750  1.0000
  N   N56       1.0  0.96111  0.43143  0.50483  1.0000
  Fe  Fe114     1.0  0.92636  0.33455  0.52168  1.0000
  S   S220      1.0  0.95257  0.35381  0.54294  1.0000
  H   H1299     1.0  0.97081  0.46533  0.53273  1.0000
  Fe  Fe115     1.0  0.87695  0.30681  0.54204  1.0000
  S   S221      1.0  0.90018  0.32577  0.56456  1.0000
  S   S222      1.0  0.83222  0.28045  0.54236  1.0000
  Fe  Fe116     1.0  0.92035  0.36330  0.55084  1.0000
  S   S223      1.0  0.93238  0.40527  0.56055  1.0000
  Fe  Fe117     1.0  0.93025  0.31493  0.55486  1.0000
  S   S224      1.0  0.94675  0.28957  0.56649  1.0000
  S   S225      1.0  0.89492  0.34521  0.52920  1.0000
  S   S226      1.0  0.90616  0.29479  0.53270  1.0000
  H   H1300     1.0  0.52537  0.11436  0.53299  1.0000
  C   C753      1.0  0.93619  0.20719  0.73360  1.0000
  H   H1301     1.0  0.67751  0.00742  0.57441  1.0000
  S   S227      1.0  0.74414  0.99395  0.69881  1.0000
  S   S228      1.0  0.94944  0.14229  0.63116  1.0000
  S   S229      1.0  0.96023  0.20293  0.65818  1.0000
  Fe  Fe118     1.0  0.82003  0.02445  0.66143  1.0000
  S   S230      1.0  0.78909  0.03757  0.66420  1.0000
  S   S231      1.0  0.86065  0.05355  0.67078  1.0000
  Fe  Fe119     1.0  0.77212  0.01609  0.64090  1.0000
  C   C754      1.0  0.61985  0.99839  0.50337  1.0000
  H   H1302     1.0  0.51790  0.31261  0.52857  1.0000
  H   H1303     1.0  0.92684  0.23724  0.72345  1.0000
  H   H1304     1.0  0.53802  0.34533  0.58423  1.0000
  C   C755      1.0  0.60554  0.05865  0.50685  1.0000
  C   C756      1.0  0.92555  0.11744  0.64248  1.0000
  C   C757      1.0  0.92097  0.12253  0.65803  1.0000
  C   C758      1.0  0.90101  0.10274  0.66654  1.0000
  C   C759      1.0  0.88523  0.07785  0.65952  1.0000
  C   C760      1.0  0.89003  0.07263  0.64403  1.0000
  C   C761      1.0  0.91016  0.09237  0.63556  1.0000
  H   H1305     1.0  0.93283  0.14169  0.66353  1.0000
  H   H1306     1.0  0.89772  0.10678  0.67860  1.0000
  H   H1307     1.0  0.87846  0.05329  0.63869  1.0000
  H   H1308     1.0  0.91388  0.08820  0.62361  1.0000
  S   S232      1.0  0.97793  0.27012  0.63628  1.0000
  H   H1309     1.0  0.50421  0.14080  0.59998  1.0000
  C   C762      1.0  0.95380  0.28382  0.58621  1.0000
  C   C763      1.0  0.95831  0.26211  0.58896  1.0000
  C   C764      1.0  0.96501  0.25721  0.60423  1.0000
  C   C765      1.0  0.96758  0.27416  0.61698  1.0000
  C   C766      1.0  0.70743  0.02135  0.54769  1.0000
  C   C767      1.0  0.95581  0.30047  0.59903  1.0000
  H   H1310     1.0  0.51370  0.35619  0.57991  1.0000
  H   H1311     1.0  0.52652  0.04053  0.49714  1.0000
  C   C768      1.0  0.93389  0.42614  0.49966  1.0000
  C   C769      1.0  0.92559  0.43164  0.55507  1.0000
  C   C770      1.0  0.90753  0.42900  0.54297  1.0000
  H   H1312     1.0  0.54490  0.02890  0.52302  1.0000
  H   H1313     1.0  0.90286  0.38788  0.50661  1.0000
  N   N57       1.0  0.67986  0.99967  0.54942  1.0000
  C   C771      1.0  0.93930  0.45628  0.56297  1.0000
  H   H1314     1.0  0.89665  0.41026  0.53680  1.0000
  H   H1315     1.0  0.50465  0.35208  0.54775  1.0000
  H   H1316     1.0  0.54113  0.38401  0.53141  1.0000
  H   H1317     1.0  0.95332  0.45872  0.57234  1.0000
  C   C772      1.0  0.67694  0.99151  0.56647  1.0000
  C   C773      1.0  0.53701  0.43452  0.55364  1.0000
  C   C774      1.0  0.56183  0.44466  0.56136  1.0000
  C   C775      1.0  0.58256  0.46947  0.55766  1.0000
  C   C776      1.0  0.64135  0.01702  0.49541  1.0000
  C   C777      1.0  0.55403  0.47470  0.53848  1.0000
  C   C778      1.0  0.53333  0.44981  0.54212  1.0000
  H   H1318     1.0  0.56508  0.43313  0.57026  1.0000
  H   H1319     1.0  0.95716  0.22128  0.73563  1.0000
  H   H1320     1.0  0.93797  0.22093  0.70975  1.0000
  H   H1321     1.0  0.51447  0.44250  0.53606  1.0000
  C   C779      1.0  0.74002  0.04164  0.61029  1.0000
  C   C780      1.0  0.74554  0.05710  0.59676  1.0000
  C   C781      1.0  0.72601  0.06151  0.58906  1.0000
  C   C782      1.0  0.70051  0.05037  0.59474  1.0000
  C   C783      1.0  0.69491  0.03466  0.60815  1.0000
  C   C784      1.0  0.71449  0.03037  0.61591  1.0000
  H   H1322     1.0  0.73070  0.07360  0.57877  1.0000
  H   H1323     1.0  0.67526  0.02582  0.61264  1.0000
  H   H1324     1.0  0.70982  0.01841  0.62626  1.0000
  S   S233      1.0  0.51163  0.40286  0.55895  1.0000
  H   H1325     1.0  0.52100  0.27702  0.54185  1.0000
  C   C785      1.0  0.50246  0.27847  0.54218  1.0000
  C   C786      1.0  0.77186  0.19174  0.54133  1.0000
  C   C787      1.0  0.76397  0.21124  0.54355  1.0000
  C   C788      1.0  0.78263  0.23815  0.54365  1.0000
  C   C789      1.0  0.80948  0.24610  0.54157  1.0000
  C   C790      1.0  0.81740  0.22665  0.53934  1.0000
  C   C791      1.0  0.79877  0.19975  0.53924  1.0000
  H   H1326     1.0  0.74346  0.20559  0.54519  1.0000
  H   H1327     1.0  0.77614  0.25291  0.54544  1.0000
  H   H1328     1.0  0.83790  0.23234  0.53776  1.0000
  H   H1329     1.0  0.80519  0.18494  0.53750  1.0000
  C   C792      1.0  0.52672  0.09825  0.55551  1.0000
  C   C793      1.0  0.54210  0.09098  0.56543  1.0000
  C   C794      1.0  0.56690  0.09395  0.56082  1.0000
  C   C795      1.0  0.57709  0.10470  0.54623  1.0000
  C   C796      1.0  0.56165  0.11185  0.53628  1.0000
  C   C797      1.0  0.53667  0.10849  0.54078  1.0000
  H   H1330     1.0  0.53485  0.08309  0.57686  1.0000
  H   H1331     1.0  0.57833  0.08836  0.56869  1.0000
  H   H1332     1.0  0.56919  0.12036  0.52502  1.0000
  H   H1333     1.0  0.94795  0.39538  0.51763  1.0000
  H   H1334     1.0  0.92475  0.43272  0.50906  1.0000
  H   H1335     1.0  0.57495  0.05343  0.53145  1.0000
  H   H1336     1.0  0.55782  0.32857  0.54398  1.0000
  H   H1337     1.0  0.96848  0.24047  0.60608  1.0000
  H   H1338     1.0  0.66619  0.02834  0.55395  1.0000
  N   N58       1.0  0.57603  0.04666  0.50618  1.0000
  C   C798      1.0  0.84816  0.23093  0.50076  1.0000
  S   S234      1.0  0.76584  0.03728  0.61955  1.0000
  H   H1339     1.0  0.92339  0.38512  0.49171  1.0000
  C   C799      1.0  0.90327  0.45059  0.53896  1.0000
  C   C800      1.0  0.50588  0.31899  0.56770  1.0000
  C   C801      1.0  0.51691  0.33879  0.58182  1.0000
  H   H1340     1.0  0.57849  0.08480  0.51125  1.0000
  Fe  Fe120     1.0  0.76636  0.99908  0.67599  1.0000
  H   H1341     1.0  0.48730  0.11031  0.62170  1.0000
  H   H1342     1.0  0.48580  0.31637  0.56502  1.0000
  H   H1343     1.0  0.73492  0.04961  0.53186  1.0000
  H   H1344     1.0  0.76510  0.06575  0.59220  1.0000
  H   H1345     1.0  0.50615  0.32939  0.59260  1.0000
  H   H1346     1.0  0.54386  0.00997  0.49781  1.0000
  H   H1347     1.0  0.70184  0.03987  0.52616  1.0000
  H   H1348     1.0  0.49180  0.26993  0.55308  1.0000
  C   C802      1.0  0.74408  0.99193  0.73135  1.0000
  C   C803      1.0  0.83982  0.30529  0.49920  1.0000
  H   H1349     1.0  0.85483  0.26678  0.51233  1.0000
  H   H1350     1.0  0.52366  0.35239  0.52213  1.0000
  S   S235      1.0  0.93741  0.34173  0.49564  1.0000
  H   H1351     1.0  0.72211  0.01461  0.55086  1.0000
  H   H1352     1.0  0.83531  0.21778  0.50985  1.0000
  N   N59       1.0  0.85683  0.24907  0.58874  1.0000
  C   C804      1.0  0.83016  0.23151  0.58130  1.0000
  C   C805      1.0  0.87667  0.25514  0.57600  1.0000
  C   C806      1.0  0.85674  0.27427  0.59405  1.0000
  C   C807      1.0  0.86162  0.23534  0.60253  1.0000
  C   C808      1.0  0.80641  0.22411  0.59198  1.0000
  C   C809      1.0  0.87675  0.23107  0.56759  1.0000
  C   C810      1.0  0.88197  0.29536  0.60229  1.0000
  C   C811      1.0  0.89048  0.24297  0.60705  1.0000
  H   H1353     1.0  0.82670  0.24090  0.57077  1.0000
  H   H1354     1.0  0.82887  0.21253  0.57696  1.0000
  H   H1355     1.0  0.89684  0.26770  0.58067  1.0000
  H   H1356     1.0  0.87351  0.26682  0.56660  1.0000
  H   H1357     1.0  0.85215  0.28355  0.58378  1.0000
  H   H1358     1.0  0.84110  0.27045  0.60266  1.0000
  H   H1359     1.0  0.85249  0.23843  0.61335  1.0000
  H   H1360     1.0  0.85184  0.21366  0.60033  1.0000
  H   H1361     1.0  0.78877  0.20817  0.58593  1.0000
  H   H1362     1.0  0.80896  0.21669  0.60354  1.0000
  H   H1363     1.0  0.80193  0.24078  0.59378  1.0000
  H   H1364     1.0  0.89543  0.23751  0.56128  1.0000
  H   H1365     1.0  0.87501  0.21571  0.57589  1.0000
  H   H1366     1.0  0.86066  0.22227  0.55854  1.0000
  H   H1367     1.0  0.88418  0.28971  0.61447  1.0000
  H   H1368     1.0  0.88041  0.31388  0.60350  1.0000
  H   H1369     1.0  0.89988  0.30012  0.59557  1.0000
  H   H1370     1.0  0.89984  0.23611  0.59801  1.0000
  H   H1371     1.0  0.89107  0.23331  0.61819  1.0000
  H   H1372     1.0  0.90285  0.26425  0.60916  1.0000
  C   C812      1.0  0.56426  0.02370  0.49447  1.0000
  H   H1373     1.0  0.86909  0.00694  0.73600  1.0000
  H   H1374     1.0  0.53608  0.36844  0.55716  1.0000
  H   H1375     1.0  0.81366  0.99790  0.73517  1.0000
  C   C813      1.0  0.57886  0.48482  0.54618  1.0000
  C   C814      1.0  0.93509  0.47788  0.55894  1.0000
  H   H1376     1.0  0.48989  0.26589  0.53219  1.0000
  H   H1377     1.0  0.87873  0.30923  0.50229  1.0000
  C   C815      1.0  0.61986  0.07029  0.49150  1.0000
  H   H1378     1.0  0.94772  0.42147  0.52868  1.0000
  C   C816      1.0  0.95918  0.41702  0.51982  1.0000
  H   H1379     1.0  0.53245  0.05891  0.51572  1.0000
  H   H1380     1.0  0.83026  0.29220  0.50911  1.0000
  C   C817      1.0  0.56652  0.03693  0.52249  1.0000
  H   H1381     1.0  0.61203  0.04397  0.51020  1.0000
  C   C818      1.0  0.84565  0.25654  0.50085  1.0000
  H   H1382     1.0  0.67192  0.99610  0.51664  1.0000
  H   H1383     1.0  0.93613  0.18911  0.72859  1.0000
  H   H1384     1.0  0.56241  0.34922  0.56087  1.0000
  H   H1385     1.0  0.95260  0.31735  0.59714  1.0000
  H   H1386     1.0  0.88910  0.44816  0.52969  1.0000
  H   H1387     1.0  0.61705  0.00213  0.51554  1.0000
  H   H1388     1.0  0.71125  0.03808  0.55603  1.0000
  H   H1389     1.0  0.56256  0.00828  0.54005  1.0000
  H   H1390     1.0  0.56385  0.99718  0.52039  1.0000
  C   C819      1.0  0.48348  0.12526  0.59924  1.0000
  C   C820      1.0  0.91694  0.47523  0.54691  1.0000
  H   H1391     1.0  0.53429  0.29054  0.56755  1.0000
  N   N60       1.0  0.84024  0.10451  0.62251  1.0000
  C   C821      1.0  0.83466  0.08854  0.63725  1.0000
  C   C822      1.0  0.83576  0.08598  0.60859  1.0000
  C   C823      1.0  0.82084  0.11536  0.62173  1.0000
  C   C824      1.0  0.86807  0.12628  0.62394  1.0000
  C   C825      1.0  0.83709  0.10352  0.65305  1.0000
  C   C826      1.0  0.85430  0.07341  0.60777  1.0000
  C   C827      1.0  0.81647  0.12494  0.60559  1.0000
  C   C828      1.0  0.88043  0.14205  0.60908  1.0000
  H   H1392     1.0  0.81463  0.07155  0.63648  1.0000
  H   H1393     1.0  0.84807  0.07975  0.63854  1.0000
  H   H1394     1.0  0.83718  0.09548  0.59714  1.0000
  H   H1395     1.0  0.81537  0.06970  0.60844  1.0000
  H   H1396     1.0  0.80101  0.10017  0.62521  1.0000
  H   H1397     1.0  0.82651  0.13208  0.63037  1.0000
  H   H1398     1.0  0.86978  0.14114  0.63312  1.0000
  H   H1399     1.0  0.88153  0.11888  0.62856  1.0000
  H   H1400     1.0  0.82245  0.11093  0.65378  1.0000
  H   H1401     1.0  0.83333  0.08983  0.66290  1.0000
  H   H1402     1.0  0.85717  0.11965  0.65537  1.0000
  H   H1403     1.0  0.87523  0.08829  0.60841  1.0000
  H   H1404     1.0  0.85020  0.05876  0.61706  1.0000
  H   H1405     1.0  0.85090  0.06252  0.59628  1.0000
  H   H1406     1.0  0.80548  0.10818  0.59716  1.0000
  H   H1407     1.0  0.83487  0.13918  0.60031  1.0000
  H   H1408     1.0  0.80405  0.13489  0.60721  1.0000
  H   H1409     1.0  0.87821  0.16024  0.60887  1.0000
  H   H1410     1.0  0.87301  0.13099  0.59777  1.0000
  H   H1411     1.0  0.90178  0.14793  0.60941  1.0000
  C   C829      1.0  0.75863  0.99485  0.71765  1.0000
  C   C830      1.0  0.91416  0.39710  0.49596  1.0000
  C   C831      1.0  0.66083  0.01045  0.54636  1.0000
  C   C832      1.0  0.92560  0.21790  0.72025  1.0000
  S   S236      1.0  0.80462  0.00475  0.63757  1.0000
  C   C833      1.0  0.56833  0.06789  0.50273  1.0000
  H   H1412     1.0  0.61384  0.07451  0.51618  1.0000
  H   H1413     1.0  0.82440  0.25079  0.50185  1.0000
  H   H1414     1.0  0.60145  0.47659  0.56362  1.0000
  H   H1415     1.0  0.89756  0.28393  0.49272  1.0000
  H   H1416     1.0  0.53482  0.07472  0.49752  1.0000
  H   H1417     1.0  0.95681  0.24908  0.57916  1.0000
  H   H1418     1.0  0.96471  0.30899  0.62403  1.0000
  C   C834      1.0  0.96275  0.29569  0.61428  1.0000
  N   N61       1.0  0.52196  0.32658  0.55299  1.0000
  C   C835      1.0  0.52428  0.35275  0.54820  1.0000
  H   H1419     1.0  0.88292  0.18532  0.73803  1.0000
  C   C836      1.0  0.50727  0.30684  0.53983  1.0000
  H   H1420     1.0  0.98152  0.41155  0.53899  1.0000
  C   C837      1.0  0.53712  0.36319  0.53225  1.0000
  H   H1421     1.0  0.57488  0.07651  0.49105  1.0000
  C   C838      1.0  0.54920  0.32944  0.55554  1.0000
  H   H1422     1.0  0.57537  0.01214  0.49494  1.0000
  H   H1423     1.0  0.95025  0.47222  0.51915  1.0000
  H   H1424     1.0  0.55607  0.36276  0.53110  1.0000
  H   H1425     1.0  0.90527  0.20383  0.71648  1.0000
  C   C839      1.0  0.57207  0.01469  0.52850  1.0000
  H   H1426     1.0  0.59318  0.02132  0.53070  1.0000
  S   S237      1.0  0.49587  0.09492  0.56243  1.0000
  H   H1427     1.0  0.56742  0.30489  0.56181  1.0000
  C   C840      1.0  0.78388  0.99729  0.71921  1.0000
  H   H1428     1.0  0.66171  0.01736  0.53416  1.0000
  H   H1429     1.0  0.50252  0.29967  0.57203  1.0000
  H   H1430     1.0  0.49556  0.09645  0.60523  1.0000
  Fe  Fe121     1.0  0.97639  0.18115  0.64351  1.0000
  H   H1431     1.0  0.55935  0.31848  0.57845  1.0000
  C   C841      1.0  0.97380  0.42201  0.49254  1.0000
  C   C842      1.0  0.96991  0.47353  0.52111  1.0000
  H   H1432     1.0  0.71616  0.01795  0.52277  1.0000
  H   H1433     1.0  0.79542  0.99983  0.70882  1.0000
  H   H1434     1.0  0.64131  0.08010  0.49411  1.0000
  C   C843      1.0  0.71503  0.03251  0.53109  1.0000
  C   C844      1.0  0.53875  0.05965  0.50331  1.0000
  H   H1435     1.0  0.55067  0.48618  0.52962  1.0000
  H   H1436     1.0  0.97709  0.47118  0.49653  1.0000
  H   H1437     1.0  0.86852  0.23504  0.50397  1.0000
  H   H1438     1.0  0.49043  0.05941  0.61662  1.0000
  C   C845      1.0  0.97766  0.46070  0.50734  1.0000
  H   H1439     1.0  0.84713  0.32573  0.50391  1.0000
  C   C846      1.0  0.63183  0.99148  0.54938  1.0000
  H   H1440     1.0  0.61933  0.99982  0.54454  1.0000
  H   H1441     1.0  0.71647  0.00139  0.57585  1.0000
  H   H1442     1.0  0.96600  0.40037  0.49266  1.0000
  C   C847      1.0  0.86319  0.30206  0.49279  1.0000
  C   C848      1.0  0.79425  0.99634  0.73421  1.0000
  H   H1443     1.0  0.72452  0.99005  0.73028  1.0000
  H   H1444     1.0  0.89547  0.16254  0.73980  1.0000
  C   C849      1.0  0.84586  0.47201  0.88680  1.0000
  H   H1445     1.0  0.64388  0.14901  0.95364  1.0000
  Fe  Fe122     1.0  0.92285  0.32602  0.93595  1.0000
  S   S238      1.0  0.92236  0.34903  0.91472  1.0000
  S   S239      1.0  0.96340  0.34576  0.94869  1.0000
  Fe  Fe123     1.0  0.86564  0.28264  0.92806  1.0000
  S   S240      1.0  0.86218  0.30410  0.90683  1.0000
  S   S241      1.0  0.83542  0.24122  0.93588  1.0000
  Fe  Fe124     1.0  0.90295  0.30998  0.90139  1.0000
  S   S242      1.0  0.91518  0.30527  0.87626  1.0000
  Fe  Fe125     1.0  0.88226  0.34161  0.92204  1.0000
  S   S243      1.0  0.86883  0.37359  0.92631  1.0000
  S   S244      1.0  0.90591  0.28750  0.92200  1.0000
  S   S245      1.0  0.88322  0.31962  0.94382  1.0000
  H   H1446     1.0  0.94130  0.38333  0.94283  1.0000
  N   N62       1.0  0.94461  0.40866  0.96284  1.0000
  Fe  Fe126     1.0  0.62915  0.07078  0.91688  1.0000
  S   S246      1.0  0.64964  0.09538  0.93851  1.0000
  S   S247      1.0  0.58805  0.06328  0.90783  1.0000
  Fe  Fe127     1.0  0.67484  0.05699  0.91102  1.0000
  S   S248      1.0  0.69690  0.08000  0.93305  1.0000
  S   S249      1.0  0.69624  0.03664  0.89874  1.0000
  Fe  Fe128     1.0  0.65757  0.06147  0.94471  1.0000
  S   S250      1.0  0.64915  0.04668  0.97004  1.0000
  Fe  Fe129     1.0  0.68722  0.11151  0.92477  1.0000
  S   S251      1.0  0.71534  0.15534  0.92047  1.0000
  S   S252      1.0  0.63623  0.03653  0.92337  1.0000
  S   S253      1.0  0.66598  0.08896  0.90243  1.0000
  H   H1447     1.0  0.77152  0.48683  0.88766  1.0000
  C   C850      1.0  0.91375  0.09033  0.77961  1.0000
  Fe  Fe130     1.0  0.96131  0.18776  0.80433  1.0000
  S   S254      1.0  0.91934  0.15882  0.79765  1.0000
  S   S255      1.0  0.96668  0.22891  0.80339  1.0000
  H   H1448     1.0  0.95717  0.28779  0.91650  1.0000
  H   H1449     1.0  0.69953  0.19972  0.91724  1.0000
  H   H1450     1.0  0.77178  0.45362  0.90162  1.0000
  Fe  Fe131     1.0  0.81506  0.02184  0.82189  1.0000
  S   S256      1.0  0.85563  0.05081  0.83115  1.0000
  S   S257      1.0  0.78869  0.02997  0.80571  1.0000
  C   C851      1.0  0.92728  0.38505  0.97223  1.0000
  H   H1451     1.0  0.93777  0.32800  0.97923  1.0000
  C   C852      1.0  0.90177  0.12994  0.80804  1.0000
  C   C853      1.0  0.87468  0.11535  0.80506  1.0000
  C   C854      1.0  0.86016  0.09139  0.81246  1.0000
  C   C855      1.0  0.87275  0.08175  0.82271  1.0000
  C   C856      1.0  0.89973  0.09670  0.82600  1.0000
  C   C857      1.0  0.91427  0.12076  0.81867  1.0000
  H   H1452     1.0  0.86492  0.12242  0.79687  1.0000
  H   H1453     1.0  0.83932  0.08016  0.81005  1.0000
  H   H1454     1.0  0.90953  0.08932  0.83398  1.0000
  H   H1455     1.0  0.93519  0.13184  0.82095  1.0000
  H   H1456     1.0  0.89225  0.07857  0.75720  1.0000
  H   H1457     1.0  0.92930  0.16640  0.87155  1.0000
  C   C858      1.0  0.70421  0.03135  0.87913  1.0000
  C   C859      1.0  0.72054  0.01937  0.87710  1.0000
  C   C860      1.0  0.72780  0.01496  0.86191  1.0000
  C   C861      1.0  0.71861  0.02225  0.84844  1.0000
  N   N63       1.0  0.92179  0.20174  0.74891  1.0000
  C   C862      1.0  0.69532  0.03902  0.86568  1.0000
  H   H1458     1.0  0.87490  0.00698  0.77983  1.0000
  C   C863      1.0  0.78859  0.42885  0.90786  1.0000
  H   H1459     1.0  0.62336  0.16117  0.94508  1.0000
  H   H1460     1.0  0.68267  0.04814  0.86698  1.0000
  H   H1461     1.0  0.59360  0.06158  0.96060  1.0000
  C   C864      1.0  0.63184  0.01388  0.97686  1.0000
  H   H1462     1.0  0.56738  0.02647  0.97497  1.0000
  H   H1463     1.0  0.63175  0.13136  0.88170  1.0000
  H   H1464     1.0  0.93485  0.30312  0.84556  1.0000
  C   C865      1.0  0.51821  0.07706  0.92386  1.0000
  C   C866      1.0  0.54113  0.08590  0.93347  1.0000
  C   C867      1.0  0.56255  0.08186  0.92885  1.0000
  C   C868      1.0  0.56152  0.06890  0.91446  1.0000
  C   C869      1.0  0.53863  0.06010  0.90485  1.0000
  C   C870      1.0  0.51715  0.06408  0.90948  1.0000
  H   H1465     1.0  0.54227  0.09591  0.94464  1.0000
  H   H1466     1.0  0.57976  0.08861  0.93650  1.0000
  H   H1467     1.0  0.53744  0.05005  0.89369  1.0000
  H   H1468     1.0  0.49978  0.05710  0.90191  1.0000
  C   C871      1.0  0.93173  0.28777  0.86892  1.0000
  C   C872      1.0  0.93786  0.27160  0.87844  1.0000
  C   C873      1.0  0.95261  0.25964  0.87240  1.0000
  C   C874      1.0  0.96108  0.26325  0.85669  1.0000
  C   C875      1.0  0.95408  0.27857  0.84698  1.0000
  C   C876      1.0  0.93957  0.29078  0.85308  1.0000
  H   H1469     1.0  0.93160  0.26868  0.89055  1.0000
  H   H1470     1.0  0.91050  0.22188  0.76673  1.0000
  H   H1471     1.0  0.63851  0.19466  0.92022  1.0000
  C   C877      1.0  0.80205  0.21754  0.93118  1.0000
  C   C878      1.0  0.79131  0.19296  0.93848  1.0000
  C   C879      1.0  0.76507  0.17364  0.93530  1.0000
  C   C880      1.0  0.74891  0.17866  0.92485  1.0000
  C   C881      1.0  0.75966  0.20318  0.91750  1.0000
  C   C882      1.0  0.78597  0.22238  0.92056  1.0000
  H   H1472     1.0  0.80338  0.18890  0.94677  1.0000
  H   H1473     1.0  0.75727  0.15507  0.94117  1.0000
  H   H1474     1.0  0.74756  0.20743  0.90934  1.0000
  H   H1475     1.0  0.79373  0.24107  0.91482  1.0000
  C   C883      1.0  0.87978  0.40782  0.92278  1.0000
  C   C884      1.0  0.90041  0.42234  0.91279  1.0000
  C   C885      1.0  0.90808  0.44924  0.91034  1.0000
  C   C886      1.0  0.89555  0.46229  0.91793  1.0000
  C   C887      1.0  0.87518  0.44786  0.92812  1.0000
  C   C888      1.0  0.86725  0.42087  0.93038  1.0000
  H   H1476     1.0  0.91009  0.41272  0.90665  1.0000
  H   H1477     1.0  0.92378  0.46001  0.90238  1.0000
  H   H1478     1.0  0.86546  0.45744  0.93423  1.0000
  H   H1479     1.0  0.85133  0.41000  0.93818  1.0000
  C   C889      1.0  0.87809  0.16867  0.76090  1.0000
  H   H1480     1.0  0.95665  0.25725  0.74602  1.0000
  H   H1481     1.0  0.61888  0.12835  0.93991  1.0000
  H   H1482     1.0  0.83272  0.05204  0.76151  1.0000
  C   C890      1.0  0.51865  0.41200  0.92036  1.0000
  C   C891      1.0  0.54549  0.41978  0.91819  1.0000
  C   C892      1.0  0.56439  0.44667  0.91813  1.0000
  C   C893      1.0  0.55674  0.46645  0.91991  1.0000
  C   C894      1.0  0.52987  0.45867  0.92193  1.0000
  C   C895      1.0  0.51109  0.43180  0.92243  1.0000
  H   H1483     1.0  0.55180  0.40486  0.91661  1.0000
  H   H1484     1.0  0.58483  0.45205  0.91648  1.0000
  H   H1485     1.0  0.50393  0.02128  0.95195  1.0000
  N   N64       1.0  0.89634  0.17326  0.84864  1.0000
  C   C896      1.0  0.92360  0.17599  0.84699  1.0000
  C   C897      1.0  0.89075  0.18493  0.83412  1.0000
  C   C898      1.0  0.87752  0.14429  0.84889  1.0000
  C   C899      1.0  0.89579  0.18715  0.86385  1.0000
  C   C900      1.0  0.93231  0.16177  0.85922  1.0000
  C   C901      1.0  0.90885  0.21449  0.83211  1.0000
  C   C902      1.0  0.84806  0.13633  0.84927  1.0000
  C   C903      1.0  0.87357  0.19507  0.86552  1.0000
  H   H1486     1.0  0.92584  0.16882  0.83507  1.0000
  H   H1487     1.0  0.93862  0.19696  0.84788  1.0000
  H   H1488     1.0  0.87049  0.18228  0.83360  1.0000
  H   H1489     1.0  0.89214  0.17444  0.82323  1.0000
  H   H1490     1.0  0.88038  0.13398  0.83841  1.0000
  H   H1491     1.0  0.88141  0.13519  0.85942  1.0000
  H   H1492     1.0  0.89491  0.17505  0.87417  1.0000
  H   H1493     1.0  0.91452  0.20566  0.86565  1.0000
  H   H1494     1.0  0.86423  0.47021  0.88793  1.0000
  H   H1495     1.0  0.92237  0.14019  0.85692  1.0000
  H   H1496     1.0  0.86401  0.05627  0.79216  1.0000
  H   H1497     1.0  0.90181  0.22129  0.82174  1.0000
  H   H1498     1.0  0.90883  0.22646  0.84252  1.0000
  H   H1499     1.0  0.92923  0.21864  0.82969  1.0000
  H   H1500     1.0  0.84287  0.14281  0.86048  1.0000
  H   H1501     1.0  0.83697  0.11451  0.84880  1.0000
  H   H1502     1.0  0.84103  0.14299  0.83890  1.0000
  H   H1503     1.0  0.86435  0.18887  0.87717  1.0000
  H   H1504     1.0  0.85764  0.18665  0.85646  1.0000
  H   H1505     1.0  0.88185  0.21683  0.86562  1.0000
  H   H1506     1.0  0.53805  0.04131  0.95546  1.0000
  H   H1507     1.0  0.67551  0.15933  0.90120  1.0000
  H   H1508     1.0  0.90321  0.02438  0.80396  1.0000
  H   H1509     1.0  0.66562  0.15041  0.92945  1.0000
  H   H1510     1.0  0.63718  0.12096  0.90859  1.0000
  C   C904      1.0  0.59904  0.16289  0.91689  1.0000
  H   H1511     1.0  0.84973  0.48747  0.87808  1.0000
  H   H1512     1.0  0.58615  0.15635  0.90609  1.0000
  S   S258      1.0  0.49175  0.08276  0.93053  1.0000
  H   H1513     1.0  0.95902  0.45068  0.96479  1.0000
  C   C905      1.0  0.52429  0.99903  0.95871  1.0000
  H   H1514     1.0  0.49437  0.44730  0.87136  1.0000
  H   H1515     1.0  0.60875  0.12195  0.91462  1.0000
  C   C906      1.0  0.62370  0.99183  0.96670  1.0000
  H   H1516     1.0  0.62915  0.99440  0.95444  1.0000
  H   H1517     1.0  0.67958  0.21402  0.90933  1.0000
  H   H1518     1.0  0.87356  0.02677  0.80497  1.0000
  H   H1519     1.0  0.95787  0.24781  0.88003  1.0000
  H   H1520     1.0  0.83028  0.06401  0.78054  1.0000
  C   C907      1.0  0.83950  0.47956  0.90316  1.0000
  N   N65       1.0  0.76868  0.11371  0.89708  1.0000
  C   C908      1.0  0.77846  0.11330  0.91374  1.0000
  C   C909      1.0  0.78803  0.13912  0.89005  1.0000
  C   C910      1.0  0.76814  0.09066  0.88789  1.0000
  C   C911      1.0  0.74159  0.11151  0.89817  1.0000
  C   C912      1.0  0.76513  0.08667  0.92202  1.0000
  C   C913      1.0  0.79062  0.16436  0.89834  1.0000
  C   C914      1.0  0.76539  0.09038  0.86972  1.0000
  C   C915      1.0  0.72902  0.11610  0.88307  1.0000
  H   H1521     1.0  0.79987  0.11936  0.91399  1.0000
  H   H1522     1.0  0.77609  0.12775  0.92165  1.0000
  H   H1523     1.0  0.78344  0.14045  0.87746  1.0000
  H   H1524     1.0  0.80791  0.14029  0.89002  1.0000
  H   H1525     1.0  0.78645  0.08912  0.89039  1.0000
  H   H1526     1.0  0.75182  0.07194  0.89180  1.0000
  H   H1527     1.0  0.72755  0.09176  0.90216  1.0000
  H   H1528     1.0  0.74095  0.12488  0.90766  1.0000
  H   H1529     1.0  0.77138  0.08967  0.93470  1.0000
  H   H1530     1.0  0.74349  0.07784  0.92156  1.0000
  H   H1531     1.0  0.77106  0.07235  0.91690  1.0000
  H   H1532     1.0  0.79880  0.16688  0.91057  1.0000
  H   H1533     1.0  0.80446  0.18172  0.89181  1.0000
  H   H1534     1.0  0.77165  0.16497  0.89841  1.0000
  H   H1535     1.0  0.76464  0.07190  0.86491  1.0000
  H   H1536     1.0  0.78251  0.10657  0.86432  1.0000
  H   H1537     1.0  0.74693  0.09007  0.86565  1.0000
  H   H1538     1.0  0.71426  0.09700  0.87773  1.0000
  H   H1539     1.0  0.74285  0.12729  0.87391  1.0000
  H   H1540     1.0  0.71865  0.12767  0.88625  1.0000
  C   C916      1.0  0.89920  0.06949  0.76643  1.0000
  H   H1541     1.0  0.66666  0.18123  0.93376  1.0000
  C   C917      1.0  0.89255  0.03455  0.79889  1.0000
  H   H1542     1.0  0.95041  0.16668  0.76747  1.0000
  H   H1543     1.0  0.92889  0.19414  0.77303  1.0000
  C   C918      1.0  0.91953  0.22548  0.75491  1.0000
  C   C919      1.0  0.95850  0.34053  0.98148  1.0000
  C   C920      1.0  0.95743  0.42253  0.93411  1.0000
  H   H1544     1.0  0.92526  0.44851  0.94919  1.0000
  H   H1545     1.0  0.70127  0.20787  0.89702  1.0000
  H   H1546     1.0  0.52130  0.00207  0.97137  1.0000
  C   C921      1.0  0.70238  0.03437  0.85046  1.0000
  C   C922      1.0  0.63331  0.14902  0.94253  1.0000
  C   C923      1.0  0.61602  0.12878  0.88997  1.0000
  H   H1547     1.0  0.81137  0.45547  0.93440  1.0000
  H   H1548     1.0  0.87482  0.18385  0.76729  1.0000
  H   H1549     1.0  0.79003  0.44965  0.88650  1.0000
  C   C924      1.0  0.85668  0.04664  0.78045  1.0000
  H   H1550     1.0  0.91907  0.39618  0.94174  1.0000
  H   H1551     1.0  0.59319  0.14622  0.92486  1.0000
  H   H1552     1.0  0.96209  0.35347  0.88652  1.0000
  H   H1553     1.0  0.60780  0.14220  0.88694  1.0000
  H   H1554     1.0  0.52630  0.44952  0.87333  1.0000
  C   C925      1.0  0.97746  0.33592  0.90368  1.0000
  H   H1555     1.0  0.90110  0.08975  0.78934  1.0000
  C   C926      1.0  0.81978  0.47708  0.93480  1.0000
  H   H1556     1.0  0.95826  0.24956  0.76653  1.0000
  H   H1557     1.0  0.89007  0.37066  0.95818  1.0000
  H   H1558     1.0  0.93077  0.08837  0.78450  1.0000
  N   N66       1.0  0.64279  0.16048  0.91301  1.0000
  C   C927      1.0  0.66589  0.17226  0.90222  1.0000
  C   C928      1.0  0.62610  0.13242  0.90732  1.0000
  C   C929      1.0  0.65343  0.16082  0.92947  1.0000
  C   C930      1.0  0.50606  0.43702  0.86855  1.0000
  H   H1559     1.0  0.84053  0.02704  0.78322  1.0000
  H   H1560     1.0  0.69504  0.04000  0.84014  1.0000
  H   H1561     1.0  0.91473  0.06652  0.76044  1.0000
  H   H1562     1.0  0.93102  0.36816  0.96908  1.0000
  C   C931      1.0  0.68754  0.20009  0.90692  1.0000
  H   H1563     1.0  0.89176  0.38938  0.97613  1.0000
  S   S259      1.0  0.72647  0.01636  0.82891  1.0000
  H   H1564     1.0  0.50768  0.40096  0.87177  1.0000
  H   H1565     1.0  0.90145  0.41628  0.95504  1.0000
  H   H1566     1.0  0.92094  0.11028  0.77480  1.0000
  C   C932      1.0  0.97275  0.41489  0.96641  1.0000
  C   C933      1.0  0.52341  0.02214  0.95024  1.0000
  H   H1567     1.0  0.95365  0.16836  0.85810  1.0000
  S   S260      1.0  0.78345  0.99662  0.83823  1.0000
  C   C934      1.0  0.88830  0.02851  0.78091  1.0000
  C   C935      1.0  0.79071  0.45338  0.89951  1.0000
  H   H1568     1.0  0.90431  0.05566  0.80196  1.0000
  H   H1569     1.0  0.49080  0.42647  0.92448  1.0000
  N   N67       1.0  0.81335  0.47952  0.90438  1.0000
  H   H1570     1.0  0.98172  0.37586  0.90159  1.0000
  S   S261      1.0  0.49555  0.37749  0.91955  1.0000
  C   C936      1.0  0.93691  0.19495  0.76108  1.0000
  H   H1571     1.0  0.97739  0.42411  0.93424  1.0000
  C   C937      1.0  0.84432  0.06227  0.77235  1.0000
  C   C938      1.0  0.91815  0.43490  0.95920  1.0000
  H   H1572     1.0  0.60447  0.04348  0.94849  1.0000
  H   H1573     1.0  0.60014  0.10838  0.88795  1.0000
  C   C939      1.0  0.93940  0.40143  0.94546  1.0000
  C   C940      1.0  0.75465  0.99145  0.74644  1.0000
  H   H1574     1.0  0.93858  0.43302  0.98046  1.0000
  H   H1575     1.0  0.88687  0.16006  0.76922  1.0000
  H   H1576     1.0  0.62866  0.18390  0.90028  1.0000
  H   H1577     1.0  0.85849  0.15265  0.75721  1.0000
  H   H1578     1.0  0.65939  0.17366  0.88998  1.0000
  Fe  Fe132     1.0  0.75630  0.00252  0.82130  1.0000
  C   C941      1.0  0.89752  0.37526  0.97057  1.0000
  H   H1579     1.0  0.59431  0.17740  0.92300  1.0000
  C   C942      1.0  0.62833  0.17671  0.91246  1.0000
  C   C943      1.0  0.94103  0.43231  0.96746  1.0000
  H   H1580     1.0  0.50729  0.43547  0.85553  1.0000
  S   S262      1.0  0.98301  0.19445  0.82748  1.0000
  H   H1581     1.0  0.52355  0.47360  0.92341  1.0000
  H   H1582     1.0  0.74017  0.00552  0.86061  1.0000
  H   H1583     1.0  0.52569  0.02148  0.93728  1.0000
  H   H1584     1.0  0.77839  0.41143  0.89975  1.0000
  H   H1585     1.0  0.95750  0.21070  0.76226  1.0000
  H   H1586     1.0  0.84177  0.46625  0.91160  1.0000
  H   H1587     1.0  0.97688  0.39910  0.96153  1.0000
  H   H1588     1.0  0.90740  0.03138  0.77624  1.0000
  H   H1589     1.0  0.90615  0.22955  0.74712  1.0000
  H   H1590     1.0  0.94943  0.41658  0.92184  1.0000
  H   H1591     1.0  0.77710  0.42534  0.91877  1.0000
  S   S263      1.0  0.98193  0.24989  0.85034  1.0000
  H   H1592     1.0  0.85916  0.08254  0.76976  1.0000
  H   H1593     1.0  0.72752  0.01329  0.88738  1.0000
  H   H1594     1.0  0.95863  0.44202  0.93674  1.0000
  H   H1595     1.0  0.80762  0.42937  0.91072  1.0000
  H   H1596     1.0  0.96170  0.31781  0.89794  1.0000
  H   H1597     1.0  0.91010  0.44419  0.96763  1.0000
  N   N68       1.0  0.54870  0.99587  0.95680  1.0000
  C   C944      1.0  0.49522  0.40980  0.87600  1.0000
  C   C945      1.0  0.93841  0.16912  0.75787  1.0000
  H   H1598     1.0  0.96051  0.28169  0.83490  1.0000
  H   H1599     1.0  0.89756  0.03698  0.74071  1.0000
  H   H1600     1.0  0.84695  0.00876  0.75963  1.0000
  C   C946      1.0  0.89462  0.17936  0.74605  1.0000
  H   H1601     1.0  0.55379  0.00707  0.93202  1.0000
  C   C947      1.0  0.97508  0.35124  0.96880  1.0000
  C   C948      1.0  0.88147  0.01963  0.74603  1.0000
  C   C949      1.0  0.57242  0.01935  0.96386  1.0000
  C   C950      1.0  0.86431  0.02737  0.75656  1.0000
  C   C951      1.0  0.58654  0.04324  0.95324  1.0000
  N   N69       1.0  0.87750  0.04355  0.77137  1.0000
  H   H1602     1.0  0.49937  0.41267  0.88898  1.0000
  H   H1603     1.0  0.57461  0.04480  0.94343  1.0000
  H   H1604     1.0  0.58753  0.01345  0.96742  1.0000
  S   S264      1.0  0.79376  0.99145  0.76632  1.0000
  H   H1605     1.0  0.94816  0.16933  0.74667  1.0000
  H   H1606     1.0  0.49165  0.35662  0.88472  1.0000
  H   H1607     1.0  0.91894  0.15161  0.75795  1.0000
  H   H1608     1.0  0.88951  0.00815  0.75240  1.0000
  H   H1609     1.0  0.96949  0.33819  0.91517  1.0000
  C   C952      1.0  0.97590  0.28889  0.92083  1.0000
  H   H1610     1.0  0.98070  0.27543  0.91363  1.0000
  H   H1611     1.0  0.94121  0.26727  0.76082  1.0000
  H   H1612     1.0  0.83041  0.45276  0.88222  1.0000
  H   H1613     1.0  0.85669  0.03782  0.74876  1.0000
  C   C953      1.0  0.55140  0.99059  0.93954  1.0000
  C   C954      1.0  0.94556  0.25110  0.75706  1.0000
  H   H1614     1.0  0.59263  0.99841  0.94201  1.0000
  H   H1615     1.0  0.88730  0.35665  0.97700  1.0000
  C   C955      1.0  0.98033  0.35949  0.89378  1.0000
  C   C956      1.0  0.77979  0.99355  0.74791  1.0000
  Fe  Fe133     1.0  0.78231  0.99351  0.79188  1.0000
  H   H1616     1.0  0.84150  0.48601  0.93532  1.0000
  H   H1617     1.0  0.97268  0.28135  0.93303  1.0000
  H   H1618     1.0  0.78918  0.48228  0.92309  1.0000
  H   H1619     1.0  0.81392  0.48276  0.94610  1.0000
  C   C957      1.0  0.81010  0.48776  0.92095  1.0000
  H   H1620     1.0  0.93171  0.38899  0.98511  1.0000
  C   C958      1.0  0.98159  0.41915  0.98401  1.0000
  H   H1621     1.0  0.55667  0.98960  0.98973  1.0000
  H   H1622     1.0  0.90846  0.67844  0.15320  1.0000
  C   C959      1.0  0.55732  0.97669  0.07769  1.0000
  Fe  Fe134     1.0  0.95768  0.76812  0.15055  1.0000
  S   S265      1.0  0.91531  0.75303  0.14140  1.0000
  H   H1623     1.0  0.94653  0.65805  0.09835  1.0000
  H   H1624     1.0  0.55706  0.97906  0.11330  1.0000
  S   S266      1.0  0.73382  0.95894  0.16798  1.0000
  S   S267      1.0  0.79648  0.94630  0.16120  1.0000
  H   H1625     1.0  0.65000  0.70540  0.00080  1.0000
  Fe  Fe135     1.0  0.79144  0.77982  0.15950  1.0000
  S   S268      1.0  0.76331  0.73695  0.15704  1.0000
  S   S269      1.0  0.83586  0.79648  0.16277  1.0000
  Fe  Fe136     1.0  0.74683  0.79443  0.16355  1.0000
  S   S270      1.0  0.71571  0.75219  0.16212  1.0000
  S   S271      1.0  0.73006  0.82293  0.16666  1.0000
  Fe  Fe137     1.0  0.74330  0.74455  0.17772  1.0000
  S   S272      1.0  0.72917  0.71381  0.19658  1.0000
  Fe  Fe138     1.0  0.73789  0.74837  0.14163  1.0000
  S   S273      1.0  0.71800  0.72664  0.11826  1.0000
  S   S274      1.0  0.77232  0.78693  0.18093  1.0000
  S   S275      1.0  0.76814  0.79116  0.14226  1.0000
  Fe  Fe139     1.0  0.52448  0.63365  0.04870  1.0000
  S   S276      1.0  0.53844  0.65237  0.02536  1.0000
  Fe  Fe140     1.0  0.58094  0.66557  0.06334  1.0000
  S   S277      1.0  0.59776  0.68498  0.04037  1.0000
  S   S278      1.0  0.60150  0.67805  0.08798  1.0000
  Fe  Fe141     1.0  0.56194  0.69122  0.03820  1.0000
  S   S279      1.0  0.56587  0.72880  0.02642  1.0000
  Fe  Fe142     1.0  0.57320  0.64484  0.02883  1.0000
  S   S280      1.0  0.57794  0.62629  0.00551  1.0000
  S   S281      1.0  0.54585  0.67334  0.06147  1.0000
  S   S282      1.0  0.55838  0.62451  0.05202  1.0000
  Fe  Fe143     1.0  0.59032  0.92338  0.05476  1.0000
  S   S283      1.0  0.59384  0.89937  0.03444  1.0000
  S   S284      1.0  0.62538  0.95287  0.07008  1.0000
  Fe  Fe144     1.0  0.53143  0.90681  0.04632  1.0000
  S   S285      1.0  0.53141  0.88140  0.02565  1.0000
  Fe  Fe145     1.0  0.55438  0.86741  0.04155  1.0000
  S   S286      1.0  0.54360  0.82459  0.04806  1.0000
  Fe  Fe146     1.0  0.57103  0.91531  0.02010  1.0000
  H   H1626     1.0  0.60465  0.98184  0.01089  1.0000
  S   S287      1.0  0.55208  0.89113  0.06266  1.0000
  S   S288      1.0  0.56982  0.94106  0.03991  1.0000
  H   H1627     1.0  0.63486  0.64438  0.00960  1.0000
  C   C960      1.0  0.94612  0.67438  0.13436  1.0000
  H   H1628     1.0  0.63134  0.76142  0.99956  1.0000
  C   C961      1.0  0.77187  0.63053  0.99260  1.0000
  C   C962      1.0  0.59631  0.97765  0.10144  1.0000
  H   H1629     1.0  0.53548  0.90306  0.11439  1.0000
  H   H1630     1.0  0.51538  0.69927  0.04162  1.0000
  C   C963      1.0  0.56094  0.75599  0.03304  1.0000
  C   C964      1.0  0.56579  0.77656  0.02265  1.0000
  C   C965      1.0  0.56142  0.79806  0.02714  1.0000
  C   C966      1.0  0.55165  0.79913  0.04205  1.0000
  C   C967      1.0  0.54681  0.77853  0.05243  1.0000
  C   C968      1.0  0.55176  0.75735  0.04807  1.0000
  H   H1631     1.0  0.57297  0.77591  0.01101  1.0000
  H   H1632     1.0  0.56516  0.81359  0.01897  1.0000
  H   H1633     1.0  0.53939  0.77912  0.06401  1.0000
  H   H1634     1.0  0.54839  0.74208  0.05634  1.0000
  H   H1635     1.0  0.96654  0.57517  0.02720  1.0000
  H   H1636     1.0  0.90094  0.66957  0.10607  1.0000
  H   H1637     1.0  0.98075  0.53329  0.99606  1.0000
  C   C969      1.0  0.68595  0.71545  0.10958  1.0000
  C   C970      1.0  0.66539  0.71620  0.11781  1.0000
  C   C971      1.0  0.63990  0.70526  0.11085  1.0000
  C   C972      1.0  0.63462  0.69387  0.09545  1.0000
  C   C973      1.0  0.65539  0.69396  0.08703  1.0000
  C   C974      1.0  0.68078  0.70451  0.09410  1.0000
  H   H1638     1.0  0.66894  0.72461  0.12967  1.0000
  H   H1639     1.0  0.62403  0.70531  0.11751  1.0000
  H   H1640     1.0  0.65173  0.68518  0.07524  1.0000
  H   H1641     1.0  0.69648  0.70382  0.08757  1.0000
  C   C975      1.0  0.73562  0.71672  0.21735  1.0000
  H   H1642     1.0  0.49837  0.72608  0.05423  1.0000
  H   H1643     1.0  0.73617  0.84244  0.22816  1.0000
  H   H1644     1.0  0.75120  0.75873  0.22019  1.0000
  H   H1645     1.0  0.72084  0.67492  0.21872  1.0000
  C   C976      1.0  0.77789  0.91179  0.16136  1.0000
  C   C977      1.0  0.79074  0.89618  0.16233  1.0000
  C   C978      1.0  0.77632  0.86875  0.16357  1.0000
  C   C979      1.0  0.74898  0.85690  0.16404  1.0000
  C   C980      1.0  0.73613  0.87245  0.16279  1.0000
  C   C981      1.0  0.75050  0.89975  0.16127  1.0000
  H   H1646     1.0  0.81193  0.90536  0.16235  1.0000
  H   H1647     1.0  0.78638  0.85689  0.16450  1.0000
  H   H1648     1.0  0.71496  0.86337  0.16306  1.0000
  H   H1649     1.0  0.74038  0.91153  0.16036  1.0000
  C   C982      1.0  0.67219  0.95006  0.11446  1.0000
  C   C983      1.0  0.64985  0.92730  0.10889  1.0000
  C   C984      1.0  0.63559  0.92756  0.09520  1.0000
  C   C985      1.0  0.64327  0.95078  0.08697  1.0000
  H   H1650     1.0  0.78919  0.93283  0.22283  1.0000
  H   H1651     1.0  0.83219  0.80045  0.20678  1.0000
  H   H1652     1.0  0.61869  0.90979  0.09102  1.0000
  H   H1653     1.0  0.65228  0.73768  0.00301  1.0000
  H   H1654     1.0  0.51485  0.95632  0.10417  1.0000
  H   H1655     1.0  0.89629  0.77811  0.20083  1.0000
  H   H1656     1.0  0.79236  0.89387  0.19811  1.0000
  C   C986      1.0  0.89332  0.76501  0.14775  1.0000
  C   C987      1.0  0.90159  0.78737  0.15764  1.0000
  C   C988      1.0  0.88378  0.79675  0.16196  1.0000
  C   C989      1.0  0.85740  0.78378  0.15666  1.0000
  C   C990      1.0  0.84897  0.76114  0.14700  1.0000
  C   C991      1.0  0.86688  0.75191  0.14253  1.0000
  H   H1657     1.0  0.92184  0.79772  0.16173  1.0000
  H   H1658     1.0  0.89057  0.81429  0.16941  1.0000
  H   H1659     1.0  0.82878  0.75096  0.14280  1.0000
  H   H1660     1.0  0.86026  0.73466  0.13484  1.0000
  H   H1661     1.0  0.93204  0.70856  0.09366  1.0000
  C   C992      1.0  0.89960  0.68119  0.14210  1.0000
  C   C993      1.0  0.67991  0.97326  0.10620  1.0000
  C   C994      1.0  0.91519  0.66346  0.11119  1.0000
  N   N70       1.0  0.66333  0.65286  0.14831  1.0000
  C   C995      1.0  0.68346  0.65211  0.15961  1.0000
  C   C996      1.0  0.63693  0.63043  0.15173  1.0000
  C   C997      1.0  0.66179  0.67827  0.15022  1.0000
  C   C998      1.0  0.67119  0.65082  0.13160  1.0000
  C   C999      1.0  0.71113  0.67549  0.15898  1.0000
  C   C1000     1.0  0.63455  0.60266  0.14953  1.0000
  C   C1001     1.0  0.65743  0.68573  0.16715  1.0000
  C   C1002     1.0  0.65008  0.64521  0.11853  1.0000
  H   H1662     1.0  0.67698  0.65062  0.17206  1.0000
  H   H1663     1.0  0.68590  0.63425  0.15731  1.0000
  H   H1664     1.0  0.62115  0.63141  0.14442  1.0000
  H   H1665     1.0  0.63168  0.63175  0.16419  1.0000
  H   H1666     1.0  0.67983  0.69506  0.14590  1.0000
  H   H1667     1.0  0.64550  0.67779  0.14274  1.0000
  H   H1668     1.0  0.68854  0.66939  0.12840  1.0000
  H   H1669     1.0  0.67774  0.63544  0.13037  1.0000
  H   H1670     1.0  0.72424  0.67274  0.16770  1.0000
  H   H1671     1.0  0.71981  0.67710  0.14719  1.0000
  H   H1672     1.0  0.71124  0.69424  0.16235  1.0000
  H   H1673     1.0  0.64043  0.59913  0.13769  1.0000
  H   H1674     1.0  0.64609  0.59873  0.15876  1.0000
  H   H1675     1.0  0.61373  0.58791  0.15085  1.0000
  H   H1676     1.0  0.63830  0.67141  0.17173  1.0000
  H   H1677     1.0  0.65717  0.70494  0.16689  1.0000
  H   H1678     1.0  0.67343  0.68833  0.17560  1.0000
  H   H1679     1.0  0.63378  0.62495  0.11887  1.0000
  H   H1680     1.0  0.65909  0.64727  0.10678  1.0000
  H   H1681     1.0  0.64194  0.65925  0.11907  1.0000
  N   N71       1.0  0.75297  0.89849  0.21616  1.0000
  C   C1003     1.0  0.74600  0.91389  0.20439  1.0000
  C   C1004     1.0  0.79336  0.70758  0.18530  1.0000
  C   C1005     1.0  0.55945  0.95240  0.08341  1.0000
  H   H1682     1.0  0.55881  0.68933  0.00117  1.0000
  C   C1006     1.0  0.71644  0.90468  0.20142  1.0000
  H   H1683     1.0  0.73264  0.60487  0.99866  1.0000
  H   H1684     1.0  0.78909  0.74309  0.20740  1.0000
  H   H1685     1.0  0.96828  0.69853  0.10655  1.0000
  C   C1007     1.0  0.66544  0.97361  0.09262  1.0000
  C   C1008     1.0  0.61141  0.70498  0.00136  1.0000
  H   H1686     1.0  0.60248  0.71358  0.00971  1.0000
  H   H1687     1.0  0.78401  0.62872  0.00236  1.0000
  Fe  Fe147     1.0  0.77434  0.97011  0.15970  1.0000
  H   H1688     1.0  0.80408  0.76217  0.19077  1.0000
  H   H1689     1.0  0.74804  0.87058  0.19695  1.0000
  C   C1009     1.0  0.79818  0.91356  0.20356  1.0000
  H   H1690     1.0  0.51405  0.69169  0.01507  1.0000
  H   H1691     1.0  0.77041  0.86159  0.22358  1.0000
  H   H1692     1.0  0.71410  0.91834  0.19321  1.0000
  S   S289      1.0  0.58081  0.92985  0.99469  1.0000
  H   H1693     1.0  0.78922  0.90322  0.22761  1.0000
  C   C1010     1.0  0.94880  0.72165  0.10150  1.0000
  H   H1694     1.0  0.51506  0.92526  0.10121  1.0000
  H   H1695     1.0  0.79941  0.78756  0.21333  1.0000
  H   H1696     1.0  0.88548  0.66195  0.13675  1.0000
  C   C1011     1.0  0.54695  0.90373  0.10384  1.0000
  H   H1697     1.0  0.91383  0.63361  0.09441  1.0000
  H   H1698     1.0  0.74955  0.83671  0.21023  1.0000
  N   N72       1.0  0.82751  0.74670  0.20250  1.0000
  C   C1012     1.0  0.82172  0.72989  0.18757  1.0000
  C   C1013     1.0  0.85513  0.76865  0.20151  1.0000
  C   C1014     1.0  0.80828  0.75779  0.20295  1.0000
  C   C1015     1.0  0.82408  0.72943  0.21639  1.0000
  C   C1016     1.0  0.60133  0.62091  0.99449  1.0000
  C   C1017     1.0  0.87692  0.76029  0.19997  1.0000
  C   C1018     1.0  0.81646  0.78350  0.21268  1.0000
  C   C1019     1.0  0.61232  0.98110  0.11690  1.0000
  C   C1020     1.0  0.95686  0.70625  0.11323  1.0000
  H   H1699     1.0  0.83453  0.72021  0.18688  1.0000
  H   H1700     1.0  0.86080  0.78245  0.21185  1.0000
  H   H1701     1.0  0.85653  0.78101  0.19123  1.0000
  H   H1702     1.0  0.70651  0.88491  0.19558  1.0000
  H   H1703     1.0  0.72095  0.86082  0.20887  1.0000
  H   H1704     1.0  0.80324  0.71423  0.21703  1.0000
  H   H1705     1.0  0.83478  0.71764  0.21490  1.0000
  H   H1706     1.0  0.70626  0.90508  0.21236  1.0000
  H   H1707     1.0  0.48579  0.55970  0.05156  1.0000
  H   H1708     1.0  0.87659  0.74725  0.20954  1.0000
  H   H1709     1.0  0.97782  0.67256  0.12063  1.0000
  H   H1710     1.0  0.62075  0.96716  0.11714  1.0000
  H   H1711     1.0  0.60868  0.97730  0.09159  1.0000
  H   H1712     1.0  0.58221  0.93149  0.11506  1.0000
  H   H1713     1.0  0.75503  0.93500  0.20812  1.0000
  H   H1714     1.0  0.50022  0.73043  0.02576  1.0000
  C   C1021     1.0  0.74633  0.74062  0.22615  1.0000
  H   H1715     1.0  0.73961  0.91788  0.23345  1.0000
  H   H1716     1.0  0.58714  0.73325  0.99079  1.0000
  H   H1717     1.0  0.75080  0.58820  0.99456  1.0000
  N   N73       1.0  0.56938  0.95416  0.10023  1.0000
  H   H1718     1.0  0.64364  0.90923  0.11516  1.0000
  H   H1719     1.0  0.79670  0.92675  0.19465  1.0000
  N   N74       1.0  0.93477  0.68512  0.12199  1.0000
  H   H1720     1.0  0.49692  0.68143  0.08471  1.0000
  H   H1721     1.0  0.53455  0.89946  0.09299  1.0000
  C   C1022     1.0  0.92085  0.69820  0.13052  1.0000
  H   H1722     1.0  0.58514  0.92751  0.09444  1.0000
  H   H1723     1.0  0.97639  0.54664  0.04214  1.0000
  C   C1023     1.0  0.64084  0.71687  0.00606  1.0000
  H   H1724     1.0  0.90335  0.64562  0.11804  1.0000
  H   H1725     1.0  0.51216  0.93636  0.12040  1.0000
  S   S290      1.0  0.68904  0.94840  0.13198  1.0000
  H   H1726     1.0  0.81928  0.92200  0.20700  1.0000
  H   H1727     1.0  0.64283  0.71599  0.01909  1.0000
  H   H1728     1.0  0.93521  0.71595  0.13730  1.0000
  H   H1729     1.0  0.97859  0.51789  0.02307  1.0000
  H   H1730     1.0  0.97135  0.72095  0.12180  1.0000
  H   H1731     1.0  0.82264  0.78258  0.22497  1.0000
  H   H1732     1.0  0.91093  0.70548  0.12199  1.0000
  C   C1024     1.0  0.74002  0.89879  0.23155  1.0000
  C   C1025     1.0  0.83091  0.74277  0.23298  1.0000
  H   H1733     1.0  0.76692  0.64652  0.99582  1.0000
  H   H1734     1.0  0.77814  0.96486  0.23337  1.0000
  S   S291      1.0  0.49966  0.91775  0.05526  1.0000
  H   H1735     1.0  0.75406  0.91345  0.19263  1.0000
  H   H1736     1.0  0.87609  0.75097  0.18822  1.0000
  C   C1026     1.0  0.72912  0.69346  0.22528  1.0000
  Fe  Fe148     1.0  0.72801  0.97545  0.14501  1.0000
  H   H1737     1.0  0.82598  0.74231  0.17697  1.0000
  H   H1738     1.0  0.49680  0.66463  0.04184  1.0000
  C   C1027     1.0  0.96163  0.66034  0.12837  1.0000
  H   H1739     1.0  0.60279  0.68390  0.00443  1.0000
  H   H1740     1.0  0.86201  0.97110  0.14577  1.0000
  H   H1741     1.0  0.51573  0.70003  0.06862  1.0000
  H   H1742     1.0  0.54701  0.98342  0.08610  1.0000
  C   C1028     1.0  0.74274  0.87084  0.20952  1.0000
  H   H1743     1.0  0.76986  0.98228  0.20837  1.0000
  H   H1744     1.0  0.96843  0.57792  0.00622  1.0000
  H   H1745     1.0  0.54603  0.97155  0.06627  1.0000
  H   H1746     1.0  0.48511  0.74795  0.03466  1.0000
  C   C1029     1.0  0.97211  0.62510  0.99022  1.0000
  C   C1030     1.0  0.57237  0.92989  0.10340  1.0000
  H   H1747     1.0  0.77861  0.71488  0.18555  1.0000
  N   N75       1.0  0.70199  0.81178  0.11626  1.0000
  C   C1031     1.0  0.70018  0.83221  0.10608  1.0000
  C   C1032     1.0  0.69869  0.78889  0.10572  1.0000
  C   C1033     1.0  0.72816  0.82277  0.12487  1.0000
  C   C1034     1.0  0.68094  0.80353  0.12840  1.0000
  C   C1035     1.0  0.70718  0.85892  0.11439  1.0000
  C   C1036     1.0  0.67116  0.77249  0.09808  1.0000
  C   C1037     1.0  0.75239  0.83334  0.11438  1.0000
  C   C1038     1.0  0.67700  0.77966  0.13835  1.0000
  H   H1748     1.0  0.71281  0.83622  0.09561  1.0000
  H   H1749     1.0  0.67994  0.82488  0.10106  1.0000
  H   H1750     1.0  0.70411  0.77523  0.11208  1.0000
  H   H1751     1.0  0.71247  0.79578  0.09577  1.0000
  H   H1752     1.0  0.73063  0.83876  0.13337  1.0000
  H   H1753     1.0  0.72942  0.80769  0.13233  1.0000
  H   H1754     1.0  0.68513  0.82002  0.13698  1.0000
  H   H1755     1.0  0.66169  0.79902  0.12269  1.0000
  H   H1756     1.0  0.72813  0.86959  0.11820  1.0000
  H   H1757     1.0  0.70382  0.87165  0.10588  1.0000
  H   H1758     1.0  0.69467  0.85692  0.12462  1.0000
  H   H1759     1.0  0.67138  0.75661  0.09047  1.0000
  H   H1760     1.0  0.65603  0.76268  0.10699  1.0000
  H   H1761     1.0  0.66527  0.78435  0.09038  1.0000
  H   H1762     1.0  0.75346  0.84911  0.10663  1.0000
  H   H1763     1.0  0.75319  0.81737  0.10722  1.0000
  H   H1764     1.0  0.77030  0.84200  0.12217  1.0000
  H   H1765     1.0  0.67787  0.78486  0.15115  1.0000
  H   H1766     1.0  0.69177  0.77271  0.13662  1.0000
  H   H1767     1.0  0.65722  0.76299  0.13589  1.0000
  C   C1039     1.0  0.49668  0.69309  0.07443  1.0000
  C   C1040     1.0  0.92621  0.65498  0.09685  1.0000
  H   H1768     1.0  0.93045  0.65964  0.14158  1.0000
  H   H1769     1.0  0.54011  0.93517  0.08115  1.0000
  H   H1770     1.0  0.84832  0.76225  0.23343  1.0000
  C   C1041     1.0  0.55217  0.95791  0.11224  1.0000
  H   H1771     1.0  0.95925  0.69042  0.14281  1.0000
  H   H1772     1.0  0.88833  0.69174  0.14559  1.0000
  C   C1042     1.0  0.62797  0.63236  0.99888  1.0000
  H   H1773     1.0  0.92450  0.66470  0.08599  1.0000
  C   C1043     1.0  0.75018  0.85215  0.21862  1.0000
  H   H1774     1.0  0.55622  0.95257  0.12419  1.0000
  C   C1044     1.0  0.78242  0.91228  0.21838  1.0000
  S   S292      1.0  0.96696  0.74052  0.16473  1.0000
  C   C1045     1.0  0.49597  0.68273  0.03810  1.0000
  H   H1775     1.0  0.49486  0.71030  0.07918  1.0000
  H   H1776     1.0  0.48701  0.66014  0.01555  1.0000
  C   C1046     1.0  0.60987  0.98444  0.99859  1.0000
  H   H1777     1.0  0.71910  0.88354  0.23120  1.0000
  C   C1047     1.0  0.74680  0.60416  0.99010  1.0000
  H   H1778     1.0  0.96004  0.54680  0.01473  1.0000
  H   H1779     1.0  0.60072  0.97904  0.12759  1.0000
  H   H1780     1.0  0.57257  0.94912  0.07512  1.0000
  H   H1781     1.0  0.94851  0.64126  0.12239  1.0000
  H   H1782     1.0  0.96564  0.73329  0.09391  1.0000
  H   H1783     1.0  0.78858  0.69215  0.19416  1.0000
  S   S293      1.0  0.76786  0.98397  0.13624  1.0000
  H   H1784     1.0  0.79132  0.69798  0.17348  1.0000
  S   S294      1.0  0.98151  0.77619  0.20649  1.0000
  H   H1785     1.0  0.69535  0.56739  0.99701  1.0000
  H   H1786     1.0  0.95810  0.63067  0.99514  1.0000
  H   H1787     1.0  0.86802  0.96941  0.12548  1.0000
  H   H1788     1.0  0.94400  0.73594  0.10783  1.0000
  C   C1048     1.0  0.97249  0.56826  0.01639  1.0000
  C   C1049     1.0  0.52212  0.94296  0.10900  1.0000
  C   C1050     1.0  0.49407  0.68079  0.01978  1.0000
  H   H1789     1.0  0.55221  0.88747  0.10484  1.0000
  H   H1790     1.0  0.84118  0.97474  0.13090  1.0000
  C   C1051     1.0  0.76243  0.98559  0.21939  1.0000
  H   H1791     1.0  0.66639  0.63783  0.99261  1.0000
  C   C1052     1.0  0.76709  0.97576  0.23354  1.0000
  C   C1053     1.0  0.86164  0.97982  0.13422  1.0000
  S   S295      1.0  0.98034  0.80279  0.16686  1.0000
  H   H1792     1.0  0.97092  0.65591  0.13871  1.0000
  H   H1793     1.0  0.96865  0.77783  0.23863  1.0000
  H   H1794     1.0  0.81386  0.74431  0.23792  1.0000
  H   H1795     1.0  0.61178  0.65777  0.47679  1.0000
  C   C1054     1.0  0.70798  0.64352  0.41814  1.0000
  S   S296      1.0  0.93218  0.75468  0.31498  1.0000
  C   C1055     1.0  0.51330  0.69013  0.42472  1.0000
  H   H1796     1.0  0.66787  0.63301  0.42347  1.0000
  H   H1797     1.0  0.55813  0.58390  0.48437  1.0000
  Fe  Fe149     1.0  0.77814  0.96393  0.32240  1.0000
  S   S297      1.0  0.73997  0.94546  0.30880  1.0000
  S   S298      1.0  0.79356  0.93763  0.33295  1.0000
  N   N76       1.0  0.49591  0.69164  0.43743  1.0000
  Fe  Fe150     1.0  0.80524  0.77986  0.31357  1.0000
  S   S299      1.0  0.77308  0.73830  0.31541  1.0000
  S   S300      1.0  0.84921  0.79961  0.31999  1.0000
  Fe  Fe151     1.0  0.76649  0.79901  0.30175  1.0000
  S   S301      1.0  0.73169  0.75905  0.30231  1.0000
  S   S302      1.0  0.76093  0.83274  0.29240  1.0000
  Fe  Fe152     1.0  0.74799  0.75529  0.32597  1.0000
  S   S303      1.0  0.72667  0.74758  0.34969  1.0000
  Fe  Fe153     1.0  0.75902  0.74540  0.29157  1.0000
  S   S304      1.0  0.74654  0.71494  0.27143  1.0000
  S   S305      1.0  0.78142  0.79654  0.32584  1.0000
  S   S306      1.0  0.79252  0.78562  0.28930  1.0000
  Fe  Fe154     1.0  0.60039  0.92993  0.41159  1.0000
  S   S307      1.0  0.60503  0.90879  0.43263  1.0000
  S   S308      1.0  0.63828  0.95559  0.39864  1.0000
  Fe  Fe155     1.0  0.54043  0.90864  0.41678  1.0000
  S   S309      1.0  0.54175  0.88534  0.43758  1.0000
  Fe  Fe156     1.0  0.57880  0.92239  0.44508  1.0000
  S   S310      1.0  0.58336  0.93793  0.47085  1.0000
  Fe  Fe157     1.0  0.56819  0.87384  0.42341  1.0000
  S   S311      1.0  0.56440  0.83336  0.41556  1.0000
  S   S312      1.0  0.57644  0.94587  0.42467  1.0000
  S   S313      1.0  0.56455  0.89493  0.40197  1.0000
  Fe  Fe158     1.0  0.60204  0.65860  0.43521  1.0000
  S   S314      1.0  0.57914  0.63417  0.41383  1.0000
  S   S315      1.0  0.62838  0.64331  0.44709  1.0000
  Fe  Fe159     1.0  0.58353  0.70071  0.42882  1.0000
  S   S316      1.0  0.56002  0.67849  0.40714  1.0000
  S   S317      1.0  0.58602  0.73919  0.43949  1.0000
  Fe  Fe160     1.0  0.54584  0.64170  0.42164  1.0000
  Fe  Fe161     1.0  0.59537  0.67286  0.40130  1.0000
  S   S318      1.0  0.61170  0.67668  0.37625  1.0000
  S   S319      1.0  0.56815  0.66438  0.44370  1.0000
  S   S320      1.0  0.61950  0.69677  0.42227  1.0000
  H   H1798     1.0  0.52538  0.73006  0.44603  1.0000
  Fe  Fe162     1.0  0.97703  0.77580  0.31431  1.0000
  H   H1799     1.0  0.96241  0.62346  0.46465  1.0000
  N   N77       1.0  0.67989  0.66374  0.40638  1.0000
  H   H1800     1.0  0.71519  0.65252  0.38074  1.0000
  C   C1056     1.0  0.65136  0.62923  0.47137  1.0000
  C   C1057     1.0  0.63498  0.64052  0.46741  1.0000
  C   C1058     1.0  0.54474  0.93384  0.37044  1.0000
  C   C1059     1.0  0.92885  0.68801  0.35959  1.0000
  H   H1801     1.0  0.65981  0.62270  0.46204  1.0000
  C   C1060     1.0  0.57072  0.80753  0.42255  1.0000
  C   C1061     1.0  0.56636  0.78633  0.41214  1.0000
  C   C1062     1.0  0.57120  0.76547  0.41698  1.0000
  C   C1063     1.0  0.58027  0.76533  0.43241  1.0000
  C   C1064     1.0  0.58460  0.78650  0.44281  1.0000
  C   C1065     1.0  0.58000  0.80748  0.43793  1.0000
  H   H1802     1.0  0.55921  0.78607  0.40020  1.0000
  H   H1803     1.0  0.56784  0.74949  0.40878  1.0000
  H   H1804     1.0  0.59162  0.78671  0.45478  1.0000
  H   H1805     1.0  0.58349  0.82353  0.44612  1.0000
  C   C1066     1.0  0.60572  0.96888  0.47981  1.0000
  S   S321      1.0  0.50298  0.90685  0.40490  1.0000
  H   H1806     1.0  0.49813  0.67463  0.40073  1.0000
  C   C1067     1.0  0.69444  0.72756  0.35662  1.0000
  C   C1068     1.0  0.67534  0.70631  0.34777  1.0000
  C   C1069     1.0  0.65022  0.69102  0.35395  1.0000
  C   C1070     1.0  0.64377  0.69668  0.36905  1.0000
  C   C1071     1.0  0.66283  0.71805  0.37784  1.0000
  C   C1072     1.0  0.68798  0.73324  0.37171  1.0000
  H   H1807     1.0  0.67993  0.70157  0.33617  1.0000
  H   H1808     1.0  0.63566  0.67463  0.34697  1.0000
  H   H1809     1.0  0.65808  0.72306  0.38930  1.0000
  H   H1810     1.0  0.70250  0.74967  0.37867  1.0000
  H   H1811     1.0  0.58085  0.50464  0.48763  1.0000
  C   C1073     1.0  0.65695  0.62630  0.48732  1.0000
  H   H1812     1.0  0.72305  0.65388  0.40930  1.0000
  H   H1813     1.0  0.50389  0.56757  0.41160  1.0000
  C   C1074     1.0  0.50659  0.69374  0.40741  1.0000
  C   C1075     1.0  0.78547  0.90883  0.32150  1.0000
  C   C1076     1.0  0.78803  0.88789  0.32813  1.0000
  C   C1077     1.0  0.78090  0.86452  0.31924  1.0000
  C   C1078     1.0  0.77138  0.86210  0.30367  1.0000
  C   C1079     1.0  0.76924  0.88317  0.29699  1.0000
  C   C1080     1.0  0.77629  0.90647  0.30585  1.0000
  H   H1814     1.0  0.79506  0.88961  0.34024  1.0000
  H   H1815     1.0  0.78222  0.84822  0.32453  1.0000
  H   H1816     1.0  0.76190  0.88144  0.28494  1.0000
  H   H1817     1.0  0.77469  0.92265  0.30054  1.0000
  C   C1081     1.0  0.65194  0.95468  0.37996  1.0000
  C   C1082     1.0  0.63664  0.93957  0.36699  1.0000
  Fe  Fe163     1.0  0.76045  0.97652  0.29094  1.0000
  C   C1083     1.0  0.67541  0.95630  0.35028  1.0000
  H   H1818     1.0  0.52466  0.92967  0.36648  1.0000
  C   C1084     1.0  0.67904  0.97027  0.37802  1.0000
  H   H1819     1.0  0.52503  0.70657  0.40141  1.0000
  H   H1820     1.0  0.67820  0.67784  0.43014  1.0000
  H   H1821     1.0  0.54087  0.89992  0.35680  1.0000
  H   H1822     1.0  0.52024  0.97784  0.37315  1.0000
  C   C1085     1.0  0.94828  0.74814  0.35934  1.0000
  H   H1823     1.0  0.92309  0.69302  0.37118  1.0000
  C   C1086     1.0  0.90965  0.76795  0.31570  1.0000
  C   C1087     1.0  0.88269  0.75093  0.31334  1.0000
  C   C1088     1.0  0.86398  0.76032  0.31428  1.0000
  C   C1089     1.0  0.87199  0.78687  0.31784  1.0000
  C   C1090     1.0  0.89897  0.80392  0.32020  1.0000
  C   C1091     1.0  0.91771  0.79459  0.31904  1.0000
  H   H1824     1.0  0.87620  0.73030  0.31077  1.0000
  H   H1825     1.0  0.84335  0.74693  0.31247  1.0000
  H   H1826     1.0  0.90542  0.82446  0.32302  1.0000
  H   H1827     1.0  0.93833  0.80791  0.32096  1.0000
  H   H1828     1.0  0.61587  0.92732  0.36827  1.0000
  C   C1092     1.0  0.69015  0.68482  0.41935  1.0000
  H   H1829     1.0  0.95761  0.67605  0.38120  1.0000
  H   H1830     1.0  0.94843  0.72883  0.33744  1.0000
  C   C1093     1.0  0.95858  0.73257  0.34910  1.0000
  H   H1831     1.0  0.71574  0.82236  0.35489  1.0000
  H   H1832     1.0  0.74899  0.83376  0.34915  1.0000
  C   C1094     1.0  0.65175  0.65725  0.40283  1.0000
  C   C1095     1.0  0.68062  0.63985  0.41298  1.0000
  H   H1833     1.0  0.51316  0.67068  0.42483  1.0000
  H   H1834     1.0  0.61627  0.63208  0.38932  1.0000
  H   H1835     1.0  0.69039  0.68723  0.38546  1.0000
  H   H1836     1.0  0.51463  0.74077  0.42003  1.0000
  S   S322      1.0  0.68876  0.95741  0.33119  1.0000
  H   H1837     1.0  0.63619  0.92913  0.34224  1.0000
  H   H1838     1.0  0.94640  0.76300  0.35192  1.0000
  N   N78       1.0  0.86234  0.88019  0.31527  1.0000
  C   C1096     1.0  0.87873  0.90654  0.32337  1.0000
  C   C1097     1.0  0.88021  0.86967  0.30910  1.0000
  C   C1098     1.0  0.84382  0.86080  0.32660  1.0000
  C   C1099     1.0  0.84650  0.88366  0.30199  1.0000
  C   C1100     1.0  0.86334  0.91888  0.33192  1.0000
  C   C1101     1.0  0.89900  0.88565  0.29611  1.0000
  C   C1102     1.0  0.85628  0.85737  0.34210  1.0000
  C   C1103     1.0  0.83097  0.85936  0.29105  1.0000
  H   H1839     1.0  0.89293  0.90551  0.33206  1.0000
  H   H1840     1.0  0.89099  0.92121  0.31469  1.0000
  H   H1841     1.0  0.86871  0.84909  0.30447  1.0000
  H   H1842     1.0  0.89283  0.86848  0.31881  1.0000
  H   H1843     1.0  0.82810  0.86590  0.32987  1.0000
  H   H1844     1.0  0.83348  0.84093  0.32090  1.0000
  H   H1845     1.0  0.83180  0.88924  0.30673  1.0000
  H   H1846     1.0  0.85915  0.90020  0.29444  1.0000
  H   H1847     1.0  0.87750  0.93789  0.33761  1.0000
  H   H1848     1.0  0.85093  0.92334  0.32359  1.0000
  H   H1849     1.0  0.85106  0.90652  0.34143  1.0000
  H   H1850     1.0  0.91043  0.87541  0.29237  1.0000
  H   H1851     1.0  0.88848  0.88710  0.28540  1.0000
  H   H1852     1.0  0.91339  0.90554  0.30049  1.0000
  H   H1853     1.0  0.86557  0.87563  0.34951  1.0000
  H   H1854     1.0  0.87058  0.84986  0.33992  1.0000
  H   H1855     1.0  0.84056  0.84233  0.34916  1.0000
  H   H1856     1.0  0.84386  0.85338  0.28439  1.0000
  H   H1857     1.0  0.81941  0.86405  0.28219  1.0000
  H   H1858     1.0  0.81676  0.84248  0.29766  1.0000
  H   H1859     1.0  0.95249  0.70014  0.32208  1.0000
  H   H1860     1.0  0.50741  0.75731  0.43550  1.0000
  H   H1861     1.0  0.50602  0.94594  0.38216  1.0000
  H   H1862     1.0  0.97938  0.74623  0.34660  1.0000
  H   H1863     1.0  0.56082  0.51328  0.47449  1.0000
  H   H1864     1.0  0.65025  0.67482  0.39891  1.0000
  H   H1865     1.0  0.92752  0.66817  0.36091  1.0000
  H   H1866     1.0  0.48712  0.92046  0.43548  1.0000
  H   H1867     1.0  0.48390  0.67555  0.46071  1.0000
  S   S323      1.0  0.76317  0.96590  0.26511  1.0000
  C   C1104     1.0  0.64828  0.94055  0.35225  1.0000
  C   C1105     1.0  0.75777  0.98010  0.24796  1.0000
  C   C1106     1.0  0.69155  0.71152  0.41526  1.0000
  C   C1107     1.0  0.50423  0.71983  0.44241  1.0000
  C   C1108     1.0  0.97258  0.71589  0.37147  1.0000
  H   H1868     1.0  0.72765  0.67542  0.24752  1.0000
  H   H1869     1.0  0.93639  0.66755  0.33025  1.0000
  H   H1870     1.0  0.71434  0.65411  0.42977  1.0000
  H   H1871     1.0  0.71051  0.68961  0.42304  1.0000
  C   C1109     1.0  0.90707  0.68527  0.34754  1.0000
  H   H1872     1.0  0.64490  0.64290  0.37804  1.0000
  H   H1873     1.0  0.67191  0.71020  0.41360  1.0000
  H   H1874     1.0  0.57756  0.98387  0.33595  1.0000
  H   H1875     1.0  0.63653  0.61690  0.39233  1.0000
  H   H1876     1.0  0.58815  0.55551  0.47138  1.0000
  H   H1877     1.0  0.54191  0.69550  0.45225  1.0000
  H   H1878     1.0  0.59885  0.96174  0.37174  1.0000
  C   C1110     1.0  0.52569  0.69061  0.46047  1.0000
  C   C1111     1.0  0.56009  0.56878  0.47698  1.0000
  N   N79       1.0  0.64373  0.87297  0.39057  1.0000
  C   C1112     1.0  0.61729  0.85384  0.38345  1.0000
  C   C1113     1.0  0.65581  0.85696  0.39755  1.0000
  C   C1114     1.0  0.66029  0.88951  0.37740  1.0000
  C   C1115     1.0  0.63936  0.88975  0.40287  1.0000
  C   C1116     1.0  0.60269  0.86594  0.37385  1.0000
  C   C1117     1.0  0.64055  0.83866  0.41095  1.0000
  C   C1118     1.0  0.69034  0.90266  0.37982  1.0000
  C   C1119     1.0  0.66345  0.90935  0.41279  1.0000
  H   H1879     1.0  0.61913  0.83913  0.37549  1.0000
  H   H1880     1.0  0.60364  0.84233  0.39277  1.0000
  H   H1881     1.0  0.67591  0.86947  0.40237  1.0000
  H   H1882     1.0  0.65826  0.84452  0.38812  1.0000
  H   H1883     1.0  0.65617  0.87755  0.36620  1.0000
  H   H1884     1.0  0.65518  0.90547  0.37474  1.0000
  H   H1885     1.0  0.63140  0.90197  0.39723  1.0000
  H   H1886     1.0  0.62360  0.87765  0.41107  1.0000
  H   H1887     1.0  0.61376  0.87672  0.36350  1.0000
  H   H1888     1.0  0.58379  0.84983  0.36922  1.0000
  H   H1889     1.0  0.59766  0.87893  0.38130  1.0000
  H   H1890     1.0  0.62182  0.82214  0.40655  1.0000
  H   H1891     1.0  0.65236  0.82966  0.41598  1.0000
  H   H1892     1.0  0.63678  0.84933  0.42082  1.0000
  H   H1893     1.0  0.69779  0.88796  0.37949  1.0000
  H   H1894     1.0  0.69733  0.91485  0.39080  1.0000
  H   H1895     1.0  0.69947  0.91604  0.36988  1.0000
  H   H1896     1.0  0.67349  0.92846  0.40684  1.0000
  H   H1897     1.0  0.67769  0.90212  0.41569  1.0000
  H   H1898     1.0  0.65693  0.91294  0.42444  1.0000
  N   N80       1.0  0.69215  0.79977  0.32542  1.0000
  C   C1120     1.0  0.68839  0.79803  0.30766  1.0000
  C   C1121     1.0  0.68415  0.77234  0.33106  1.0000
  C   C1122     1.0  0.72092  0.81599  0.32952  1.0000
  C   C1123     1.0  0.67525  0.81019  0.33321  1.0000
  C   C1124     1.0  0.69450  0.82375  0.29932  1.0000
  C   C1125     1.0  0.65584  0.75144  0.32672  1.0000
  C   C1126     1.0  0.72861  0.81784  0.34722  1.0000
  C   C1127     1.0  0.68643  0.84046  0.33463  1.0000
  H   H1899     1.0  0.70056  0.78976  0.30214  1.0000
  H   H1900     1.0  0.66776  0.78446  0.30408  1.0000
  H   H1901     1.0  0.68598  0.77229  0.34417  1.0000
  H   H1902     1.0  0.69751  0.76477  0.32649  1.0000
  H   H1903     1.0  0.73261  0.80804  0.32310  1.0000
  H   H1904     1.0  0.72861  0.83634  0.32550  1.0000
  H   H1905     1.0  0.65581  0.80221  0.32693  1.0000
  H   H1906     1.0  0.67109  0.80309  0.34552  1.0000
  H   H1907     1.0  0.69307  0.81993  0.28633  1.0000
  H   H1908     1.0  0.67996  0.83071  0.30214  1.0000
  H   H1909     1.0  0.71463  0.83947  0.30189  1.0000
  H   H1910     1.0  0.65088  0.73378  0.33382  1.0000
  H   H1911     1.0  0.64112  0.75820  0.32936  1.0000
  H   H1912     1.0  0.65393  0.74482  0.31414  1.0000
  C   C1128     1.0  0.58800  0.96711  0.38052  1.0000
  H   H1913     1.0  0.72857  0.79946  0.35106  1.0000
  H   H1914     1.0  0.63458  0.57153  0.47766  1.0000
  H   H1915     1.0  0.67006  0.84547  0.33321  1.0000
  H   H1916     1.0  0.70095  0.85183  0.32578  1.0000
  H   H1917     1.0  0.69488  0.84784  0.34668  1.0000
  H   H1918     1.0  0.64008  0.65101  0.41373  1.0000
  S   S324      1.0  0.50152  0.61424  0.42549  1.0000
  H   H1919     1.0  0.70699  0.62392  0.41971  1.0000
  H   H1920     1.0  0.59101  0.96733  0.34748  1.0000
  C   C1129     1.0  0.95536  0.68543  0.32896  1.0000
  H   H1921     1.0  0.70109  0.72561  0.42535  1.0000
  H   H1922     1.0  0.89626  0.69570  0.35203  1.0000
  C   C1130     1.0  0.96922  0.69624  0.34514  1.0000
  C   C1131     1.0  0.58550  0.56717  0.48113  1.0000
  H   H1923     1.0  0.75797  0.75918  0.24961  1.0000
  C   C1132     1.0  0.50127  0.73755  0.42996  1.0000
  H   H1924     1.0  0.96235  0.75913  0.36916  1.0000
  H   H1925     1.0  0.56104  0.57512  0.46457  1.0000
  H   H1926     1.0  0.91354  0.69174  0.33547  1.0000
  H   H1927     1.0  0.69586  0.66060  0.36769  1.0000
  H   H1928     1.0  0.89226  0.66426  0.34635  1.0000
  H   H1929     1.0  0.55316  0.92899  0.34568  1.0000
  C   C1133     1.0  0.69640  0.67411  0.39198  1.0000
  H   H1930     1.0  0.77143  0.91272  0.24992  1.0000
  H   H1931     1.0  0.67990  0.63375  0.38029  1.0000
  H   H1932     1.0  0.57409  0.92366  0.36005  1.0000
  H   H1933     1.0  0.49356  0.70283  0.40585  1.0000
  C   C1134     1.0  0.69648  0.65368  0.37980  1.0000
  H   H1934     1.0  0.58556  0.95385  0.39047  1.0000
  H   H1935     1.0  0.54224  0.92229  0.38127  1.0000
  H   H1936     1.0  0.52885  0.70853  0.46734  1.0000
  C   C1135     1.0  0.58494  0.98296  0.34802  1.0000
  H   H1937     1.0  0.67224  0.62284  0.40457  1.0000
  C   C1136     1.0  0.69075  0.97091  0.36336  1.0000
  N   N81       1.0  0.95663  0.70782  0.35613  1.0000
  H   H1938     1.0  0.71730  0.68672  0.39568  1.0000
  C   C1137     1.0  0.63704  0.63597  0.38989  1.0000
  H   H1939     1.0  0.96781  0.67949  0.32175  1.0000
  C   C1138     1.0  0.97412  0.61419  0.48702  1.0000
  H   H1940     1.0  0.70344  0.72020  0.40475  1.0000
  C   C1139     1.0  0.74319  0.71724  0.25065  1.0000
  H   H1941     1.0  0.96356  0.72372  0.38023  1.0000
  C   C1140     1.0  0.62431  0.64895  0.47962  1.0000
  H   H1942     1.0  0.53404  0.70479  0.42727  1.0000
  H   H1943     1.0  0.60195  0.58738  0.48017  1.0000
  H   H1944     1.0  0.92875  0.73553  0.36411  1.0000
  C   C1141     1.0  0.55425  0.92140  0.35747  1.0000
  H   H1945     1.0  0.52668  0.67667  0.46905  1.0000
  C   C1142     1.0  0.75007  0.74088  0.24282  1.0000
  C   C1143     1.0  0.52083  0.96683  0.38363  1.0000
  H   H1946     1.0  0.75560  0.87739  0.24645  1.0000
  N   N82       1.0  0.56157  0.96273  0.37420  1.0000
  Fe  Fe164     1.0  0.73100  0.97474  0.32202  1.0000
  H   H1947     1.0  0.54735  0.95879  0.39813  1.0000
  C   C1144     1.0  0.75259  0.89504  0.24691  1.0000
  H   H1948     1.0  0.61532  0.53639  0.47798  1.0000
  H   H1949     1.0  0.73946  0.89283  0.25689  1.0000
  H   H1950     1.0  0.54239  0.54954  0.47770  1.0000
  C   C1145     1.0  0.54861  0.97020  0.38737  1.0000
  C   C1146     1.0  0.56345  0.97903  0.36002  1.0000
  H   H1951     1.0  0.54428  0.97064  0.35338  1.0000
  C   C1147     1.0  0.97844  0.62341  0.47148  1.0000
  C   C1148     1.0  0.49873  0.67770  0.45176  1.0000
  C   C1149     1.0  0.56355  0.50821  0.48671  1.0000
  H   H1952     1.0  0.51447  0.97469  0.39387  1.0000
  H   H1953     1.0  0.63010  0.98370  0.45967  1.0000
  C   C1150     1.0  0.97631  0.69422  0.37994  1.0000
  H   H1954     1.0  0.97053  0.67937  0.35051  1.0000
  H   H1955     1.0  0.49324  0.72063  0.45296  1.0000
  C   C1151     1.0  0.73298  0.69373  0.24168  1.0000
  H   H1956     1.0  0.71158  0.98319  0.36209  1.0000
  C   C1152     1.0  0.62756  0.55417  0.48527  1.0000
  H   H1957     1.0  0.49497  0.65734  0.44849  1.0000
  H   H1958     1.0  0.69113  0.98213  0.38792  1.0000
  C   C1153     1.0  0.62703  0.98767  0.47180  1.0000
  C   C1154     1.0  0.48427  0.56143  0.41573  1.0000
  H   H1959     1.0  0.83613  0.73071  0.24101  1.0000
  H   H1960     1.0  0.64521  0.55259  0.48936  1.0000
  Fe  Fe165     1.0  0.64603  0.55138  0.54588  1.0000
  S   S325      1.0  0.66932  0.57036  0.52428  1.0000
  Fe  Fe166     1.0  0.68343  0.60010  0.56715  1.0000
  S   S326      1.0  0.70709  0.62200  0.54665  1.0000
  S   S327      1.0  0.69208  0.61439  0.59311  1.0000
  Fe  Fe167     1.0  0.66875  0.60728  0.53285  1.0000
  S   S328      1.0  0.65220  0.63132  0.51988  1.0000
  Fe  Fe168     1.0  0.70615  0.58334  0.53974  1.0000
  S   S329      1.0  0.74489  0.58617  0.53043  1.0000
  S   S330      1.0  0.64519  0.58848  0.55418  1.0000
  S   S331      1.0  0.68304  0.56145  0.56069  1.0000
  Fe  Fe169     1.0  0.88352  0.57508  0.54402  1.0000
  S   S332      1.0  0.90651  0.56597  0.56270  1.0000
  S   S333      1.0  0.84521  0.57294  0.55400  1.0000
  Fe  Fe170     1.0  0.92921  0.58922  0.52026  1.0000
  S   S334      1.0  0.95433  0.58170  0.53781  1.0000
  S   S335      1.0  0.94270  0.60403  0.49534  1.0000
  Fe  Fe171     1.0  0.91716  0.54489  0.54337  1.0000
  Fe  Fe172     1.0  0.94151  0.60330  0.55561  1.0000
  C   C1155     1.0  0.97326  0.65590  0.58819  1.0000
  S   S336      1.0  0.89220  0.55206  0.52509  1.0000
  S   S337      1.0  0.91826  0.61266  0.53750  1.0000
  H   H1961     1.0  0.64411  0.96471  0.52002  1.0000
  C   C1156     1.0  0.56531  0.52898  0.49905  1.0000
  S   S338      1.0  0.95198  0.78969  0.64299  1.0000
  H   H1962     1.0  0.97563  0.65459  0.53600  1.0000
  Fe  Fe173     1.0  0.77973  0.96831  0.65115  1.0000
  S   S339      1.0  0.96952  0.64217  0.56863  1.0000
  S   S340      1.0  0.76539  0.92473  0.64489  1.0000
  H   H1963     1.0  0.76905  0.67523  0.54102  1.0000
  H   H1964     1.0  0.55301  0.51936  0.58780  1.0000
  Fe  Fe174     1.0  0.79824  0.80511  0.66255  1.0000
  S   S341      1.0  0.75584  0.77529  0.66079  1.0000
  S   S342      1.0  0.81668  0.84953  0.65932  1.0000
  Fe  Fe175     1.0  0.81494  0.76314  0.67186  1.0000
  S   S343      1.0  0.77339  0.73032  0.67076  1.0000
  S   S344      1.0  0.84788  0.75568  0.68161  1.0000
  Fe  Fe176     1.0  0.76915  0.74858  0.64812  1.0000
  S   S345      1.0  0.75309  0.73155  0.62305  1.0000
  Fe  Fe177     1.0  0.76380  0.75965  0.68340  1.0000
  S   S346      1.0  0.73914  0.75642  0.70475  1.0000
  S   S347      1.0  0.81153  0.77971  0.64864  1.0000
  S   S348      1.0  0.80541  0.79106  0.68578  1.0000
  C   C1157     1.0  0.74351  0.74409  0.72297  1.0000
  C   C1158     1.0  0.81192  0.79848  0.73059  1.0000
  N   N83       1.0  0.73532  0.91435  0.69887  1.0000
  H   H1965     1.0  0.62533  0.97191  0.54362  1.0000
  H   H1966     1.0  0.82495  0.81374  0.72252  1.0000
  C   C1159     1.0  0.77981  0.90442  0.65021  1.0000
  C   C1160     1.0  0.76373  0.87715  0.65115  1.0000
  C   C1161     1.0  0.77454  0.86017  0.65460  1.0000
  C   C1162     1.0  0.80167  0.87018  0.65662  1.0000
  C   C1163     1.0  0.81768  0.89747  0.65590  1.0000
  C   C1164     1.0  0.80683  0.91455  0.65289  1.0000
  H   H1967     1.0  0.74279  0.86914  0.64918  1.0000
  H   H1968     1.0  0.76196  0.83933  0.65554  1.0000
  H   H1969     1.0  0.83870  0.90545  0.65750  1.0000
  H   H1970     1.0  0.81945  0.93545  0.65216  1.0000
  H   H1971     1.0  0.79712  0.67050  0.54453  1.0000
  H   H1972     1.0  0.73785  0.82572  0.62818  1.0000
  H   H1973     1.0  0.73081  0.76442  0.60392  1.0000
  C   C1165     1.0  0.92330  0.78018  0.65399  1.0000
  C   C1166     1.0  0.90378  0.78639  0.64844  1.0000
  C   C1167     1.0  0.88060  0.77899  0.65680  1.0000
  C   C1168     1.0  0.87681  0.76539  0.67084  1.0000
  C   C1169     1.0  0.89645  0.75940  0.67651  1.0000
  C   C1170     1.0  0.91962  0.76673  0.66811  1.0000
  H   H1974     1.0  0.90653  0.79685  0.63756  1.0000
  H   H1975     1.0  0.86570  0.78383  0.65238  1.0000
  H   H1976     1.0  0.89365  0.74887  0.68735  1.0000
  H   H1977     1.0  0.93458  0.76195  0.67251  1.0000
  H   H1978     1.0  0.64579  0.56368  0.58622  1.0000
  H   H1979     1.0  0.74227  0.94714  0.68393  1.0000
  H   H1980     1.0  0.85059  0.78939  0.70862  1.0000
  H   H1981     1.0  0.78124  0.93022  0.67922  1.0000
  H   H1982     1.0  0.55639  0.51587  0.56702  1.0000
  H   H1983     1.0  0.95356  0.67528  0.52562  1.0000
  H   H1984     1.0  0.97546  0.78975  0.72845  1.0000
  C   C1171     1.0  0.61354  0.55780  0.49985  1.0000
  H   H1985     1.0  0.77510  0.81525  0.63495  1.0000
  C   C1172     1.0  0.88592  0.71571  0.72510  1.0000
  H   H1986     1.0  0.87328  0.71992  0.71678  1.0000
  H   H1987     1.0  0.76746  0.84990  0.61164  1.0000
  C   C1173     1.0  0.70835  0.64715  0.60122  1.0000
  C   C1174     1.0  0.71604  0.66920  0.59184  1.0000
  C   C1175     1.0  0.72964  0.69475  0.59875  1.0000
  C   C1176     1.0  0.73588  0.69872  0.61509  1.0000
  C   C1177     1.0  0.72832  0.67666  0.62443  1.0000
  C   C1178     1.0  0.71459  0.65110  0.61755  1.0000
  H   H1988     1.0  0.71140  0.66660  0.57929  1.0000
  H   H1989     1.0  0.73528  0.71160  0.59137  1.0000
  H   H1990     1.0  0.73292  0.67928  0.63699  1.0000
  H   H1991     1.0  0.70890  0.63427  0.62495  1.0000
  C   C1179     1.0  0.77217  0.58143  0.53707  1.0000
  C   C1180     1.0  0.79397  0.58893  0.52730  1.0000
  C   C1181     1.0  0.81623  0.58615  0.53210  1.0000
  C   C1182     1.0  0.81717  0.57589  0.54684  1.0000
  C   C1183     1.0  0.79536  0.56840  0.55663  1.0000
  C   C1184     1.0  0.77301  0.57096  0.55176  1.0000
  H   H1992     1.0  0.79365  0.59695  0.51588  1.0000
  H   H1993     1.0  0.83270  0.59203  0.52439  1.0000
  H   H1994     1.0  0.79564  0.56022  0.56799  1.0000
  H   H1995     1.0  0.75628  0.56446  0.55926  1.0000
  C   C1185     1.0  0.64637  0.63486  0.49952  1.0000
  H   H1996     1.0  0.66966  0.61770  0.49016  1.0000
  C   C1186     1.0  0.98187  0.68308  0.59023  1.0000
  H   H1997     1.0  0.56519  0.54769  0.57532  1.0000
  H   H1998     1.0  0.62772  0.57728  0.50511  1.0000
  H   H1999     1.0  0.80223  0.93223  0.69533  1.0000
  H   H2000     1.0  0.93767  0.71014  0.72555  1.0000
  C   C1187     1.0  0.88545  0.79245  0.72017  1.0000
  C   C1188     1.0  0.94711  0.74148  0.70968  1.0000
  C   C1189     1.0  0.96107  0.79015  0.73684  1.0000
  H   H2001     1.0  0.79713  0.75785  0.73530  1.0000
  H   H2002     1.0  0.74815  0.88073  0.71618  1.0000
  H   H2003     1.0  0.83564  0.81748  0.61635  1.0000
  H   H2004     1.0  0.58682  0.58372  0.53466  1.0000
  H   H2005     1.0  0.67399  0.96651  0.51377  1.0000
  H   H2006     1.0  0.60532  0.54540  0.57022  1.0000
  H   H2007     1.0  0.97834  0.86194  0.66253  1.0000
  H   H2008     1.0  0.69226  0.97290  0.53864  1.0000
  S   S349      1.0  0.60414  0.51677  0.54117  1.0000
  H   H2009     1.0  0.78513  0.86279  0.58722  1.0000
  C   C1190     1.0  0.59376  0.53300  0.58000  1.0000
  C   C1191     1.0  0.74698  0.72158  0.72356  1.0000
  H   H2010     1.0  0.83939  0.74382  0.71536  1.0000
  H   H2011     1.0  0.80652  0.76528  0.71569  1.0000
  H   H2012     1.0  0.79647  0.85466  0.62117  1.0000
  C   C1192     1.0  0.67462  0.97612  0.53890  1.0000
  N   N84       1.0  0.78030  0.65153  0.57688  1.0000
  C   C1193     1.0  0.77735  0.65969  0.59352  1.0000
  C   C1194     1.0  0.75994  0.62322  0.57434  1.0000
  C   C1195     1.0  0.80802  0.65562  0.57523  1.0000
  C   C1196     1.0  0.79330  0.68916  0.59809  1.0000
  C   C1197     1.0  0.76132  0.60378  0.58618  1.0000
  C   C1198     1.0  0.81281  0.63945  0.56201  1.0000
  H   H2013     1.0  0.75650  0.65405  0.59578  1.0000
  H   H2014     1.0  0.78315  0.64917  0.60242  1.0000
  H   H2015     1.0  0.82162  0.67675  0.57343  1.0000
  H   H2016     1.0  0.81486  0.65052  0.58642  1.0000
  H   H2017     1.0  0.79242  0.69179  0.61109  1.0000
  H   H2018     1.0  0.81424  0.69721  0.59512  1.0000
  H   H2019     1.0  0.78464  0.70088  0.59261  1.0000
  H   H2020     1.0  0.75484  0.60650  0.59804  1.0000
  H   H2021     1.0  0.74744  0.58346  0.58212  1.0000
  H   H2022     1.0  0.78114  0.60517  0.58707  1.0000
  H   H2023     1.0  0.83252  0.65141  0.55712  1.0000
  H   H2024     1.0  0.79880  0.63312  0.55185  1.0000
  H   H2025     1.0  0.81346  0.62200  0.56692  1.0000
  H   H2026     1.0  0.60594  0.53434  0.62024  1.0000
  H   H2027     1.0  0.62194  0.65312  0.50487  1.0000
  C   C1199     1.0  0.63956  0.52556  0.59329  1.0000
  H   H2028     1.0  0.81410  0.88065  0.59970  1.0000
  H   H2029     1.0  0.89854  0.80878  0.71266  1.0000
  H   H2030     1.0  0.94579  0.49656  0.56521  1.0000
  H   H2031     1.0  0.56747  0.52141  0.51070  1.0000
  H   H2032     1.0  0.56374  0.57274  0.50856  1.0000
  H   H2033     1.0  0.73122  0.87996  0.68527  1.0000
  C   C1200     1.0  0.72995  0.92178  0.72886  1.0000
  C   C1201     1.0  0.78416  0.84542  0.61029  1.0000
  H   H2034     1.0  0.65879  0.95801  0.54389  1.0000
  S   S350      1.0  0.79811  0.98710  0.67468  1.0000
  H   H2035     1.0  0.71992  0.79323  0.61903  1.0000
  H   H2036     1.0  0.58592  0.96006  0.50198  1.0000
  H   H2037     1.0  0.76573  0.81256  0.58428  1.0000
  H   H2038     1.0  0.77580  0.90095  0.68966  1.0000
  H   H2039     1.0  0.65748  0.97436  0.56825  1.0000
  H   H2040     1.0  0.75724  0.76723  0.59158  1.0000
  H   H2041     1.0  0.80943  0.85160  0.58946  1.0000
  H   H2042     1.0  0.63258  0.51236  0.60343  1.0000
  H   H2043     1.0  0.57073  0.54912  0.53050  1.0000
  H   H2044     1.0  0.90482  0.63719  0.63564  1.0000
  H   H2045     1.0  0.66101  0.53235  0.59286  1.0000
  S   S351      1.0  0.91077  0.50190  0.54122  1.0000
  H   H2046     1.0  0.88355  0.77416  0.71437  1.0000
  C   C1202     1.0  0.74938  0.71167  0.73827  1.0000
  H   H2047     1.0  0.70023  0.96977  0.56526  1.0000
  C   C1203     1.0  0.76437  0.92775  0.70271  1.0000
  H   H2048     1.0  0.95436  0.76288  0.70898  1.0000
  H   H2049     1.0  0.74723  0.71149  0.71270  1.0000
  C   C1204     1.0  0.60755  0.57154  0.59734  1.0000
  H   H2050     1.0  0.80316  0.81144  0.59479  1.0000
  C   C1205     1.0  0.62211  0.58847  0.61216  1.0000
  H   H2051     1.0  0.61668  0.58360  0.58684  1.0000
  H   H2052     1.0  0.58734  0.56938  0.59771  1.0000
  H   H2053     1.0  0.64554  0.55928  0.60694  1.0000
  C   C1206     1.0  0.98291  0.68017  0.61894  1.0000
  H   H2054     1.0  0.57619  0.53270  0.61275  1.0000
  H   H2055     1.0  0.61530  0.57773  0.62326  1.0000
  H   H2056     1.0  0.64367  0.59648  0.61141  1.0000
  H   H2057     1.0  0.61838  0.60579  0.61290  1.0000
  N   N85       1.0  0.89109  0.61754  0.60278  1.0000
  C   C1207     1.0  0.89948  0.60100  0.61275  1.0000
  C   C1208     1.0  0.90348  0.64485  0.61023  1.0000
  C   C1209     1.0  0.90081  0.61822  0.58620  1.0000
  C   C1210     1.0  0.86156  0.60485  0.60264  1.0000
  C   C1211     1.0  0.89504  0.57446  0.60527  1.0000
  C   C1212     1.0  0.89681  0.64693  0.62760  1.0000
  C   C1213     1.0  0.90565  0.64230  0.57632  1.0000
  C   C1214     1.0  0.84837  0.61859  0.59340  1.0000
  H   H2058     1.0  0.92074  0.61198  0.61602  1.0000
  H   H2059     1.0  0.88917  0.59640  0.62418  1.0000
  H   H2060     1.0  0.89842  0.65842  0.60362  1.0000
  H   H2061     1.0  0.92525  0.65372  0.60974  1.0000
  H   H2062     1.0  0.91991  0.61778  0.58647  1.0000
  H   H2063     1.0  0.88719  0.60035  0.57917  1.0000
  H   H2064     1.0  0.85312  0.58475  0.59718  1.0000
  H   H2065     1.0  0.85373  0.60123  0.61478  1.0000
  H   H2066     1.0  0.87524  0.56286  0.59981  1.0000
  H   H2067     1.0  0.91000  0.57740  0.59637  1.0000
  H   H2068     1.0  0.89752  0.56235  0.61459  1.0000
  H   H2069     1.0  0.92779  0.73126  0.70341  1.0000
  C   C1215     1.0  0.70281  0.91774  0.67855  1.0000
  H   H2070     1.0  0.90631  0.66801  0.63141  1.0000
  H   H2071     1.0  0.88833  0.64566  0.57516  1.0000
  H   H2072     1.0  0.91075  0.63908  0.56419  1.0000
  H   H2073     1.0  0.92272  0.66034  0.58111  1.0000
  H   H2074     1.0  0.84652  0.61303  0.58061  1.0000
  H   H2075     1.0  0.85849  0.64018  0.59499  1.0000
  H   H2076     1.0  0.82845  0.61236  0.59800  1.0000
  H   H2077     1.0  0.87545  0.63915  0.62916  1.0000
  C   C1216     1.0  0.74264  0.77443  0.59362  1.0000
  H   H2078     1.0  0.72907  0.76815  0.58313  1.0000
  H   H2079     1.0  0.73996  0.81076  0.59601  1.0000
  H   H2080     1.0  0.96348  0.62013  0.60033  1.0000
  H   H2081     1.0  0.69051  0.89624  0.67703  1.0000
  H   H2082     1.0  0.63107  0.51477  0.58195  1.0000
  C   C1217     1.0  0.63502  0.54976  0.59564  1.0000
  H   H2083     1.0  0.79069  0.78858  0.60991  1.0000
  H   H2084     1.0  0.54589  0.52875  0.49912  1.0000
  C   C1218     1.0  0.76167  0.80482  0.62472  1.0000
  H   H2085     1.0  0.94584  0.79344  0.73061  1.0000
  H   H2086     1.0  0.72847  0.79716  0.63950  1.0000
  H   H2087     1.0  0.72930  0.85202  0.70483  1.0000
  S   S352      1.0  0.74632  0.97844  0.65299  1.0000
  C   C1219     1.0  0.82178  0.82584  0.61766  1.0000
  H   H2088     1.0  0.79176  0.79527  0.72768  1.0000
  C   C1220     1.0  0.79889  0.86074  0.59576  1.0000
  N   N86       1.0  0.77466  0.81616  0.60941  1.0000
  C   C1221     1.0  0.73558  0.80550  0.62776  1.0000
  C   C1222     1.0  0.75570  0.80466  0.59554  1.0000
  H   H2089     1.0  0.71302  0.86356  0.71857  1.0000
  C   C1223     1.0  0.58355  0.57395  0.50949  1.0000
  C   C1224     1.0  0.81290  0.77228  0.72815  1.0000
  H   H2090     1.0  0.70273  0.87571  0.69452  1.0000
  C   C1225     1.0  0.60225  0.97448  0.49564  1.0000
  H   H2091     1.0  0.76439  0.64283  0.54385  1.0000
  H   H2092     1.0  0.72223  0.94066  0.70965  1.0000
  N   N87       1.0  0.60695  0.54500  0.59574  1.0000
  H   H2093     1.0  0.60589  0.56796  0.52916  1.0000
  C   C1226     1.0  0.59270  0.52861  0.60955  1.0000
  H   H2094     1.0  0.75433  0.66601  0.56759  1.0000
  H   H2095     1.0  0.89306  0.70343  0.71861  1.0000
  H   H2096     1.0  0.81716  0.82518  0.63031  1.0000
  C   C1227     1.0  0.77644  0.66354  0.54784  1.0000
  H   H2097     1.0  0.61252  0.54320  0.50867  1.0000
  H   H2098     1.0  0.78807  0.68948  0.56776  1.0000
  C   C1228     1.0  0.79700  0.80959  0.60730  1.0000
  H   H2099     1.0  0.71597  0.92433  0.73674  1.0000
  H   H2100     1.0  0.76900  0.92259  0.71445  1.0000
  C   C1229     1.0  0.72435  0.88505  0.69645  1.0000
  H   H2101     1.0  0.73953  0.91891  0.67349  1.0000
  H   H2102     1.0  0.85396  0.74486  0.73427  1.0000
  H   H2103     1.0  0.73987  0.62147  0.57502  1.0000
  H   H2104     1.0  0.69946  0.90696  0.71074  1.0000
  C   C1230     1.0  0.73141  0.92529  0.68352  1.0000
  H   H2105     1.0  0.79601  0.71879  0.72388  1.0000
  H   H2106     1.0  0.91451  0.75568  0.72172  1.0000
  H   H2107     1.0  0.59318  0.51381  0.57752  1.0000
  C   C1231     1.0  0.77440  0.66830  0.56562  1.0000
  H   H2108     1.0  0.76044  0.61543  0.56236  1.0000
  H   H2109     1.0  0.75769  0.78402  0.62563  1.0000
  H   H2110     1.0  0.83216  0.84660  0.61411  1.0000
  C   C1232     1.0  0.78151  0.92217  0.69095  1.0000
  C   C1233     1.0  0.58696  0.56802  0.52686  1.0000
  C   C1234     1.0  0.63013  0.64629  0.49555  1.0000
  H   H2111     1.0  0.69368  0.92602  0.68690  1.0000
  C   C1235     1.0  0.81201  0.72196  0.73250  1.0000
  H   H2112     1.0  0.77187  0.94943  0.70352  1.0000
  C   C1236     1.0  0.94614  0.73191  0.72674  1.0000
  C   C1237     1.0  0.56546  0.52887  0.57764  1.0000
  C   C1238     1.0  0.97430  0.65299  0.61689  1.0000
  C   C1239     1.0  0.72081  0.92090  0.71152  1.0000
  C   C1240     1.0  0.85870  0.79257  0.72099  1.0000
  C   C1241     1.0  0.72899  0.86985  0.70993  1.0000
  N   N88       1.0  0.83893  0.77300  0.73183  1.0000
  C   C1242     1.0  0.83741  0.74643  0.72829  1.0000
  H   H2113     1.0  0.74931  0.93909  0.73129  1.0000
  C   C1243     1.0  0.69741  0.98377  0.57319  1.0000
  H   H2114     1.0  0.70281  0.92633  0.66689  1.0000
  H   H2115     1.0  0.75158  0.69398  0.73865  1.0000
  C   C1244     1.0  0.90856  0.74179  0.73158  1.0000
  H   H2116     1.0  0.96083  0.73677  0.70287  1.0000
  N   N89       1.0  0.58689  0.55653  0.49710  1.0000
  H   H2117     1.0  0.98191  0.64442  0.51741  1.0000
  C   C1245     1.0  0.66572  0.97648  0.52154  1.0000
  H   H2118     1.0  0.59765  0.59491  0.50770  1.0000
  H   H2119     1.0  0.86315  0.81302  0.72445  1.0000
  C   C1246     1.0  0.96943  0.64090  0.60166  1.0000
  H   H2120     1.0  0.73066  0.90368  0.73229  1.0000
  C   C1247     1.0  0.74245  0.75654  0.73721  1.0000
  C   C1248     1.0  0.96459  0.67072  0.51647  1.0000
  H   H2121     1.0  0.89534  0.79557  0.73192  1.0000
  S   S353      1.0  0.97607  0.74277  0.66516  1.0000
  H   H2122     1.0  0.96667  0.73858  0.73090  1.0000
  H   H2123     1.0  0.97786  0.87977  0.64537  1.0000
  H   H2124     1.0  0.97175  0.64126  0.62720  1.0000
  H   H2125     1.0  0.73929  0.77368  0.73687  1.0000
  H   H2126     1.0  0.80438  0.93628  0.73624  1.0000
  H   H2127     1.0  0.98251  0.84513  0.63424  1.0000
  H   H2128     1.0  0.94942  0.65391  0.50941  1.0000
  H   H2129     1.0  0.81515  0.70432  0.73150  1.0000
  H   H2130     1.0  0.69062  0.97413  0.58468  1.0000
  C   C1249     1.0  0.58043  0.49835  0.60727  1.0000
  H   H2131     1.0  0.87339  0.70421  0.73484  1.0000
  H   H2132     1.0  0.97341  0.68710  0.50829  1.0000
  Fe  Fe178     1.0  0.98244  0.77734  0.65069  1.0000
  N   N90       1.0  0.93168  0.73977  0.73874  1.0000
  H   H2133     1.0  0.58911  0.49116  0.59806  1.0000
  H   H2134     1.0  0.55895  0.48965  0.60494  1.0000
  H   H2135     1.0  0.62816  0.98934  0.56225  1.0000
  H   H2136     1.0  0.58267  0.48985  0.61853  1.0000
  Fe  Fe179     1.0  0.62349  0.53094  0.92232  1.0000
  S   S354      1.0  0.64809  0.54011  0.94492  1.0000
  Fe  Fe180     1.0  0.66680  0.57993  0.90624  1.0000
  S   S355      1.0  0.69345  0.59197  0.92785  1.0000
  S   S356      1.0  0.67783  0.59778  0.88164  1.0000
  Fe  Fe181     1.0  0.68305  0.54927  0.92944  1.0000
  S   S357      1.0  0.71338  0.53542  0.93691  1.0000
  Fe  Fe182     1.0  0.65693  0.58227  0.94189  1.0000
  S   S358      1.0  0.66096  0.60971  0.96316  1.0000
  S   S359      1.0  0.65779  0.53715  0.90711  1.0000
  S   S360      1.0  0.63109  0.57323  0.92003  1.0000
  Fe  Fe183     1.0  0.86907  0.56437  0.92058  1.0000
  S   S361      1.0  0.88790  0.55297  0.90063  1.0000
  S   S362      1.0  0.82992  0.56471  0.91460  1.0000
  Fe  Fe184     1.0  0.91852  0.58189  0.94193  1.0000
  S   S363      1.0  0.94014  0.57211  0.92323  1.0000
  S   S364      1.0  0.93458  0.60046  0.96653  1.0000
  Fe  Fe185     1.0  0.92396  0.59120  0.90606  1.0000
  S   S365      1.0  0.94962  0.61635  0.88605  1.0000
  Fe  Fe186     1.0  0.90235  0.53442  0.91918  1.0000
  S   S366      1.0  0.90488  0.60352  0.92512  1.0000
  S   S367      1.0  0.88118  0.54339  0.93881  1.0000
  H   H2137     1.0  0.77667  0.92009  0.79393  1.0000
  Fe  Fe187     1.0  0.95841  0.76135  0.80155  1.0000
  S   S368      1.0  0.91991  0.75422  0.78976  1.0000
  H   H2138     1.0  0.57777  0.98634  0.92288  1.0000
  C   C1250     1.0  0.75010  0.90710  0.77396  1.0000
  H   H2139     1.0  0.77717  0.85945  0.76073  1.0000
  H   H2140     1.0  0.73752  0.89092  0.78170  1.0000
  Fe  Fe188     1.0  0.77746  0.96235  0.82212  1.0000
  S   S369      1.0  0.78027  0.92707  0.83227  1.0000
  H   H2141     1.0  0.60182  0.59231  0.86624  1.0000
  Fe  Fe189     1.0  0.80043  0.76846  0.81775  1.0000
  S   S370      1.0  0.77520  0.72485  0.81553  1.0000
  S   S371      1.0  0.84323  0.78751  0.82532  1.0000
  Fe  Fe190     1.0  0.75522  0.78082  0.81029  1.0000
  S   S372      1.0  0.72642  0.73780  0.80731  1.0000
  S   S373      1.0  0.73879  0.80956  0.80580  1.0000
  Fe  Fe191     1.0  0.74534  0.73139  0.82928  1.0000
  S   S374      1.0  0.72331  0.71229  0.85185  1.0000
  Fe  Fe192     1.0  0.75845  0.73485  0.79383  1.0000
  S   S375      1.0  0.75404  0.71242  0.77063  1.0000
  S   S376      1.0  0.77215  0.77488  0.83296  1.0000
  S   S377      1.0  0.78582  0.77808  0.79528  1.0000
  H   H2142     1.0  0.85353  0.66678  0.86062  1.0000
  C   C1251     1.0  0.74926  0.72465  0.75249  1.0000
  H   H2143     1.0  0.56234  0.96831  0.96452  1.0000
  H   H2144     1.0  0.82969  0.67884  0.85866  1.0000
  N   N91       1.0  0.60457  0.70800  0.98445  1.0000
  C   C1252     1.0  0.76874  0.89464  0.82449  1.0000
  C   C1253     1.0  0.78221  0.88040  0.82861  1.0000
  C   C1254     1.0  0.77352  0.85442  0.82288  1.0000
  C   C1255     1.0  0.75099  0.84230  0.81315  1.0000
  C   C1256     1.0  0.73737  0.85643  0.80916  1.0000
  C   C1257     1.0  0.74617  0.88247  0.81479  1.0000
  H   H2145     1.0  0.79954  0.88959  0.83625  1.0000
  H   H2146     1.0  0.78420  0.84378  0.82604  1.0000
  H   H2147     1.0  0.71977  0.84711  0.80175  1.0000
  H   H2148     1.0  0.73528  0.89299  0.81187  1.0000
  C   C1258     1.0  0.82489  0.93368  0.78134  1.0000
  H   H2149     1.0  0.59532  0.73405  0.97054  1.0000
  H   H2150     1.0  0.60374  0.58935  0.96014  1.0000
  C   C1259     1.0  0.89888  0.76380  0.79966  1.0000
  C   C1260     1.0  0.87245  0.75294  0.79470  1.0000
  C   C1261     1.0  0.85516  0.76008  0.80247  1.0000
  C   C1262     1.0  0.86436  0.77841  0.81511  1.0000
  C   C1263     1.0  0.89083  0.78943  0.81995  1.0000
  C   C1264     1.0  0.90806  0.78212  0.81227  1.0000
  H   H2151     1.0  0.86523  0.73871  0.78496  1.0000
  H   H2152     1.0  0.83473  0.75137  0.79874  1.0000
  H   H2153     1.0  0.89804  0.80368  0.82969  1.0000
  H   H2154     1.0  0.92846  0.79079  0.81605  1.0000
  H   H2155     1.0  0.67414  0.54413  0.98245  1.0000
  C   C1265     1.0  0.61661  0.57541  0.84195  1.0000
  C   C1266     1.0  0.95255  0.64434  0.87552  1.0000
  C   C1267     1.0  0.94056  0.65955  0.88040  1.0000
  H   H2156     1.0  0.82867  0.95399  0.77859  1.0000
  C   C1268     1.0  0.94975  0.76558  0.74701  1.0000
  C   C1269     1.0  0.96648  0.66534  0.94788  1.0000
  C   C1270     1.0  0.60215  0.73292  0.98277  1.0000
  H   H2157     1.0  0.92810  0.65379  0.89053  1.0000
  C   C1271     1.0  0.57422  0.98456  0.93578  1.0000
  H   H2158     1.0  0.58773  0.56822  0.89907  1.0000
  C   C1272     1.0  0.96564  0.60993  0.97604  1.0000
  H   H2159     1.0  0.96710  0.76485  0.75242  1.0000
  C   C1273     1.0  0.71180  0.68044  0.86004  1.0000
  C   C1274     1.0  0.71003  0.65873  0.85129  1.0000
  C   C1275     1.0  0.69974  0.63375  0.85814  1.0000
  C   C1276     1.0  0.69147  0.63009  0.87391  1.0000
  C   C1277     1.0  0.69343  0.65183  0.88271  1.0000
  C   C1278     1.0  0.70333  0.67673  0.87577  1.0000
  H   H2160     1.0  0.71630  0.66111  0.83918  1.0000
  H   H2161     1.0  0.69833  0.61714  0.85117  1.0000
  H   H2162     1.0  0.68710  0.64945  0.89480  1.0000
  H   H2163     1.0  0.70453  0.69329  0.88268  1.0000
  C   C1279     1.0  0.74578  0.54389  0.93049  1.0000
  C   C1280     1.0  0.76051  0.53336  0.93830  1.0000
  C   C1281     1.0  0.78646  0.54003  0.93398  1.0000
  C   C1282     1.0  0.79792  0.55689  0.92148  1.0000
  C   C1283     1.0  0.78306  0.56712  0.91355  1.0000
  C   C1284     1.0  0.75735  0.56094  0.91811  1.0000
  H   H2164     1.0  0.75184  0.52011  0.94788  1.0000
  H   H2165     1.0  0.79745  0.53188  0.94020  1.0000
  H   H2166     1.0  0.79154  0.58003  0.90379  1.0000
  H   H2167     1.0  0.74641  0.56919  0.91191  1.0000
  C   C1285     1.0  0.63731  0.61303  0.97514  1.0000
  H   H2168     1.0  0.90852  0.69948  0.74592  1.0000
  H   H2169     1.0  0.55389  0.50380  0.87798  1.0000
  H   H2170     1.0  0.61986  0.71278  0.96084  1.0000
  C   C1286     1.0  0.58810  0.58084  0.88927  1.0000
  H   H2171     1.0  0.58986  0.50165  0.86780  1.0000
  H   H2172     1.0  0.81635  0.80572  0.74307  1.0000
  H   H2173     1.0  0.90014  0.75012  0.74049  1.0000
  C   C1287     1.0  0.55107  0.52092  0.87464  1.0000
  H   H2174     1.0  0.74540  0.75718  0.76277  1.0000
  C   C1288     1.0  0.77142  0.86247  0.77274  1.0000
  S   S378      1.0  0.57929  0.50093  0.91864  1.0000
  H   H2175     1.0  0.93285  0.69829  0.76846  1.0000
  H   H2176     1.0  0.64370  0.68488  0.96525  1.0000
  S   S379      1.0  0.96789  0.72105  0.85020  1.0000
  S   S380      1.0  0.90588  0.49631  0.91400  1.0000
  C   C1289     1.0  0.54073  0.97220  0.98356  1.0000
  H   H2177     1.0  0.62524  0.51816  0.86984  1.0000
  C   C1290     1.0  0.82981  0.93394  0.79937  1.0000
  H   H2178     1.0  0.54111  0.95470  0.98872  1.0000
  H   H2179     1.0  0.81107  0.88476  0.78083  1.0000
  H   H2180     1.0  0.81542  0.90887  0.75347  1.0000
  H   H2181     1.0  0.84069  0.93077  0.77559  1.0000
  H   H2182     1.0  0.57820  0.66609  0.98216  1.0000
  H   H2183     1.0  0.53121  0.51293  0.86901  1.0000
  C   C1291     1.0  0.97308  0.67524  0.85413  1.0000
  H   H2184     1.0  0.78095  0.59002  0.97594  1.0000
  C   C1292     1.0  0.61065  0.60134  0.97088  1.0000
  H   H2185     1.0  0.59358  0.53492  0.89159  1.0000
  C   C1293     1.0  0.61788  0.55804  0.85529  1.0000
  C   C1294     1.0  0.96160  0.69077  0.85921  1.0000
  C   C1295     1.0  0.79296  0.88722  0.78124  1.0000
  H   H2186     1.0  0.84935  0.95045  0.80262  1.0000
  H   H2187     1.0  0.56785  0.57555  0.88510  1.0000
  H   H2188     1.0  0.74654  0.63993  0.95020  1.0000
  H   H2189     1.0  0.73043  0.65414  0.96164  1.0000
  H   H2190     1.0  0.50667  0.98075  0.95457  1.0000
  H   H2191     1.0  0.90929  0.72350  0.75977  1.0000
  H   H2192     1.0  0.55091  0.53161  0.88559  1.0000
  H   H2193     1.0  0.52811  0.95376  0.96036  1.0000
  C   C1296     1.0  0.62537  0.68165  0.97114  1.0000
  H   H2194     1.0  0.57236  0.59647  0.97689  1.0000
  H   H2195     1.0  0.57014  0.52494  0.85268  1.0000
  N   N92       1.0  0.70939  0.79176  0.85292  1.0000
  C   C1297     1.0  0.70544  0.76852  0.84245  1.0000
  C   C1298     1.0  0.73831  0.80661  0.85708  1.0000
  C   C1299     1.0  0.70065  0.80863  0.84353  1.0000
  C   C1300     1.0  0.69294  0.78134  0.86727  1.0000
  C   C1301     1.0  0.67786  0.75239  0.83477  1.0000
  C   C1302     1.0  0.74916  0.79238  0.86796  1.0000
  C   C1303     1.0  0.71180  0.83782  0.84868  1.0000
  C   C1304     1.0  0.69619  0.80146  0.88056  1.0000
  H   H2196     1.0  0.71944  0.77495  0.83259  1.0000
  H   H2197     1.0  0.70957  0.75427  0.84907  1.0000
  H   H2198     1.0  0.74375  0.82577  0.86313  1.0000
  H   H2199     1.0  0.74992  0.81180  0.84611  1.0000
  H   H2200     1.0  0.70597  0.80888  0.83092  1.0000
  H   H2201     1.0  0.67890  0.80013  0.84334  1.0000
  H   H2202     1.0  0.67175  0.77161  0.86386  1.0000
  H   H2203     1.0  0.69584  0.76522  0.87259  1.0000
  H   H2204     1.0  0.66250  0.74349  0.84366  1.0000
  H   H2205     1.0  0.67271  0.76411  0.82646  1.0000
  H   H2206     1.0  0.67776  0.73587  0.82766  1.0000
  H   H2207     1.0  0.77070  0.80467  0.86952  1.0000
  H   H2208     1.0  0.74074  0.78964  0.87989  1.0000
  H   H2209     1.0  0.74600  0.77315  0.86298  1.0000
  H   H2210     1.0  0.70195  0.84688  0.84150  1.0000
  H   H2211     1.0  0.73299  0.84899  0.84624  1.0000
  H   H2212     1.0  0.70852  0.84078  0.86120  1.0000
  H   H2213     1.0  0.68209  0.80943  0.87876  1.0000
  H   H2214     1.0  0.71624  0.81789  0.88190  1.0000
  H   H2215     1.0  0.69233  0.79160  0.89210  1.0000
  N   N93       1.0  0.88046  0.72023  0.84956  1.0000
  C   C1305     1.0  0.89964  0.74897  0.85172  1.0000
  C   C1306     1.0  0.85891  0.71758  0.83815  1.0000
  C   C1307     1.0  0.89359  0.70489  0.84293  1.0000
  C   C1308     1.0  0.86977  0.70958  0.86547  1.0000
  C   C1309     1.0  0.92510  0.75546  0.86121  1.0000
  C   C1310     1.0  0.84096  0.72910  0.84396  1.0000
  C   C1311     1.0  0.90762  0.71453  0.82721  1.0000
  H   H2216     1.0  0.90544  0.75840  0.84012  1.0000
  H   H2217     1.0  0.89043  0.75978  0.85785  1.0000
  H   H2218     1.0  0.84622  0.69665  0.83452  1.0000
  H   H2219     1.0  0.86730  0.72766  0.82698  1.0000
  H   H2220     1.0  0.90801  0.70426  0.85162  1.0000
  H   H2221     1.0  0.87908  0.68402  0.84056  1.0000
  H   H2222     1.0  0.88551  0.70981  0.87338  1.0000
  H   H2223     1.0  0.86266  0.72233  0.87158  1.0000
  H   H2224     1.0  0.92134  0.74821  0.87342  1.0000
  H   H2225     1.0  0.93725  0.74790  0.85518  1.0000
  H   H2226     1.0  0.93715  0.77715  0.86218  1.0000
  H   H2227     1.0  0.82648  0.72653  0.83437  1.0000
  H   H2228     1.0  0.82960  0.71901  0.85437  1.0000
  H   H2229     1.0  0.85201  0.75049  0.84662  1.0000
  H   H2230     1.0  0.91711  0.70218  0.82398  1.0000
  H   H2231     1.0  0.92333  0.73507  0.82813  1.0000
  C   C1312     1.0  0.74583  0.74719  0.75190  1.0000
  H   H2232     1.0  0.59622  0.56994  0.83806  1.0000
  C   C1313     1.0  0.96876  0.65238  0.86231  1.0000
  H   H2233     1.0  0.93634  0.69452  0.87652  1.0000
  C   C1314     1.0  0.94527  0.68269  0.87239  1.0000
  H   H2234     1.0  0.70389  0.56386  0.96126  1.0000
  S   S381      1.0  0.81121  0.98747  0.80721  1.0000
  C   C1315     1.0  0.72299  0.61560  0.96943  1.0000
  H   H2235     1.0  0.63865  0.56693  0.85964  1.0000
  H   H2236     1.0  0.62510  0.67294  0.98272  1.0000
  C   C1316     1.0  0.60142  0.96241  0.98838  1.0000
  C   C1317     1.0  0.77835  0.92186  0.78091  1.0000
  H   H2237     1.0  0.53778  0.66416  0.98729  1.0000
  H   H2238     1.0  0.78142  0.89731  0.75161  1.0000
  H   H2239     1.0  0.64434  0.72333  0.97592  1.0000
  H   H2240     1.0  0.81533  0.93716  0.80625  1.0000
  H   H2241     1.0  0.78517  0.94319  0.77933  1.0000
  C   C1318     1.0  0.59288  0.60544  0.98043  1.0000
  C   C1319     1.0  0.82995  0.76636  0.76197  1.0000
  H   H2242     1.0  0.56953  0.96416  0.93879  1.0000
  H   H2243     1.0  0.76872  0.84499  0.77946  1.0000
  H   H2244     1.0  0.78784  0.88593  0.79391  1.0000
  C   C1320     1.0  0.76871  0.58283  0.96495  1.0000
  C   C1321     1.0  0.62419  0.70789  0.97287  1.0000
  H   H2245     1.0  0.95005  0.66285  0.93979  1.0000
  N   N94       1.0  0.59965  0.55375  0.86884  1.0000
  H   H2246     1.0  0.76897  0.61880  0.95925  1.0000
  C   C1322     1.0  0.60667  0.53961  0.88139  1.0000
  C   C1323     1.0  0.60496  0.58042  0.87544  1.0000
  C   C1324     1.0  0.57163  0.53838  0.86275  1.0000
  H   H2247     1.0  0.71954  0.55562  0.97681  1.0000
  H   H2248     1.0  0.83055  0.51938  0.89605  1.0000
  H   H2249     1.0  0.85361  0.80312  0.75073  1.0000
  H   H2250     1.0  0.67982  0.57721  0.98148  1.0000
  H   H2251     1.0  0.83268  0.74903  0.76496  1.0000
  H   H2252     1.0  0.79241  0.52121  0.88594  1.0000
  H   H2253     1.0  0.82160  0.95603  0.75314  1.0000
  H   H2254     1.0  0.62657  0.55260  0.88647  1.0000
  H   H2255     1.0  0.62591  0.59185  0.87937  1.0000
  C   C1325     1.0  0.55446  0.68430  0.98843  1.0000
  H   H2256     1.0  0.56459  0.55189  0.85776  1.0000
  H   H2257     1.0  0.82086  0.50958  0.92257  1.0000
  H   H2258     1.0  0.60575  0.50207  0.88630  1.0000
  H   H2259     1.0  0.96668  0.65839  0.91153  1.0000
  C   C1326     1.0  0.68940  0.56486  0.98432  1.0000
  H   H2260     1.0  0.52137  0.97082  0.98625  1.0000
  H   H2261     1.0  0.75551  0.56148  0.96554  1.0000
  C   C1327     1.0  0.92154  0.71924  0.75126  1.0000
  H   H2262     1.0  0.75914  0.65397  0.96978  1.0000
  H   H2263     1.0  0.83458  0.77926  0.77275  1.0000
  H   H2264     1.0  0.61400  0.53900  0.84948  1.0000
  H   H2265     1.0  0.95658  0.71274  0.75353  1.0000
  C   C1328     1.0  0.81345  0.49987  0.89328  1.0000
  H   H2266     1.0  0.53307  0.97364  0.93482  1.0000
  H   H2267     1.0  0.78632  0.94257  0.75117  1.0000
  C   C1329     1.0  0.79935  0.91328  0.75723  1.0000
  H   H2268     1.0  0.60229  0.94948  0.96442  1.0000
  S   S382      1.0  0.74779  0.96611  0.80603  1.0000
  H   H2269     1.0  0.89380  0.71240  0.81736  1.0000
  H   H2270     1.0  0.97893  0.59047  0.95928  1.0000
  H   H2271     1.0  0.74855  0.89917  0.76181  1.0000
  H   H2272     1.0  0.62709  0.59655  0.84558  1.0000
  C   C1330     1.0  0.84735  0.68111  0.86536  1.0000
  H   H2273     1.0  0.84135  0.67562  0.87771  1.0000
  H   H2274     1.0  0.57410  0.68486  0.96691  1.0000
  C   C1331     1.0  0.57828  0.68518  0.97985  1.0000
  H   H2275     1.0  0.62700  0.57311  0.83155  1.0000
  N   N95       1.0  0.79815  0.91364  0.77503  1.0000
  H   H2276     1.0  0.78226  0.58538  0.95515  1.0000
  H   H2277     1.0  0.75216  0.86227  0.77228  1.0000
  H   H2278     1.0  0.85559  0.49924  0.90668  1.0000
  H   H2279     1.0  0.74170  0.92103  0.77325  1.0000
  H   H2280     1.0  0.62303  0.77546  0.98334  1.0000
  H   H2281     1.0  0.95348  0.73273  0.76937  1.0000
  H   H2282     1.0  0.59653  0.60120  0.89431  1.0000
  C   C1332     1.0  0.71249  0.56992  0.97345  1.0000
  H   H2283     1.0  0.74334  0.59137  0.94963  1.0000
  H   H2284     1.0  0.83004  0.91570  0.80324  1.0000
  C   C1333     1.0  0.94259  0.71583  0.76106  1.0000
  C   C1334     1.0  0.75369  0.59854  0.96134  1.0000
  C   C1335     1.0  0.80321  0.93866  0.74921  1.0000
  C   C1336     1.0  0.60854  0.96633  0.97242  1.0000
  H   H2285     1.0  0.97220  0.80764  0.74476  1.0000
  C   C1337     1.0  0.74124  0.64239  0.96246  1.0000
  H   H2286     1.0  0.97821  0.64089  0.85840  1.0000
  S   S383      1.0  0.96347  0.72512  0.80369  1.0000
  H   H2287     1.0  0.60874  0.66712  0.96368  1.0000
  H   H2288     1.0  0.80896  0.76007  0.75944  1.0000
  H   H2289     1.0  0.95757  0.65632  0.95918  1.0000
  H   H2290     1.0  0.71357  0.61959  0.97982  1.0000
  H   H2291     1.0  0.81567  0.49493  0.88082  1.0000
  H   H2292     1.0  0.70699  0.60582  0.96038  1.0000
  C   C1338     1.0  0.78870  0.50392  0.89316  1.0000
  H   H2293     1.0  0.86697  0.78141  0.75119  1.0000
  N   N96       1.0  0.73464  0.59768  0.97367  1.0000
  C   C1339     1.0  0.54492  0.97173  0.96559  1.0000
  H   H2294     1.0  0.93962  0.76963  0.75702  1.0000
  S   S384      1.0  0.97748  0.77859  0.82518  1.0000
  H   H2295     1.0  0.96576  0.63078  0.93787  1.0000
  H   H2296     1.0  0.78378  0.50825  0.90509  1.0000
  C   C1340     1.0  0.60671  0.51387  0.87583  1.0000
  C   C1341     1.0  0.84825  0.78201  0.74868  1.0000
  H   H2297     1.0  0.80552  0.72277  0.74462  1.0000
  H   H2298     1.0  0.64418  0.76113  0.97999  1.0000
  H   H2299     1.0  0.78475  0.63634  0.98232  1.0000
  H   H2300     1.0  0.54794  0.69789  0.98310  1.0000
  C   C1342     1.0  0.62691  0.75892  0.98664  1.0000
  H   H2301     1.0  0.98107  0.68877  0.92186  1.0000
  H   H2302     1.0  0.97926  0.68641  0.95053  1.0000
  C   C1343     1.0  0.98130  0.65102  0.94109  1.0000
  H   H2303     1.0  0.98215  0.62701  0.91318  1.0000
  C   C1344     1.0  0.64582  0.62861  0.98918  1.0000
  H   H2304     1.0  0.74325  0.98919  0.75687  1.0000
