data_image0
_chemical_formula_structural       FeHSC2FeS2FeS2FeSFeS3FeS2FeS2FeSFeS4HCHS2Fe2CHFeSHFeS2H2C4HC5H3NC7H4C2HC6H4C6H4C2H2C6H4C6H4CH2NC8H20NC5H6C2H5C2H6CH11CHC2H2CH2CH4S2C2HC2H2C2H3C2H4CHC2H3CH2NH5CHCH2C3H2SCHCHNH5CHCHCH2SCH6CHCH3CH2C2H2CSH3CHCHFeHCH2C2H3CNFeH7CNH2CHCH8CHSCH2NHCHCNH4CH6CH4FeSH2CSFeH2CHS2CSH4CHSH2CH2CH2CHCH6CH2CHC2H2CHSFeS2FeS2FeSFeS3FeS2FeS2FeSFeS3FeCS2HFeS2FeHCFeS2H4CH2SHC2H4NHCHC6H4C6H5C2H3C7H4C6H5C2SH2C6H5CHCHCHFeCHC2H3SC2H10FeHNC8H20NC8H18CH9SCH2SHFeH6CH3C2H3C2HSC2H4CH2FeH2C2FeCHCSCH10NCHC2N2H3C3HCH2CH5CHC3HCH3NCHCHCH2CH2CH6CH4CHCHC2HCH5CH3CHCNCH2CHCH2SFeH4CH2C2HC5H7CH2C2SH7CSCHFeS2H2FeSFeCH2FeHS2HFeCSFeS2FeS2FeHFeCS2HCH4CHC2H4NC6H5C2HC7H4C2S2HSCHCHSH2CSH2C2SH2CNC3FeH5SC2H2C2HFeH4CH3FeSH2CHSHCH8C2HNH2C2H2C2HNC8H11CHCH5CH5C2H3CSH3C4HSH6CHFeHCFeS3FeSHSCH5C2FeSHFeS2FeS2FeHFeCS2CFeHSH2CHCH2NC2H5C6H4CHCNH5CHC2H2CH2CH2C7H7CH2SH2CH4SC2NH2C2FeHCH9FeHCH2CH3CHSC3HNC4HC3H7C2H2C2H5C2H5SHC2H2C5NHNCSCH2CH2CSH2SHC2H9CH3CH5C3H3C2H2CHSH2C2SHCH8CHS2CHFeCSH2CH3C6H2CHS2H2SHSNH3C2H5C2FeHCHCH3CHSH2CHCH4CH7C2H2C2H4CH2FeC2H2C5HSHCH2CH2SHNFeS2NH2S2H2CFeC6H5SCH3CHSH2CH5FeC2HCHCHC2H3CH2FeCHCH3SH3SH3SFeH4CHC6H6CHSHFeHCHCHCNH3CH2CHC2FeHNCH4CHCH2C2H4SHCHCHC2HCH5C2NCH2CHCHCHCH2CSH2FeHSH5CNCH2C2H2C6H4CH9SCH4C3HCHSHCFeH2C2H2S3H2CH2C2H2CSCFeSH2CHFeSCFeSFeSFeSCSFeCHFeHSFeS2FeS2FeHFeS3FeNSC6H6C2H5SH2C2H5CHC6H5SC2HC4H4C3H2C2HCH2CSC2H3CH2SH5CSH14C2H5CH3CH6C2HC4NHCH3CH6CH2CH2CH2CH4NCFeHNH2CHC2SCH5CH2C2HCHC3NC7H6CH2NCNC2H2SH2SC2HC3SH3CSFeH2CH2CH4FeS2FeS2FeCFeS2HSCHCFeSFeHSFeS2FeHFeS3FeSHFeSH3SHCH2C6H5CH2NCHCH3C3H4CH3C4FeH3NHC6H4C2HCH5SHCH4NC4HC3HCH5CSH3SCHCH3FeNC8H21CH7C3H4CH4C2SHCH3NC8H8SCSCHCH4CSHC2H2CH2C2H2SHCH2S2FeS2FeS2FeSFeS3FeS2FeS2FeSFeS3HFeSHFeS2FeS2CFeHSH2CH2CHNH2CH4C6H4CH3C6H4C6H4C6H4C6H5NC8H21CHCHCH2CH12SH2C2HCHNC4H7FeH3NCSC3HCH2CH7CHC3H3CFeHCH6NHCH2C3H3C2H5CHC2H2CHSH3CH2CHCH3CHFeC2HNCH3CH2CH3CH2S2H2CH4C2H5CNHCHCHCHCH4CH3CH2CHC3HCH2SCH2CH5C2H2CSCHCH3CH7CH3NH5NC3H2C2SH3SHSH2FeS2FeS2FeSFeS3FeS2FeS2FeSFeS3FeSCFeS2CFeS2HFeHSH4CH2CH2CHCH3CHCHNHC6H4C2H3C6H4C6H6C2H2C6H6NC6H4NC3HC2H11CHCNC8H11CH8C2H2CHCNCH4CH2CH3CSH4CHCHC2H4C2HCNCH10FeCH2NC6H19NC4HC3H14CH2CNH7CHCSC2HCH3FeH2C2H3CH2C3H3CHCHSHCHSHCH2C2HFeH2CH6CH2CSH3CHFeS2H3SHC
_chemical_formula_sum              "Fe128 H1536 S256 C896 N64"
_cell_length_a       62.0816
_cell_length_b       62.046
_cell_length_c       40.1507
_cell_angle_alpha    89.0652
_cell_angle_beta     89.3072
_cell_angle_gamma    89.9008

_space_group_name_H-M_alt    "P 1"
_space_group_IT_number       1

loop_
  _space_group_symop_operation_xyz
  'x, y, z'

loop_
  _atom_site_type_symbol
  _atom_site_label
  _atom_site_symmetry_multiplicity
  _atom_site_fract_x
  _atom_site_fract_y
  _atom_site_fract_z
  _atom_site_occupancy
  Fe  Fe1       1.0  0.37421  0.28699  0.35390  1.0000
  H   H1        1.0  0.28222  0.06349  0.25143  1.0000
  S   S1        1.0  0.38674  0.25327  0.36228  1.0000
  C   C1        1.0  0.07898  0.24112  0.28231  1.0000
  C   C2        1.0  0.47523  0.23442  0.01603  1.0000
  Fe  Fe2       1.0  0.29544  0.10972  0.36606  1.0000
  S   S2        1.0  0.32538  0.08918  0.36240  1.0000
  S   S3        1.0  0.26227  0.09769  0.37949  1.0000
  Fe  Fe3       1.0  0.31857  0.15099  0.34708  1.0000
  S   S4        1.0  0.35027  0.13411  0.34148  1.0000
  S   S5        1.0  0.31156  0.18650  0.34062  1.0000
  Fe  Fe4       1.0  0.33194  0.10819  0.31489  1.0000
  S   S6        1.0  0.34490  0.09832  0.26365  1.0000
  Fe  Fe5       1.0  0.34097  0.11674  0.38922  1.0000
  S   S7        1.0  0.36637  0.11515  0.42955  1.0000
  S   S8        1.0  0.30087  0.12673  0.31704  1.0000
  S   S9        1.0  0.31053  0.13549  0.39643  1.0000
  Fe  Fe6       1.0  0.15943  0.16244  0.34894  1.0000
  S   S10       1.0  0.14393  0.13018  0.34299  1.0000
  S   S11       1.0  0.19464  0.17120  0.34661  1.0000
  Fe  Fe7       1.0  0.11654  0.18489  0.35991  1.0000
  S   S12       1.0  0.09731  0.15432  0.35613  1.0000
  S   S13       1.0  0.10317  0.21844  0.36489  1.0000
  Fe  Fe8       1.0  0.12396  0.13995  0.38778  1.0000
  S   S14       1.0  0.12207  0.11653  0.43197  1.0000
  Fe  Fe9       1.0  0.11880  0.14731  0.31177  1.0000
  S   S15       1.0  0.11127  0.14061  0.25699  1.0000
  S   S16       1.0  0.14097  0.17127  0.39495  1.0000
  S   S17       1.0  0.13643  0.17879  0.31444  1.0000
  S   S18       1.0  0.17958  0.28476  0.34377  1.0000
  H   H2        1.0  0.04809  0.21380  0.19879  1.0000
  C   C3        1.0  0.40115  0.08380  0.26486  1.0000
  H   H3        1.0  0.10629  0.19670  0.46520  1.0000
  S   S19       1.0  0.33016  0.02433  0.08700  1.0000
  S   S20       1.0  0.34578  0.01107  0.18108  1.0000
  Fe  Fe10      1.0  0.35817  0.01806  0.05267  1.0000
  Fe  Fe11      1.0  0.37536  0.32458  0.30404  1.0000
  C   C4        1.0  0.37507  0.12437  0.49496  1.0000
  H   H4        1.0  0.16438  0.29671  0.49632  1.0000
  Fe  Fe12      1.0  0.03403  0.12100  0.04769  1.0000
  S   S21       1.0  0.01589  0.10027  0.08487  1.0000
  H   H5        1.0  0.32595  0.10966  0.46658  1.0000
  Fe  Fe13      1.0  0.01868  0.12915  0.11832  1.0000
  S   S22       1.0  0.02546  0.12514  0.17410  1.0000
  S   S23       1.0  0.03861  0.14880  0.08230  1.0000
  H   H6        1.0  0.22162  0.12268  0.43774  1.0000
  H   H7        1.0  0.47311  0.26621  0.03749  1.0000
  C   C5        1.0  0.28481  0.01473  0.18926  1.0000
  C   C6        1.0  0.06112  0.06734  0.03009  1.0000
  C   C7        1.0  0.10374  0.21439  0.46672  1.0000
  C   C8        1.0  0.43402  0.07638  0.00486  1.0000
  H   H8        1.0  0.04538  0.07023  0.04100  1.0000
  C   C9        1.0  0.08984  0.04229  0.01471  1.0000
  C   C10       1.0  0.27701  0.04972  0.23610  1.0000
  C   C11       1.0  0.25706  0.31782  0.33421  1.0000
  C   C12       1.0  0.42963  0.06213  0.03168  1.0000
  C   C13       1.0  0.40944  0.05195  0.03493  1.0000
  H   H9        1.0  0.30296  0.05508  0.20111  1.0000
  H   H10       1.0  0.44186  0.05904  0.05011  1.0000
  H   H11       1.0  0.40615  0.04113  0.05576  1.0000
  N   N1        1.0  0.19551  0.11868  0.47354  1.0000
  C   C14       1.0  0.18849  0.08170  0.44661  1.0000
  C   C15       1.0  0.15792  0.26675  0.34862  1.0000
  C   C16       1.0  0.13654  0.27394  0.34964  1.0000
  C   C17       1.0  0.11964  0.25907  0.35411  1.0000
  C   C18       1.0  0.12413  0.23702  0.35776  1.0000
  C   C19       1.0  0.14551  0.22991  0.35674  1.0000
  C   C20       1.0  0.16233  0.24472  0.35210  1.0000
  H   H12       1.0  0.13299  0.29090  0.34683  1.0000
  H   H13       1.0  0.10313  0.26468  0.35487  1.0000
  H   H14       1.0  0.14923  0.21301  0.35986  1.0000
  H   H15       1.0  0.17878  0.23905  0.35149  1.0000
  C   C21       1.0  0.21911  0.11778  0.46427  1.0000
  C   C22       1.0  0.31053  0.30925  0.45435  1.0000
  H   H16       1.0  0.12035  0.15885  0.46257  1.0000
  C   C23       1.0  0.04916  0.13064  0.19697  1.0000
  C   C24       1.0  0.04944  0.12579  0.23135  1.0000
  C   C25       1.0  0.06808  0.12922  0.25037  1.0000
  C   C26       1.0  0.08680  0.13732  0.23507  1.0000
  C   C27       1.0  0.08643  0.14245  0.20078  1.0000
  C   C28       1.0  0.06770  0.13938  0.18190  1.0000
  H   H17       1.0  0.03517  0.11912  0.24333  1.0000
  H   H18       1.0  0.06810  0.12512  0.27667  1.0000
  H   H19       1.0  0.10076  0.14893  0.18875  1.0000
  H   H20       1.0  0.06763  0.14369  0.15570  1.0000
  C   C29       1.0  0.24328  0.11790  0.37021  1.0000
  C   C30       1.0  0.22125  0.11304  0.36966  1.0000
  C   C31       1.0  0.20613  0.12926  0.36223  1.0000
  C   C32       1.0  0.21303  0.15035  0.35538  1.0000
  C   C33       1.0  0.23503  0.15514  0.35603  1.0000
  C   C34       1.0  0.25011  0.13900  0.36348  1.0000
  H   H21       1.0  0.21591  0.09670  0.37464  1.0000
  H   H22       1.0  0.18919  0.12541  0.36157  1.0000
  H   H23       1.0  0.24052  0.17131  0.35048  1.0000
  H   H24       1.0  0.26703  0.14296  0.36395  1.0000
  C   C35       1.0  0.35921  0.11843  0.47212  1.0000
  C   C36       1.0  0.28513  0.05348  0.19995  1.0000
  H   H25       1.0  0.16565  0.10755  0.45248  1.0000
  H   H26       1.0  0.32851  0.23100  0.47773  1.0000
  C   C37       1.0  0.34325  0.07410  0.24066  1.0000
  C   C38       1.0  0.34966  0.07448  0.20690  1.0000
  C   C39       1.0  0.35011  0.05547  0.18809  1.0000
  C   C40       1.0  0.34463  0.03570  0.20308  1.0000
  C   C41       1.0  0.33812  0.03532  0.23683  1.0000
  C   C42       1.0  0.33712  0.05443  0.25541  1.0000
  H   H27       1.0  0.35451  0.08958  0.19524  1.0000
  H   H28       1.0  0.35518  0.05604  0.16220  1.0000
  H   H29       1.0  0.33378  0.02012  0.24866  1.0000
  H   H30       1.0  0.33206  0.05385  0.28128  1.0000
  C   C43       1.0  0.36607  0.23458  0.35577  1.0000
  C   C44       1.0  0.34485  0.24165  0.35170  1.0000
  C   C45       1.0  0.32834  0.22674  0.34669  1.0000
  C   C46       1.0  0.33291  0.20466  0.34563  1.0000
  C   C47       1.0  0.35418  0.19756  0.34921  1.0000
  C   C48       1.0  0.37073  0.21251  0.35446  1.0000
  H   H31       1.0  0.34104  0.25862  0.35271  1.0000
  H   H32       1.0  0.31196  0.23239  0.34385  1.0000
  H   H33       1.0  0.35786  0.18057  0.34809  1.0000
  H   H34       1.0  0.38716  0.20700  0.35736  1.0000
  C   C49       1.0  0.05031  0.19627  0.20327  1.0000
  H   H35       1.0  0.28414  0.03503  0.24765  1.0000
  H   H36       1.0  0.06242  0.18974  0.18551  1.0000
  N   N2        1.0  0.24324  0.23442  0.34130  1.0000
  C   C50       1.0  0.25390  0.25315  0.35804  1.0000
  C   C51       1.0  0.26070  0.22030  0.32675  1.0000
  C   C52       1.0  0.22998  0.22119  0.36569  1.0000
  C   C53       1.0  0.22845  0.24309  0.31476  1.0000
  C   C54       1.0  0.23894  0.26787  0.37868  1.0000
  C   C55       1.0  0.27258  0.22956  0.29576  1.0000
  C   C56       1.0  0.24220  0.21204  0.39603  1.0000
  C   C57       1.0  0.21659  0.22605  0.29412  1.0000
  H   H37       1.0  0.26704  0.24752  0.37470  1.0000
  H   H38       1.0  0.26206  0.26380  0.33925  1.0000
  H   H39       1.0  0.25447  0.20411  0.32030  1.0000
  H   H40       1.0  0.27334  0.21680  0.34553  1.0000
  H   H41       1.0  0.21581  0.23046  0.37493  1.0000
  H   H42       1.0  0.22285  0.20711  0.35310  1.0000
  H   H43       1.0  0.21545  0.25305  0.32604  1.0000
  H   H44       1.0  0.23683  0.25467  0.29755  1.0000
  H   H45       1.0  0.22655  0.27592  0.36318  1.0000
  H   H46       1.0  0.23107  0.25919  0.39985  1.0000
  H   H47       1.0  0.24878  0.28094  0.38941  1.0000
  H   H48       1.0  0.26184  0.23070  0.27393  1.0000
  H   H49       1.0  0.27992  0.24548  0.30046  1.0000
  H   H50       1.0  0.28594  0.21843  0.28901  1.0000
  H   H51       1.0  0.25521  0.20079  0.38846  1.0000
  H   H52       1.0  0.23073  0.20257  0.41188  1.0000
  H   H53       1.0  0.24890  0.22492  0.41162  1.0000
  H   H54       1.0  0.20088  0.22170  0.30599  1.0000
  H   H55       1.0  0.22588  0.21101  0.29063  1.0000
  H   H56       1.0  0.21363  0.23263  0.26869  1.0000
  N   N3        1.0  0.07440  0.20373  0.25433  1.0000
  C   C58       1.0  0.05624  0.19086  0.23969  1.0000
  C   C59       1.0  0.07912  0.19374  0.28798  1.0000
  C   C60       1.0  0.09391  0.20120  0.23194  1.0000
  C   C61       1.0  0.06001  0.19326  0.31295  1.0000
  C   C62       1.0  0.11432  0.21357  0.24158  1.0000
  H   H57       1.0  0.05988  0.17332  0.24092  1.0000
  H   H58       1.0  0.04111  0.19288  0.25449  1.0000
  H   H59       1.0  0.09262  0.20177  0.30039  1.0000
  H   H60       1.0  0.08475  0.17678  0.28518  1.0000
  H   H61       1.0  0.09837  0.18385  0.23007  1.0000
  H   H62       1.0  0.09050  0.20685  0.20615  1.0000
  C   C63       1.0  0.46882  0.26947  0.11801  1.0000
  C   C64       1.0  0.35111  0.21269  0.44494  1.0000
  H   H63       1.0  0.24050  0.00840  0.15181  1.0000
  H   H64       1.0  0.11215  0.23121  0.23812  1.0000
  H   H65       1.0  0.12775  0.20877  0.22471  1.0000
  H   H66       1.0  0.11964  0.20981  0.26718  1.0000
  H   H67       1.0  0.06046  0.03305  0.04023  1.0000
  C   C65       1.0  0.36891  0.22417  0.25645  1.0000
  C   C66       1.0  0.14473  0.25969  0.44482  1.0000
  H   H68       1.0  0.37625  0.15948  0.40449  1.0000
  H   H69       1.0  0.09532  0.23588  0.28941  1.0000
  H   H70       1.0  0.46323  0.32063  0.23251  1.0000
  H   H71       1.0  0.25165  0.30161  0.32968  1.0000
  H   H72       1.0  0.37661  0.28907  0.24205  1.0000
  H   H73       1.0  0.20641  0.15512  0.43075  1.0000
  C   C67       1.0  0.06757  0.22707  0.25624  1.0000
  H   H74       1.0  0.43293  0.01111  0.03165  1.0000
  H   H75       1.0  0.06955  0.23520  0.23145  1.0000
  H   H76       1.0  0.05005  0.22810  0.26245  1.0000
  H   H77       1.0  0.03485  0.18821  0.19743  1.0000
  H   H78       1.0  0.08067  0.25780  0.27213  1.0000
  H   H79       1.0  0.38348  0.16486  0.44634  1.0000
  H   H80       1.0  0.45805  0.27548  0.13811  1.0000
  H   H81       1.0  0.10576  0.12014  0.11157  1.0000
  H   H82       1.0  0.00165  0.27411  0.01591  1.0000
  H   H83       1.0  0.13025  0.09300  0.49293  1.0000
  H   H84       1.0  0.39897  0.24127  0.19275  1.0000
  C   C68       1.0  0.06963  0.04630  0.02948  1.0000
  H   H85       1.0  0.12566  0.04465  0.09615  1.0000
  C   C69       1.0  0.18940  0.15389  0.43921  1.0000
  C   C70       1.0  0.32080  0.18903  0.46555  1.0000
  H   H86       1.0  0.18629  0.11239  0.42247  1.0000
  H   H87       1.0  0.11878  0.04923  0.13888  1.0000
  C   C71       1.0  0.18330  0.10602  0.44809  1.0000
  H   H88       1.0  0.22532  0.10098  0.46614  1.0000
  H   H89       1.0  0.41697  0.07578  0.26129  1.0000
  C   C72       1.0  0.49339  0.27177  0.18021  1.0000
  H   H90       1.0  0.24604  0.03376  0.19272  1.0000
  H   H91       1.0  0.26967  0.31480  0.44462  1.0000
  H   H92       1.0  0.40106  0.09814  0.24791  1.0000
  H   H93       1.0  0.46158  0.27485  0.09413  1.0000
  S   S24       1.0  0.10039  0.01590  0.01541  1.0000
  S   S25       1.0  0.46785  0.32123  0.06651  1.0000
  C   C73       1.0  0.42948  0.32716  0.24146  1.0000
  C   C74       1.0  0.11522  0.09519  0.16339  1.0000
  H   H94       1.0  0.36167  0.05284  0.37075  1.0000
  C   C75       1.0  0.12435  0.22614  0.45469  1.0000
  C   C76       1.0  0.48351  0.25460  0.02558  1.0000
  H   H95       1.0  0.27552  0.32837  0.40634  1.0000
  H   H96       1.0  0.17723  0.07411  0.42898  1.0000
  C   C77       1.0  0.11211  0.04847  0.11345  1.0000
  C   C78       1.0  0.34430  0.23260  0.46502  1.0000
  H   H97       1.0  0.11524  0.08127  0.09691  1.0000
  H   H98       1.0  0.29350  0.07677  0.14192  1.0000
  H   H99       1.0  0.30747  0.18283  0.41574  1.0000
  C   C79       1.0  0.23717  0.99694  0.04535  1.0000
  C   C80       1.0  0.33828  0.11438  0.48381  1.0000
  H   H100      1.0  0.37681  0.09470  0.36088  1.0000
  H   H101      1.0  0.35496  0.03491  0.33828  1.0000
  H   H102      1.0  0.14345  0.25806  0.41736  1.0000
  H   H103      1.0  0.35782  0.25700  0.25327  1.0000
  C   C81       1.0  0.39997  0.25784  0.27446  1.0000
  H   H104      1.0  0.09531  0.06741  0.17448  1.0000
  C   C82       1.0  0.37461  0.06199  0.32117  1.0000
  C   C83       1.0  0.15206  0.32476  0.47040  1.0000
  H   H105      1.0  0.30341  0.29896  0.43496  1.0000
  H   H106      1.0  0.29736  0.06400  0.10293  1.0000
  H   H107      1.0  0.39131  0.12752  0.48617  1.0000
  C   C84       1.0  0.36814  0.04505  0.34801  1.0000
  H   H108      1.0  0.39075  0.07348  0.38140  1.0000
  H   H109      1.0  0.36087  0.07342  0.31882  1.0000
  N   N4        1.0  0.08523  0.07933  0.12574  1.0000
  H   H110      1.0  0.36418  0.27607  0.18676  1.0000
  H   H111      1.0  0.07250  0.04773  0.13950  1.0000
  H   H112      1.0  0.12592  0.22349  0.42741  1.0000
  H   H113      1.0  0.27074  0.06550  0.11992  1.0000
  H   H114      1.0  0.37973  0.30007  0.18324  1.0000
  C   C85       1.0  0.29188  0.04118  0.14366  1.0000
  H   H115      1.0  0.09456  0.06738  0.07746  1.0000
  C   C86       1.0  0.39217  0.08538  0.36044  1.0000
  H   H116      1.0  0.40923  0.11644  0.35596  1.0000
  H   H117      1.0  0.38164  0.03422  0.35479  1.0000
  C   C87       1.0  0.30606  0.19472  0.43595  1.0000
  C   C88       1.0  0.09244  0.11596  0.09496  1.0000
  C   C89       1.0  0.41026  0.10102  0.37027  1.0000
  H   H118      1.0  0.42653  0.09388  0.36747  1.0000
  H   H119      1.0  0.27252  0.00919  0.20791  1.0000
  S   S26       1.0  0.35716  0.29333  0.30603  1.0000
  C   C90       1.0  0.38062  0.28261  0.18987  1.0000
  H   H120      1.0  0.39202  0.27521  0.17193  1.0000
  C   C91       1.0  0.18689  0.14145  0.47263  1.0000
  H   H121      1.0  0.08186  0.09215  0.17538  1.0000
  N   N5        1.0  0.39513  0.07417  0.32752  1.0000
  H   H122      1.0  0.37501  0.05360  0.29709  1.0000
  H   H123      1.0  0.38416  0.10279  0.30124  1.0000
  H   H124      1.0  0.17949  0.14686  0.41937  1.0000
  H   H125      1.0  0.12348  0.08952  0.18634  1.0000
  H   H126      1.0  0.38214  0.18646  0.41532  1.0000
  C   C92       1.0  0.07622  0.09997  0.11097  1.0000
  H   H127      1.0  0.34241  0.17813  0.40875  1.0000
  C   C93       1.0  0.16687  0.25068  0.45474  1.0000
  H   H128      1.0  0.08390  0.13120  0.08865  1.0000
  C   C94       1.0  0.04754  0.07014  0.15054  1.0000
  H   H129      1.0  0.30297  0.99877  0.14925  1.0000
  H   H130      1.0  0.44042  0.24954  0.23041  1.0000
  S   S27       1.0  0.34797  0.30089  0.38571  1.0000
  C   C95       1.0  0.39809  0.09142  0.30092  1.0000
  H   H131      1.0  0.41571  0.05231  0.35501  1.0000
  H   H132      1.0  0.40816  0.10519  0.39693  1.0000
  H   H133      1.0  0.30232  0.30600  0.47857  1.0000
  H   H134      1.0  0.06455  0.09636  0.09093  1.0000
  H   H135      1.0  0.35195  0.21844  0.25655  1.0000
  H   H136      1.0  0.28917  0.02893  0.12439  1.0000
  C   C96       1.0  0.41467  0.05969  0.32958  1.0000
  H   H137      1.0  0.41256  0.10136  0.30573  1.0000
  C   C97       1.0  0.12362  0.14696  0.48181  1.0000
  H   H138      1.0  0.08830  0.29060  0.43962  1.0000
  H   H139      1.0  0.42968  0.06931  0.32602  1.0000
  H   H140      1.0  0.11596  0.29234  0.42788  1.0000
  C   C98       1.0  0.09376  0.08290  0.16027  1.0000
  H   H141      1.0  0.40325  0.29011  0.22728  1.0000
  H   H142      1.0  0.37322  0.31597  0.45807  1.0000
  C   C99       1.0  0.41584  0.04062  0.30516  1.0000
  C   C100      1.0  0.39355  0.05590  0.01123  1.0000
  H   H143      1.0  0.20500  0.07877  0.43677  1.0000
  H   H144      1.0  0.25580  0.02260  0.11985  1.0000
  C   C101      1.0  0.37450  0.17140  0.42470  1.0000
  S   S28       1.0  0.06310  0.11118  0.01656  1.0000
  H   H145      1.0  0.10062  0.03486  0.11177  1.0000
  H   H146      1.0  0.36892  0.21391  0.44239  1.0000
  H   H147      1.0  0.40933  0.22855  0.22815  1.0000
  C   C102      1.0  0.06694  0.06333  0.12863  1.0000
  H   H148      1.0  0.18343  0.17062  0.44243  1.0000
  C   C103      1.0  0.38839  0.28037  0.22608  1.0000
  H   H149      1.0  0.09056  0.25469  0.45944  1.0000
  Fe  Fe14      1.0  0.17165  0.32020  0.34614  1.0000
  H   H150      1.0  0.42987  0.27700  0.26642  1.0000
  C   C104      1.0  0.12512  0.12519  0.47359  1.0000
  H   H151      1.0  0.09897  0.10979  0.07105  1.0000
  H   H152      1.0  0.04013  0.08539  0.14179  1.0000
  C   C105      1.0  0.28787  0.06323  0.12658  1.0000
  C   C106      1.0  0.25500  0.03839  0.16956  1.0000
  H   H153      1.0  0.40750  0.29167  0.28458  1.0000
  H   H154      1.0  0.38639  0.25947  0.29252  1.0000
  H   H155      1.0  0.43544  0.24795  0.18625  1.0000
  C   C107      1.0  0.00192  0.21883  0.02394  1.0000
  N   N6        1.0  0.12521  0.24992  0.46194  1.0000
  Fe  Fe15      1.0  0.33248  0.30985  0.33740  1.0000
  H   H156      1.0  0.43288  0.03820  0.29726  1.0000
  H   H157      1.0  0.42205  0.27256  0.30899  1.0000
  H   H158      1.0  0.28901  0.19424  0.44462  1.0000
  H   H159      1.0  0.12694  0.09237  0.14306  1.0000
  H   H160      1.0  0.06061  0.05953  0.10350  1.0000
  H   H161      1.0  0.05191  0.07160  0.17711  1.0000
  H   H162      1.0  0.06683  0.10898  0.12995  1.0000
  C   C108      1.0  0.36988  0.24683  0.23988  1.0000
  N   N7        1.0  0.34470  0.19082  0.45873  1.0000
  H   H163      1.0  0.42939  0.27196  0.20680  1.0000
  H   H164      1.0  0.48953  0.29676  0.12464  1.0000
  C   C109      1.0  0.41585  0.27584  0.28354  1.0000
  H   H165      1.0  0.05127  0.20880  0.31388  1.0000
  C   C110      1.0  0.42917  0.25425  0.21024  1.0000
  H   H166      1.0  0.47836  0.26203  0.18038  1.0000
  H   H167      1.0  0.37855  0.21218  0.24252  1.0000
  H   H168      1.0  0.16060  0.32139  0.44747  1.0000
  H   H169      1.0  0.27913  0.06972  0.19230  1.0000
  H   H170      1.0  0.25095  0.12986  0.47485  1.0000
  H   H171      1.0  0.10805  0.29179  0.47159  1.0000
  H   H172      1.0  0.41102  0.02533  0.31794  1.0000
  H   H173      1.0  0.25920  0.04902  0.23788  1.0000
  C   C111      1.0  0.07298  0.08453  0.01641  1.0000
  H   H174      1.0  0.03485  0.05759  0.14936  1.0000
  S   S29       1.0  0.36835  0.04273  0.01319  1.0000
  C   C112      1.0  0.40652  0.24485  0.21707  1.0000
  H   H175      1.0  0.10384  0.25524  0.42013  1.0000
  H   H176      1.0  0.11236  0.11274  0.16574  1.0000
  N   N8        1.0  0.27894  0.03664  0.17500  1.0000
  H   H177      1.0  0.46901  0.25162  0.11839  1.0000
  C   C113      1.0  0.10181  0.06998  0.10226  1.0000
  H   H178      1.0  0.32767  0.30434  0.45690  1.0000
  C   C114      1.0  0.23433  0.13146  0.48515  1.0000
  N   N9        1.0  0.39168  0.25767  0.23916  1.0000
  H   H179      1.0  0.34555  0.21511  0.41888  1.0000
  H   H180      1.0  0.38796  0.07332  0.25645  1.0000
  H   H181      1.0  0.24993  0.05541  0.16507  1.0000
  H   H182      1.0  0.40653  0.04261  0.28205  1.0000
  C   C115      1.0  0.10555  0.26025  0.44649  1.0000
  H   H183      1.0  0.34401  0.15810  0.44053  1.0000
  H   H184      1.0  0.30911  0.21115  0.42572  1.0000
  H   H185      1.0  0.36359  0.24490  0.21429  1.0000
  H   H186      1.0  0.45846  0.23067  0.02090  1.0000
  H   H187      1.0  0.40771  0.24218  0.28121  1.0000
  H   H188      1.0  0.30026  0.01563  0.20303  1.0000
  C   C116      1.0  0.10470  0.28516  0.44669  1.0000
  H   H189      1.0  0.18625  0.07330  0.47098  1.0000
  H   H190      1.0  0.34244  0.24657  0.44758  1.0000
  H   H191      1.0  0.39911  0.00687  0.01275  1.0000
  H   H192      1.0  0.06613  0.18985  0.33838  1.0000
  Fe  Fe16      1.0  0.34832  0.00491  0.12495  1.0000
  S   S30       1.0  0.37794  0.00122  0.09192  1.0000
  H   H193      1.0  0.30943  0.04005  0.14909  1.0000
  H   H194      1.0  0.37391  0.22422  0.28286  1.0000
  C   C117      1.0  0.27911  0.32237  0.33492  1.0000
  S   S31       1.0  0.29760  0.30118  0.33054  1.0000
  Fe  Fe17      1.0  0.00738  0.16172  0.06179  1.0000
  H   H195      1.0  0.16941  0.14143  0.47929  1.0000
  H   H196      1.0  0.06888  0.24263  0.30519  1.0000
  C   C118      1.0  0.35028  0.17427  0.43281  1.0000
  H   H197      1.0  0.04860  0.18012  0.30713  1.0000
  S   S32       1.0  0.45993  0.08795  0.00117  1.0000
  S   S33       1.0  0.39415  0.31732  0.35077  1.0000
  C   C119      1.0  0.49160  0.27918  0.12071  1.0000
  S   S34       1.0  0.00268  0.19856  0.05633  1.0000
  H   H198      1.0  0.23065  0.03271  0.13211  1.0000
  H   H199      1.0  0.14569  0.27728  0.44934  1.0000
  H   H200      1.0  0.20387  0.99831  0.02949  1.0000
  H   H201      1.0  0.17932  0.25844  0.43846  1.0000
  C   C120      1.0  0.24525  0.02455  0.14194  1.0000
  H   H202      1.0  0.31671  0.17232  0.47418  1.0000
  S   S35       1.0  0.00423  0.13515  0.02461  1.0000
  H   H203      1.0  0.08995  0.21831  0.45030  1.0000
  H   H204      1.0  0.44397  0.31195  0.00522  1.0000
  C   C121      1.0  0.00088  0.25744  0.00855  1.0000
  H   H205      1.0  0.13807  0.21715  0.46544  1.0000
  H   H206      1.0  0.23021  0.14883  0.48400  1.0000
  C   C122      1.0  0.00315  0.24071  0.03267  1.0000
  H   H207      1.0  0.23369  0.00397  0.06928  1.0000
  H   H208      1.0  0.43005  0.32280  0.26761  1.0000
  C   C123      1.0  0.48835  0.21905  0.99999  1.0000
  H   H209      1.0  0.19462  0.15160  0.49155  1.0000
  C   C124      1.0  0.28814  0.99623  0.16447  1.0000
  H   H210      1.0  0.00569  0.24480  0.05841  1.0000
  H   H211      1.0  0.31549  0.19940  0.48629  1.0000
  H   H212      1.0  0.42331  0.29214  0.01028  1.0000
  H   H213      1.0  0.48812  0.28879  0.18369  1.0000
  H   H214      1.0  0.16831  0.23310  0.45088  1.0000
  H   H215      1.0  0.09947  0.21808  0.49289  1.0000
  C   C125      1.0  0.44831  0.32602  0.22146  1.0000
  H   H216      1.0  0.17083  0.25495  0.48066  1.0000
  H   H217      1.0  0.35678  0.23674  0.48346  1.0000
  C   C126      1.0  0.09330  0.08055  0.00209  1.0000
  H   H218      1.0  0.37423  0.19062  0.48722  1.0000
  C   C127      1.0  0.35719  0.18518  0.48980  1.0000
  C   C128      1.0  0.36881  0.32830  0.47563  1.0000
  H   H219      1.0  0.35796  0.16734  0.49351  1.0000
  H   H220      1.0  0.23665  0.32836  0.42392  1.0000
  C   C129      1.0  0.10168  0.05949  0.00105  1.0000
  H   H221      1.0  0.49392  0.26410  0.23326  1.0000
  S   S36       1.0  0.30196  0.28483  0.67808  1.0000
  Fe  Fe18      1.0  0.36404  0.18353  0.65169  1.0000
  S   S37       1.0  0.38405  0.15397  0.64118  1.0000
  S   S38       1.0  0.37188  0.21682  0.63238  1.0000
  Fe  Fe19      1.0  0.32855  0.15896  0.68645  1.0000
  S   S39       1.0  0.34524  0.12748  0.67906  1.0000
  S   S40       1.0  0.29601  0.16229  0.71131  1.0000
  Fe  Fe20      1.0  0.37561  0.14441  0.69449  1.0000
  S   S41       1.0  0.39645  0.12400  0.72995  1.0000
  Fe  Fe21      1.0  0.35236  0.13944  0.62676  1.0000
  S   S42       1.0  0.34389  0.11710  0.58437  1.0000
  S   S43       1.0  0.35809  0.17528  0.70579  1.0000
  S   S44       1.0  0.33319  0.16970  0.63345  1.0000
  Fe  Fe22      1.0  0.18889  0.11798  0.65685  1.0000
  S   S45       1.0  0.16165  0.09882  0.63620  1.0000
  S   S46       1.0  0.22268  0.10988  0.64038  1.0000
  Fe  Fe23      1.0  0.15890  0.14641  0.69707  1.0000
  S   S47       1.0  0.12930  0.12955  0.67954  1.0000
  S   S48       1.0  0.15793  0.17096  0.73759  1.0000
  Fe  Fe24      1.0  0.14835  0.09907  0.68908  1.0000
  S   S49       1.0  0.13651  0.06824  0.71567  1.0000
  Fe  Fe25      1.0  0.14552  0.13101  0.62865  1.0000
  S   S50       1.0  0.13096  0.14691  0.58235  1.0000
  S   S51       1.0  0.17689  0.11602  0.70959  1.0000
  S   S52       1.0  0.17387  0.15009  0.64634  1.0000
  Fe  Fe26      1.0  0.16260  0.29065  0.68259  1.0000
  C   C130      1.0  0.18856  0.04378  0.65780  1.0000
  S   S53       1.0  0.18456  0.26778  0.70987  1.0000
  S   S54       1.0  0.48651  0.10598  0.91483  1.0000
  H   H222      1.0  0.43043  0.27962  0.95133  1.0000
  Fe  Fe27      1.0  0.47325  0.13801  0.89614  1.0000
  S   S55       1.0  0.45469  0.14451  0.94371  1.0000
  S   S56       1.0  0.46358  0.14905  0.84329  1.0000
  Fe  Fe28      1.0  0.47021  0.11407  0.96367  1.0000
  H   H223      1.0  0.47898  0.28703  0.90036  1.0000
  C   C131      1.0  0.36515  0.07604  0.63440  1.0000
  Fe  Fe29      1.0  0.14080  0.01505  0.90411  1.0000
  S   S57       1.0  0.15312  0.02077  0.95593  1.0000
  S   S58       1.0  0.14699  0.04483  0.87055  1.0000
  H   H224      1.0  0.23740  0.03955  0.76027  1.0000
  H   H225      1.0  0.26325  0.00323  0.90807  1.0000
  H   H226      1.0  0.42086  0.30128  0.67802  1.0000
  H   H227      1.0  0.06547  0.09261  0.93953  1.0000
  C   C132      1.0  0.99847  0.21394  0.99048  1.0000
  H   H228      1.0  0.42030  0.31284  0.97940  1.0000
  H   H229      1.0  0.19219  0.31465  0.56978  1.0000
  S   S59       1.0  0.17565  0.31076  0.64030  1.0000
  H   H230      1.0  0.41443  0.02593  0.96634  1.0000
  C   C133      1.0  0.12920  0.10989  0.49902  1.0000
  C   C134      1.0  0.05841  0.31865  0.76170  1.0000
  H   H231      1.0  0.37344  0.28773  0.66835  1.0000
  H   H232      1.0  0.25497  0.01932  0.87348  1.0000
  H   H233      1.0  0.42130  0.09134  0.96054  1.0000
  H   H234      1.0  0.04209  0.10125  0.91943  1.0000
  N   N10       1.0  0.46022  0.29749  0.94356  1.0000
  H   H235      1.0  0.06653  0.11645  0.91310  1.0000
  C   C135      1.0  0.44340  0.28714  0.96618  1.0000
  H   H236      1.0  0.23439  0.04657  0.86127  1.0000
  C   C136      1.0  0.13936  0.06204  0.75888  1.0000
  C   C137      1.0  0.14858  0.07654  0.78087  1.0000
  C   C138      1.0  0.15094  0.07084  0.81479  1.0000
  C   C139      1.0  0.14417  0.05059  0.82725  1.0000
  C   C140      1.0  0.13504  0.03602  0.80528  1.0000
  C   C141      1.0  0.13262  0.04176  0.77133  1.0000
  H   H237      1.0  0.15372  0.09225  0.77180  1.0000
  H   H238      1.0  0.15790  0.08233  0.83154  1.0000
  H   H239      1.0  0.12966  0.02041  0.81444  1.0000
  H   H240      1.0  0.12545  0.03040  0.75456  1.0000
  C   C142      1.0  0.16583  0.19743  0.72757  1.0000
  C   C143      1.0  0.17772  0.20867  0.75095  1.0000
  C   C144      1.0  0.18351  0.23014  0.74485  1.0000
  C   C145      1.0  0.17666  0.24088  0.71599  1.0000
  C   C146      1.0  0.16447  0.22983  0.69259  1.0000
  C   C147      1.0  0.15934  0.20793  0.69814  1.0000
  H   H241      1.0  0.18263  0.20067  0.77379  1.0000
  H   H242      1.0  0.19299  0.23860  0.76291  1.0000
  H   H243      1.0  0.15934  0.23803  0.67005  1.0000
  H   H244      1.0  0.14998  0.19930  0.68011  1.0000
  H   H245      1.0  0.12090  0.24769  0.71068  1.0000
  C   C148      1.0  0.13168  0.11626  0.53234  1.0000
  C   C149      1.0  0.12963  0.13799  0.54064  1.0000
  H   H246      1.0  0.10262  0.09383  0.99178  1.0000
  H   H247      1.0  0.13763  0.23525  0.75808  1.0000
  H   H248      1.0  0.13451  0.10432  0.55174  1.0000
  C   C150      1.0  0.05324  0.32284  0.79536  1.0000
  C   C151      1.0  0.41355  0.13198  0.76308  1.0000
  C   C152      1.0  0.41893  0.11680  0.78817  1.0000
  C   C153      1.0  0.43343  0.12198  0.81375  1.0000
  C   C154      1.0  0.44324  0.14228  0.81410  1.0000
  C   C155      1.0  0.43793  0.15740  0.78892  1.0000
  C   C156      1.0  0.42300  0.15243  0.76387  1.0000
  H   H249      1.0  0.41182  0.10091  0.78783  1.0000
  H   H250      1.0  0.43738  0.11010  0.83273  1.0000
  H   H251      1.0  0.44549  0.17309  0.78872  1.0000
  H   H252      1.0  0.41925  0.16423  0.74467  1.0000
  C   C157      1.0  0.27574  0.14749  0.69180  1.0000
  C   C158      1.0  0.28052  0.13507  0.66392  1.0000
  C   C159      1.0  0.26414  0.12352  0.64835  1.0000
  C   C160      1.0  0.24285  0.12462  0.66024  1.0000
  C   C161      1.0  0.23801  0.13718  0.68799  1.0000
  C   C162      1.0  0.25449  0.14838  0.70400  1.0000
  H   H253      1.0  0.29686  0.13431  0.65433  1.0000
  H   H254      1.0  0.26796  0.11385  0.62687  1.0000
  H   H255      1.0  0.22162  0.13817  0.69727  1.0000
  H   H256      1.0  0.25074  0.15795  0.72560  1.0000
  H   H257      1.0  0.35699  0.04123  0.63486  1.0000
  C   C163      1.0  0.09108  0.32774  0.80624  1.0000
  C   C164      1.0  0.34948  0.12062  0.54117  1.0000
  S   S60       1.0  0.47667  0.19398  0.98815  1.0000
  H   H258      1.0  0.41260  0.27609  0.78945  1.0000
  H   H259      1.0  0.37606  0.22711  0.70893  1.0000
  C   C165      1.0  0.32048  0.26565  0.66338  1.0000
  C   C166      1.0  0.33602  0.27124  0.63924  1.0000
  C   C167      1.0  0.35152  0.25606  0.62923  1.0000
  C   C168      1.0  0.35141  0.23519  0.64308  1.0000
  C   C169      1.0  0.33556  0.22946  0.66665  1.0000
  C   C170      1.0  0.32024  0.24470  0.67694  1.0000
  H   H260      1.0  0.33625  0.28734  0.62845  1.0000
  H   H261      1.0  0.36371  0.26059  0.61094  1.0000
  H   H262      1.0  0.33536  0.21343  0.67756  1.0000
  H   H263      1.0  0.30852  0.24038  0.69603  1.0000
  H   H264      1.0  0.48102  0.29398  0.98602  1.0000
  C   C171      1.0  0.13776  0.23897  0.52173  1.0000
  H   H265      1.0  0.13087  0.27115  0.50324  1.0000
  C   C172      1.0  0.06959  0.32737  0.81788  1.0000
  H   H266      1.0  0.17507  0.03314  0.66589  1.0000
  C   C173      1.0  0.23895  0.02657  0.92183  1.0000
  H   H267      1.0  0.40285  0.30959  0.64600  1.0000
  Fe  Fe30      1.0  0.31147  0.31872  0.66323  1.0000
  C   C174      1.0  0.36700  0.26885  0.72552  1.0000
  H   H268      1.0  0.34564  0.21137  0.52279  1.0000
  C   C175      1.0  0.40028  0.06744  0.71259  1.0000
  C   C176      1.0  0.99550  0.23068  0.96654  1.0000
  H   H269      1.0  0.17522  0.10043  0.50850  1.0000
  H   H270      1.0  0.44065  0.02953  0.98466  1.0000
  H   H271      1.0  0.33358  0.18522  0.53124  1.0000
  S   S61       1.0  0.08571  0.31212  0.70802  1.0000
  C   C177      1.0  0.12498  0.25455  0.49878  1.0000
  C   C178      1.0  0.23901  0.03035  0.73706  1.0000
  H   H272      1.0  0.39294  0.03942  0.65406  1.0000
  H   H273      1.0  0.17149  0.03793  0.72469  1.0000
  H   H274      1.0  0.09214  0.23500  0.68276  1.0000
  H   H275      1.0  0.37896  0.00550  0.96673  1.0000
  H   H276      1.0  0.20684  0.07087  0.67335  1.0000
  H   H277      1.0  0.18610  0.03568  0.90219  1.0000
  H   H278      1.0  0.21934  0.09355  0.70950  1.0000
  H   H279      1.0  0.23782  0.99782  0.89060  1.0000
  H   H280      1.0  0.20424  0.08228  0.88659  1.0000
  H   H281      1.0  0.36565  0.29300  0.76544  1.0000
  Fe  Fe31      1.0  0.14355  0.30583  0.61642  1.0000
  H   H282      1.0  0.35655  0.09072  0.64285  1.0000
  N   N11       1.0  0.24953  0.22071  0.67467  1.0000
  C   C179      1.0  0.26739  0.22586  0.64993  1.0000
  C   C180      1.0  0.23442  0.23979  0.67528  1.0000
  C   C181      1.0  0.23793  0.20087  0.66271  1.0000
  C   C182      1.0  0.25967  0.21650  0.70812  1.0000
  C   C183      1.0  0.28375  0.20751  0.64344  1.0000
  C   C184      1.0  0.24435  0.26156  0.68505  1.0000
  C   C185      1.0  0.21379  0.19856  0.67181  1.0000
  C   C186      1.0  0.24418  0.21319  0.73794  1.0000
  H   H283      1.0  0.26055  0.23080  0.62542  1.0000
  H   H284      1.0  0.27707  0.23982  0.65811  1.0000
  H   H285      1.0  0.22071  0.23698  0.69275  1.0000
  H   H286      1.0  0.22693  0.24222  0.65040  1.0000
  H   H287      1.0  0.23844  0.20008  0.63498  1.0000
  H   H288      1.0  0.24620  0.18596  0.67145  1.0000
  H   H289      1.0  0.26990  0.20178  0.70755  1.0000
  H   H290      1.0  0.27076  0.22986  0.71442  1.0000
  H   H291      1.0  0.27608  0.19260  0.63448  1.0000
  H   H292      1.0  0.29542  0.21295  0.62385  1.0000
  H   H293      1.0  0.29339  0.20360  0.66582  1.0000
  H   H294      1.0  0.25569  0.26789  0.66573  1.0000
  H   H295      1.0  0.23125  0.27370  0.68720  1.0000
  H   H296      1.0  0.25235  0.26074  0.70955  1.0000
  H   H297      1.0  0.20386  0.20998  0.65690  1.0000
  H   H298      1.0  0.21018  0.20097  0.69843  1.0000
  H   H299      1.0  0.20839  0.18204  0.66578  1.0000
  H   H300      1.0  0.23347  0.22724  0.74189  1.0000
  H   H301      1.0  0.25384  0.21116  0.76090  1.0000
  H   H302      1.0  0.23466  0.19824  0.73563  1.0000
  N   N12       1.0  0.08577  0.07423  0.88397  1.0000
  C   C187      1.0  0.08590  0.06009  0.85365  1.0000
  C   C188      1.0  0.08843  0.05955  0.91394  1.0000
  C   C189      1.0  0.10461  0.08960  0.88077  1.0000
  C   C190      1.0  0.06473  0.08641  0.88479  1.0000
  C   C191      1.0  0.08687  0.07190  0.81946  1.0000
  C   C192      1.0  0.06991  0.04351  0.92099  1.0000
  C   C193      1.0  0.11348  0.09908  0.91314  1.0000
  C   C194      1.0  0.05983  0.09993  0.91593  1.0000
  H   H303      1.0  0.09985  0.04874  0.85429  1.0000
  H   H304      1.0  0.07131  0.04971  0.85322  1.0000
  H   H305      1.0  0.09019  0.06870  0.93702  1.0000
  H   H306      1.0  0.10371  0.05018  0.91176  1.0000
  H   H307      1.0  0.11868  0.08151  0.86889  1.0000
  H   H308      1.0  0.10063  0.10343  0.86390  1.0000
  H   H309      1.0  0.06388  0.09794  0.86335  1.0000
  H   H310      1.0  0.05076  0.07555  0.88077  1.0000
  H   H311      1.0  0.10192  0.08131  0.81585  1.0000
  H   H312      1.0  0.08684  0.05971  0.79948  1.0000
  H   H313      1.0  0.07270  0.08245  0.81537  1.0000
  H   H314      1.0  0.07340  0.03440  0.94440  1.0000
  H   H315      1.0  0.05430  0.05182  0.92506  1.0000
  H   H316      1.0  0.06846  0.03141  0.90113  1.0000
  H   H317      1.0  0.12548  0.11177  0.90658  1.0000
  H   H318      1.0  0.12214  0.08658  0.92794  1.0000
  H   H319      1.0  0.04564  0.31503  0.74456  1.0000
  H   H320      1.0  0.22425  0.03774  0.98528  1.0000
  C   C195      1.0  0.40790  0.26609  0.76802  1.0000
  H   H321      1.0  0.36680  0.25493  0.74311  1.0000
  H   H322      1.0  0.13949  0.27597  0.74892  1.0000
  H   H323      1.0  0.20491  0.02105  0.77499  1.0000
  H   H324      1.0  0.22340  0.02585  0.69083  1.0000
  H   H325      1.0  0.19025  0.01741  0.71490  1.0000
  H   H326      1.0  0.39095  0.25256  0.66841  1.0000
  H   H327      1.0  0.39003  0.10778  0.65956  1.0000
  H   H328      1.0  0.41117  0.08153  0.71306  1.0000
  H   H329      1.0  0.08058  0.31936  0.96913  1.0000
  S   S62       1.0  0.13168  0.28315  0.65716  1.0000
  C   C196      1.0  0.20954  0.07008  0.86834  1.0000
  H   H330      1.0  0.40961  0.05274  0.70655  1.0000
  H   H331      1.0  0.19036  0.11297  0.56125  1.0000
  S   S63       1.0  0.14588  0.29638  0.56184  1.0000
  H   H332      1.0  0.18265  0.05331  0.63608  1.0000
  Fe  Fe32      1.0  0.12253  0.00487  0.97362  1.0000
  H   H333      1.0  0.46369  0.24937  0.94498  1.0000
  H   H334      1.0  0.25639  0.03141  0.73025  1.0000
  H   H335      1.0  0.19535  0.06096  0.85979  1.0000
  H   H336      1.0  0.17768  0.01248  0.77107  1.0000
  H   H337      1.0  0.33651  0.05891  0.61911  1.0000
  H   H338      1.0  0.38795  0.03573  0.59843  1.0000
  C   C197      1.0  0.33357  0.11507  0.51820  1.0000
  H   H339      1.0  0.09879  0.19119  0.74369  1.0000
  H   H340      1.0  0.12668  0.23915  0.79858  1.0000
  H   H341      1.0  0.22261  0.09722  0.75286  1.0000
  C   C198      1.0  0.40685  0.29606  0.66338  1.0000
  C   C199      1.0  0.20895  0.04230  0.97294  1.0000
  H   H342      1.0  0.37041  0.05665  0.69386  1.0000
  H   H343      1.0  0.24063  0.06569  0.89110  1.0000
  H   H344      1.0  0.38266  0.30673  0.69761  1.0000
  C   C200      1.0  0.39784  0.25364  0.69382  1.0000
  C   C201      1.0  0.20199  0.01565  0.86626  1.0000
  H   H345      1.0  0.20585  0.13318  0.53990  1.0000
  S   S64       1.0  0.10897  0.00154  0.92231  1.0000
  C   C202      1.0  0.12567  0.15328  0.51517  1.0000
  C   C203      1.0  0.39910  0.05427  0.64119  1.0000
  H   H346      1.0  0.15147  0.23062  0.50990  1.0000
  H   H347      1.0  0.20030  0.05332  0.99007  1.0000
  H   H348      1.0  0.38569  0.07329  0.96605  1.0000
  H   H349      1.0  0.41531  0.04356  0.59589  1.0000
  C   C204      1.0  0.39338  0.23141  0.71035  1.0000
  H   H350      1.0  0.25206  0.03708  0.93108  1.0000
  H   H351      1.0  0.41558  0.25489  0.68987  1.0000
  Fe  Fe33      1.0  0.00186  0.30850  0.93831  1.0000
  H   H352      1.0  0.45297  0.27609  0.90313  1.0000
  H   H353      1.0  0.36057  0.19049  0.54293  1.0000
  C   C205      1.0  0.40552  0.10104  0.61272  1.0000
  C   C206      1.0  0.22728  0.05519  0.88260  1.0000
  Fe  Fe34      1.0  0.11902  0.31283  0.68299  1.0000
  C   C207      1.0  0.47860  0.30524  0.96458  1.0000
  H   H354      1.0  0.22553  0.06666  0.94410  1.0000
  C   C208      1.0  0.14328  0.31495  0.52820  1.0000
  S   S65       1.0  0.14941  0.31876  0.71093  1.0000
  C   C209      1.0  0.39904  0.04929  0.60348  1.0000
  H   H355      1.0  0.11739  0.05658  0.99006  1.0000
  H   H356      1.0  0.41377  0.11689  0.61373  1.0000
  H   H357      1.0  0.23482  0.12560  0.51131  1.0000
  H   H358      1.0  0.10785  0.27206  0.72162  1.0000
  H   H359      1.0  0.10093  0.10665  0.92882  1.0000
  H   H360      1.0  0.13162  0.27881  0.79237  1.0000
  H   H361      1.0  0.45057  0.27379  0.98124  1.0000
  H   H362      1.0  0.40038  0.29730  0.74612  1.0000
  H   H363      1.0  0.19884  0.02777  0.97042  1.0000
  H   H364      1.0  0.36748  0.07882  0.60733  1.0000
  N   N13       1.0  0.38622  0.07354  0.65245  1.0000
  C   C210      1.0  0.18885  0.02623  0.76652  1.0000
  H   H365      1.0  0.37270  0.30755  0.51890  1.0000
  C   C211      1.0  0.18835  0.03255  0.72919  1.0000
  C   C212      1.0  0.44960  0.31611  0.92550  1.0000
  N   N14       1.0  0.38918  0.27332  0.71128  1.0000
  N   N15       1.0  0.22012  0.04011  0.91043  1.0000
  H   H366      1.0  0.12680  0.22696  0.53379  1.0000
  H   H367      1.0  0.03664  0.32251  0.80387  1.0000
  H   H368      1.0  0.10812  0.25424  0.50865  1.0000
  C   C213      1.0  0.38093  0.07087  0.68917  1.0000
  C   C214      1.0  0.13878  0.26785  0.77369  1.0000
  C   C215      1.0  0.34919  0.05711  0.63830  1.0000
  H   H369      1.0  0.34076  0.05745  0.66282  1.0000
  C   C216      1.0  0.12692  0.24600  0.77273  1.0000
  H   H370      1.0  0.11332  0.21060  0.71889  1.0000
  H   H371      1.0  0.12319  0.20189  0.75919  1.0000
  C   C217      1.0  0.19514  0.05953  0.68529  1.0000
  H   H372      1.0  0.41732  0.08974  0.60165  1.0000
  H   H373      1.0  0.35605  0.26402  0.70530  1.0000
  H   H374      1.0  0.38265  0.12976  0.54667  1.0000
  H   H375      1.0  0.23954  0.07836  0.73188  1.0000
  H   H376      1.0  0.15573  0.26497  0.78119  1.0000
  C   C218      1.0  0.07992  0.31890  0.75014  1.0000
  H   H377      1.0  0.39315  0.25766  0.77657  1.0000
  C   C219      1.0  0.19130  0.12308  0.53815  1.0000
  C   C220      1.0  0.10602  0.25422  0.72268  1.0000
  C   C221      1.0  0.10860  0.20612  0.74477  1.0000
  H   H378      1.0  0.43531  0.31042  0.91160  1.0000
  C   C222      1.0  0.20615  0.06728  0.74173  1.0000
  H   H379      1.0  0.39517  0.06298  0.58669  1.0000
  H   H380      1.0  0.19025  0.07529  0.74554  1.0000
  H   H381      1.0  0.08399  0.26236  0.68262  1.0000
  N   N16       1.0  0.10449  0.24645  0.75845  1.0000
  C   C223      1.0  0.08729  0.24834  0.69940  1.0000
  H   H382      1.0  0.17684  0.13367  0.53843  1.0000
  C   C224      1.0  0.99671  0.25259  0.97529  1.0000
  H   H383      1.0  0.06480  0.27168  0.74628  1.0000
  C   C225      1.0  0.20130  0.02623  0.90098  1.0000
  H   H384      1.0  0.42087  0.25412  0.76331  1.0000
  H   H385      1.0  0.41136  0.28222  0.64759  1.0000
  C   C226      1.0  0.09548  0.22395  0.76210  1.0000
  H   H386      1.0  0.48183  0.03406  0.94953  1.0000
  H   H387      1.0  0.05934  0.27438  0.78947  1.0000
  C   C227      1.0  0.09119  0.26169  0.77921  1.0000
  H   H388      1.0  0.09402  0.21928  0.78897  1.0000
  H   H389      1.0  0.18058  0.06933  0.69111  1.0000
  H   H390      1.0  0.09754  0.27837  0.77693  1.0000
  H   H391      1.0  0.41444  0.09304  0.66218  1.0000
  H   H392      1.0  0.41621  0.05586  0.64886  1.0000
  H   H393      1.0  0.48397  0.25016  0.91329  1.0000
  C   C228      1.0  0.15415  0.31077  0.49811  1.0000
  H   H394      1.0  0.19809  0.06294  0.93340  1.0000
  H   H395      1.0  0.07185  0.24432  0.71183  1.0000
  H   H396      1.0  0.07888  0.22278  0.75263  1.0000
  H   H397      1.0  0.09219  0.25714  0.80613  1.0000
  C   C229      1.0  0.38687  0.29123  0.68557  1.0000
  H   H398      1.0  0.39149  0.10348  0.59629  1.0000
  C   C230      1.0  0.37016  0.12577  0.52928  1.0000
  H   H399      1.0  0.12391  0.17009  0.52138  1.0000
  C   C231      1.0  0.39905  0.09408  0.64843  1.0000
  C   C232      1.0  0.22293  0.08490  0.73308  1.0000
  H   H400      1.0  0.21048  0.06112  0.76679  1.0000
  C   C233      1.0  0.22559  0.03952  0.70802  1.0000
  H   H401      1.0  0.21612  0.07911  0.84637  1.0000
  H   H402      1.0  0.43806  0.02740  0.94075  1.0000
  H   H403      1.0  0.39871  0.23020  0.73642  1.0000
  H   H404      1.0  0.37166  0.08507  0.69837  1.0000
  H   H405      1.0  0.21702  0.01788  0.85175  1.0000
  C   C234      1.0  0.46696  0.28075  0.91860  1.0000
  H   H406      1.0  0.39406  0.06533  0.73851  1.0000
  H   H407      1.0  0.14450  0.24832  0.54256  1.0000
  H   H408      1.0  0.35255  0.30146  0.72718  1.0000
  C   C235      1.0  0.06713  0.26369  0.77090  1.0000
  H   H409      1.0  0.05841  0.24817  0.77256  1.0000
  C   C236      1.0  0.21321  0.05405  0.93927  1.0000
  N   N17       1.0  0.20414  0.04949  0.71675  1.0000
  C   C237      1.0  0.43469  0.99656  0.96704  1.0000
  H   H410      1.0  0.10852  0.31974  0.95859  1.0000
  H   H411      1.0  0.18278  0.03954  0.78224  1.0000
  C   C238      1.0  0.40463  0.28089  0.73726  1.0000
  H   H412      1.0  0.20311  0.09508  0.51242  1.0000
  C   C239      1.0  0.36838  0.32354  0.51011  1.0000
  H   H413      1.0  0.42097  0.28316  0.72612  1.0000
  H   H414      1.0  0.20231  0.03404  0.64865  1.0000
  S   S66       1.0  0.03705  0.31578  0.94250  1.0000
  Fe  Fe35      1.0  0.48437  0.16211  0.96091  1.0000
  H   H415      1.0  0.31763  0.11071  0.52717  1.0000
  H   H416      1.0  0.40223  0.21887  0.69620  1.0000
  H   H417      1.0  0.23592  0.05093  0.69322  1.0000
  H   H418      1.0  0.19958  0.99797  0.86932  1.0000
  C   C240      1.0  0.34851  0.19380  0.52323  1.0000
  H   H419      1.0  0.34024  0.28202  0.75400  1.0000
  H   H420      1.0  0.19885  0.01314  0.91965  1.0000
  C   C241      1.0  0.41809  0.08040  0.98127  1.0000
  C   C242      1.0  0.35608  0.28761  0.74400  1.0000
  H   H421      1.0  0.47455  0.32105  0.97582  1.0000
  C   C243      1.0  0.19136  0.10830  0.50749  1.0000
  C   C244      1.0  0.43228  0.30210  0.99154  1.0000
  C   C245      1.0  0.39794  0.07016  0.98446  1.0000
  C   C246      1.0  0.43164  0.02122  0.96502  1.0000
  C   C247      1.0  0.47641  0.25973  0.93348  1.0000
  H   H422      1.0  0.47954  0.04183  0.99211  1.0000
  H   H423      1.0  0.47100  0.31928  0.88102  1.0000
  H   H424      1.0  0.48057  0.10438  0.80685  1.0000
  H   H425      1.0  0.23417  0.01594  0.94317  1.0000
  H   H426      1.0  0.23493  0.01318  0.74214  1.0000
  H   H427      1.0  0.48696  0.06132  0.95976  1.0000
  H   H428      1.0  0.18839  0.02163  0.85090  1.0000
  C   C248      1.0  0.48894  0.04445  0.96877  1.0000
  H   H429      1.0  0.99756  0.19729  0.98318  1.0000
  H   H430      1.0  0.48900  0.26281  0.95205  1.0000
  C   C249      1.0  0.24903  0.01109  0.89644  1.0000
  C   C250      1.0  0.09623  0.32360  0.77262  1.0000
  S   S67       1.0  0.99886  0.32573  0.88792  1.0000
  H   H431      1.0  0.49313  0.11228  0.84424  1.0000
  H   H432      1.0  0.11283  0.32388  0.76419  1.0000
  H   H433      1.0  0.13644  0.32746  0.88987  1.0000
  H   H434      1.0  0.44340  0.32821  0.94336  1.0000
  H   H435      1.0  0.17097  0.55417  0.02470  1.0000
  H   H436      1.0  0.18297  0.38883  0.47348  1.0000
  H   H437      1.0  0.24650  0.35486  0.41687  1.0000
  C   C251      1.0  0.31758  0.46905  0.05403  1.0000
  S   S68       1.0  0.36504  0.35622  0.42104  1.0000
  C   C252      1.0  0.17648  0.53775  0.03166  1.0000
  H   H438      1.0  0.27999  0.37386  0.27601  1.0000
  Fe  Fe36      1.0  0.19627  0.36205  0.35145  1.0000
  S   S69       1.0  0.16636  0.38232  0.35498  1.0000
  S   S70       1.0  0.22977  0.37566  0.35242  1.0000
  H   H439      1.0  0.26005  0.35815  0.25623  1.0000
  H   H440      1.0  0.22750  0.36029  0.22912  1.0000
  Fe  Fe37      1.0  0.15442  0.36189  0.31317  1.0000
  S   S71       1.0  0.13753  0.37304  0.26536  1.0000
  Fe  Fe38      1.0  0.15436  0.35573  0.38971  1.0000
  C   C253      1.0  0.31413  0.45146  0.02792  1.0000
  H   H441      1.0  0.06924  0.49080  0.12921  1.0000
  H   H442      1.0  0.23187  0.40577  0.15523  1.0000
  Fe  Fe39      1.0  0.01244  0.60983  0.07063  1.0000
  H   H443      1.0  0.16254  0.52662  0.03191  1.0000
  S   S72       1.0  0.03009  0.57696  0.06986  1.0000
  S   S73       1.0  0.18527  0.34318  0.30784  1.0000
  H   H444      1.0  0.39188  0.40285  0.04720  1.0000
  Fe  Fe40      1.0  0.47002  0.35288  0.03831  1.0000
  C   C254      1.0  0.41011  0.33444  0.22772  1.0000
  S   S74       1.0  0.48011  0.37254  0.08230  1.0000
  Fe  Fe41      1.0  0.13549  0.49857  0.07238  1.0000
  S   S75       1.0  0.14219  0.48297  0.02332  1.0000
  S   S76       1.0  0.12428  0.53374  0.07843  1.0000
  Fe  Fe42      1.0  0.15172  0.45863  0.11110  1.0000
  S   S77       1.0  0.15873  0.43995  0.06430  1.0000
  S   S78       1.0  0.16156  0.45081  0.16490  1.0000
  Fe  Fe43      1.0  0.17363  0.47063  0.04373  1.0000
  H   H445      1.0  0.01598  0.40208  0.04099  1.0000
  Fe  Fe44      1.0  0.12701  0.45337  0.04650  1.0000
  C   C255      1.0  0.28839  0.42851  0.06210  1.0000
  S   S79       1.0  0.16834  0.48872  0.09130  1.0000
  S   S80       1.0  0.11867  0.46963  0.09478  1.0000
  H   H446      1.0  0.30449  0.46940  0.07298  1.0000
  C   C256      1.0  0.08505  0.40436  0.04110  1.0000
  H   H447      1.0  0.26947  0.44610  0.02264  1.0000
  H   H448      1.0  0.09546  0.40741  0.06190  1.0000
  H   H449      1.0  0.07131  0.37535  0.06299  1.0000
  H   H450      1.0  0.24255  0.34464  0.45909  1.0000
  C   C257      1.0  0.24800  0.34054  0.43357  1.0000
  H   H451      1.0  0.00782  0.41085  0.08168  1.0000
  C   C258      1.0  0.21098  0.41264  0.28882  1.0000
  C   C259      1.0  0.24869  0.35525  0.34495  1.0000
  H   H452      1.0  0.30156  0.45750  0.01100  1.0000
  H   H453      1.0  0.25397  0.43387  0.05499  1.0000
  H   H454      1.0  0.18216  0.53830  0.05777  1.0000
  H   H455      1.0  0.20441  0.41552  0.23688  1.0000
  N   N18       1.0  0.28814  0.34426  0.44974  1.0000
  C   C260      1.0  0.05662  0.56561  0.07167  1.0000
  C   C261      1.0  0.07489  0.57775  0.07912  1.0000
  C   C262      1.0  0.09538  0.56775  0.08093  1.0000
  C   C263      1.0  0.09802  0.54557  0.07499  1.0000
  C   C264      1.0  0.07979  0.53351  0.06708  1.0000
  C   C265      1.0  0.05927  0.54341  0.06581  1.0000
  H   H456      1.0  0.07322  0.59480  0.08373  1.0000
  H   H457      1.0  0.10929  0.57734  0.08696  1.0000
  H   H458      1.0  0.08144  0.51650  0.06208  1.0000
  H   H459      1.0  0.04534  0.53376  0.06017  1.0000
  H   H460      1.0  0.22494  0.33028  0.33988  1.0000
  C   C266      1.0  0.32749  0.42275  0.06396  1.0000
  C   C267      1.0  0.30948  0.33325  0.44375  1.0000
  H   H461      1.0  0.27663  0.37724  0.23241  1.0000
  C   C268      1.0  0.00628  0.41412  0.05453  1.0000
  C   C269      1.0  0.14406  0.39501  0.23795  1.0000
  C   C270      1.0  0.15670  0.41234  0.24798  1.0000
  C   C271      1.0  0.16168  0.42931  0.22535  1.0000
  C   C272      1.0  0.15414  0.42920  0.19242  1.0000
  C   C273      1.0  0.14127  0.41204  0.18249  1.0000
  C   C274      1.0  0.13622  0.39510  0.20518  1.0000
  H   H462      1.0  0.16244  0.41269  0.27327  1.0000
  H   H463      1.0  0.17142  0.44262  0.23345  1.0000
  H   H464      1.0  0.13528  0.41172  0.15731  1.0000
  H   H465      1.0  0.12629  0.38187  0.19723  1.0000
  C   C275      1.0  0.36436  0.34922  0.46411  1.0000
  C   C276      1.0  0.23013  0.47472  0.00074  1.0000
  S   S81       1.0  0.20272  0.46682  0.00772  1.0000
  S   S82       1.0  0.00309  0.62527  0.02151  1.0000
  H   H466      1.0  0.30160  0.38821  0.46991  1.0000
  S   S83       1.0  0.13731  0.36199  0.43907  1.0000
  C   C277      1.0  0.21956  0.37303  0.24417  1.0000
  H   H467      1.0  0.08765  0.54476  0.22679  1.0000
  C   C278      1.0  0.24057  0.48977  0.02053  1.0000
  H   H468      1.0  0.19085  0.35801  0.22404  1.0000
  S   S84       1.0  0.47251  0.33068  0.16380  1.0000
  H   H469      1.0  0.33251  0.38798  0.05679  1.0000
  H   H470      1.0  0.44533  0.47338  0.02326  1.0000
  C   C279      1.0  0.39937  0.39819  0.02392  1.0000
  S   S85       1.0  0.13956  0.33692  0.34832  1.0000
  H   H471      1.0  0.29148  0.43403  0.08788  1.0000
  H   H472      1.0  0.21976  0.36699  0.27049  1.0000
  C   C280      1.0  0.08554  0.41816  0.01320  1.0000
  C   C281      1.0  0.27073  0.35998  0.34487  1.0000
  S   S86       1.0  0.34882  0.34188  0.33201  1.0000
  H   H473      1.0  0.30548  0.39659  0.42782  1.0000
  H   H474      1.0  0.31178  0.39423  0.08762  1.0000
  C   C282      1.0  0.41741  0.38444  0.02431  1.0000
  N   N19       1.0  0.23196  0.39390  0.24134  1.0000
  C   C283      1.0  0.32755  0.39917  0.07680  1.0000
  C   C284      1.0  0.24026  0.39776  0.20627  1.0000
  C   C285      1.0  0.35873  0.36507  0.48733  1.0000
  Fe  Fe45      1.0  0.48070  0.34012  0.10954  1.0000
  H   H475      1.0  0.30537  0.39691  0.02270  1.0000
  H   H476      1.0  0.40731  0.47230  0.03819  1.0000
  H   H477      1.0  0.01424  0.42992  0.04977  1.0000
  H   H478      1.0  0.99841  0.37342  0.03124  1.0000
  H   H479      1.0  0.07130  0.51805  0.14252  1.0000
  S   S87       1.0  0.18551  0.33755  0.38943  1.0000
  C   C286      1.0  0.44814  0.33233  0.18759  1.0000
  C   C287      1.0  0.24189  0.33415  0.33962  1.0000
  H   H480      1.0  0.35541  0.38134  0.47874  1.0000
  H   H481      1.0  0.25112  0.41208  0.20541  1.0000
  C   C288      1.0  0.05844  0.38162  0.01412  1.0000
  C   C289      1.0  0.21890  0.41315  0.25221  1.0000
  H   H482      1.0  0.27294  0.37463  0.43574  1.0000
  Fe  Fe46      1.0  0.36600  0.33193  0.37911  1.0000
  H   H483      1.0  0.34324  0.42556  0.05114  1.0000
  H   H484      1.0  0.27603  0.37633  0.34887  1.0000
  H   H485      1.0  0.23225  0.49640  0.04185  1.0000
  H   H486      1.0  0.25013  0.38389  0.19777  1.0000
  C   C290      1.0  0.26769  0.37429  0.25611  1.0000
  H   H487      1.0  0.19874  0.42550  0.29245  1.0000
  H   H488      1.0  0.22426  0.41606  0.30622  1.0000
  H   H489      1.0  0.22836  0.42826  0.24844  1.0000
  Fe  Fe47      1.0  0.00610  0.65744  0.04675  1.0000
  S   S88       1.0  0.01795  0.64211  0.09482  1.0000
  H   H490      1.0  0.30294  0.34717  0.34068  1.0000
  H   H491      1.0  0.41596  0.44507  0.03400  1.0000
  C   C291      1.0  0.19555  0.37382  0.23432  1.0000
  H   H492      1.0  0.32896  0.45097  0.01199  1.0000
  S   S89       1.0  0.04274  0.35787  0.01440  1.0000
  H   H493      1.0  0.07648  0.55290  0.18709  1.0000
  C   C292      1.0  0.26177  0.49653  0.01237  1.0000
  H   H494      1.0  0.42376  0.37854  0.04773  1.0000
  H   H495      1.0  0.20332  0.39711  0.29602  1.0000
  H   H496      1.0  0.24629  0.38950  0.29003  1.0000
  H   H497      1.0  0.19111  0.38623  0.21566  1.0000
  H   H498      1.0  0.45475  0.44015  0.04478  1.0000
  H   H499      1.0  0.18522  0.37580  0.25674  1.0000
  H   H500      1.0  0.20957  0.53831  0.01638  1.0000
  H   H501      1.0  0.33975  0.39741  0.09670  1.0000
  C   C293      1.0  0.30560  0.38223  0.44472  1.0000
  C   C294      1.0  0.22339  0.40124  0.17884  1.0000
  H   H502      1.0  0.27367  0.33143  0.49556  1.0000
  N   N20       1.0  0.30901  0.42927  0.04171  1.0000
  H   H503      1.0  0.42833  0.34439  0.14785  1.0000
  H   H504      1.0  0.28254  0.41161  0.06477  1.0000
  C   C295      1.0  0.30830  0.41361  0.01334  1.0000
  C   C296      1.0  0.26935  0.44246  0.04956  1.0000
  H   H505      1.0  0.99647  0.53991  0.04413  1.0000
  H   H506      1.0  0.32789  0.43293  0.08652  1.0000
  C   C297      1.0  0.13905  0.34314  0.47251  1.0000
  C   C298      1.0  0.25134  0.39240  0.26374  1.0000
  H   H507      1.0  0.21463  0.38610  0.17374  1.0000
  N   N21       1.0  0.10856  0.50743  0.18551  1.0000
  C   C299      1.0  0.12851  0.50255  0.16520  1.0000
  C   C300      1.0  0.09017  0.49444  0.17193  1.0000
  C   C301      1.0  0.11154  0.50129  0.22163  1.0000
  C   C302      1.0  0.10416  0.53129  0.18302  1.0000
  C   C303      1.0  0.14977  0.51232  0.17751  1.0000
  C   C304      1.0  0.08057  0.50293  0.13901  1.0000
  C   C305      1.0  0.11856  0.47773  0.22835  1.0000
  C   C306      1.0  0.08368  0.53924  0.20140  1.0000
  H   H508      1.0  0.13102  0.48488  0.16329  1.0000
  H   H509      1.0  0.12664  0.50837  0.13910  1.0000
  H   H510      1.0  0.07666  0.49285  0.19028  1.0000
  H   H511      1.0  0.09532  0.47750  0.16741  1.0000
  H   H512      1.0  0.12339  0.51206  0.23358  1.0000
  H   H513      1.0  0.09629  0.50374  0.23597  1.0000
  H   H514      1.0  0.11769  0.54056  0.19364  1.0000
  H   H515      1.0  0.10376  0.53708  0.15656  1.0000
  H   H516      1.0  0.14978  0.53015  0.17551  1.0000
  H   H517      1.0  0.15374  0.50700  0.20318  1.0000
  H   H518      1.0  0.16315  0.50658  0.16130  1.0000
  C   C307      1.0  0.28861  0.36616  0.43280  1.0000
  H   H519      1.0  0.09317  0.50572  0.11976  1.0000
  C   C308      1.0  0.28596  0.34352  0.34013  1.0000
  H   H520      1.0  0.11935  0.47479  0.25568  1.0000
  H   H521      1.0  0.13484  0.47431  0.21808  1.0000
  H   H522      1.0  0.10694  0.46598  0.21842  1.0000
  H   H523      1.0  0.47902  0.43742  0.01939  1.0000
  H   H524      1.0  0.07089  0.52691  0.20377  1.0000
  C   C309      1.0  0.27105  0.33112  0.43291  1.0000
  H   H525      1.0  0.33338  0.46711  0.06636  1.0000
  H   H526      1.0  0.21195  0.41453  0.18405  1.0000
  H   H527      1.0  0.31788  0.48507  0.04123  1.0000
  H   H528      1.0  0.26823  0.45776  0.06347  1.0000
  H   H529      1.0  0.26033  0.40795  0.26358  1.0000
  C   C310      1.0  0.07140  0.38620  0.04160  1.0000
  C   C311      1.0  0.19494  0.52958  0.00902  1.0000
  H   H530      1.0  0.29130  0.36437  0.40552  1.0000
  H   H531      1.0  0.46384  0.41425  0.03200  1.0000
  H   H532      1.0  0.32260  0.34149  0.45678  1.0000
  C   C312      1.0  0.28246  0.34604  0.48636  1.0000
  S   S90       1.0  0.38561  0.33578  0.25131  1.0000
  H   H533      1.0  0.26953  0.50841  0.02757  1.0000
  H   H534      1.0  0.32220  0.37574  0.44361  1.0000
  H   H535      1.0  0.39505  0.34618  0.18285  1.0000
  C   C313      1.0  0.40991  0.34050  0.19377  1.0000
  C   C314      1.0  0.42876  0.33948  0.17380  1.0000
  C   C315      1.0  0.41329  0.46035  0.01996  1.0000
  C   C316      1.0  0.46241  0.43142  0.02388  1.0000
  H   H536      1.0  0.02595  0.54837  0.00834  1.0000
  S   S91       1.0  0.10379  0.43981  0.00902  1.0000
  H   H537      1.0  0.00145  0.57528  0.01289  1.0000
  H   H538      1.0  0.27107  0.35966  0.49040  1.0000
  H   H539      1.0  0.19818  0.51256  0.01663  1.0000
  H   H540      1.0  0.31418  0.33430  0.41685  1.0000
  H   H541      1.0  0.13664  0.39536  0.99917  1.0000
  H   H542      1.0  0.32416  0.41322  0.00007  1.0000
  C   C317      1.0  0.43401  0.46916  0.00311  1.0000
  H   H543      1.0  0.40022  0.45827  0.00178  1.0000
  Fe  Fe48      1.0  0.34103  0.34423  0.61646  1.0000
  H   H544      1.0  0.30246  0.40304  0.69560  1.0000
  C   C318      1.0  0.23179  0.39799  0.64143  1.0000
  Fe  Fe49      1.0  0.33375  0.35916  0.69008  1.0000
  S   S92       1.0  0.29933  0.34792  0.68983  1.0000
  S   S93       1.0  0.34813  0.36816  0.74046  1.0000
  S   S94       1.0  0.49175  0.64855  0.89861  1.0000
  Fe  Fe50      1.0  0.29847  0.36301  0.63879  1.0000
  S   S95       1.0  0.27194  0.38545  0.62285  1.0000
  H   H545      1.0  0.41468  0.44456  0.95647  1.0000
  S   S96       1.0  0.33237  0.37607  0.63989  1.0000
  C   C319      1.0  0.29137  0.41702  0.69608  1.0000
  H   H546      1.0  0.40355  0.58977  0.93324  1.0000
  H   H547      1.0  0.24944  0.34607  0.64432  1.0000
  H   H548      1.0  0.09469  0.36794  0.87137  1.0000
  H   H549      1.0  0.21421  0.56726  0.98757  1.0000
  H   H550      1.0  0.47648  0.45304  0.95441  1.0000
  C   C320      1.0  0.16580  0.51403  0.92841  1.0000
  C   C321      1.0  0.23858  0.35965  0.64651  1.0000
  Fe  Fe51      1.0  0.48133  0.62037  0.93195  1.0000
  S   S97       1.0  0.44692  0.60636  0.92990  1.0000
  H   H551      1.0  0.39448  0.40587  0.94025  1.0000
  Fe  Fe52      1.0  0.34668  0.46084  0.88329  1.0000
  S   S98       1.0  0.32861  0.44872  0.92907  1.0000
  S   S99       1.0  0.33770  0.45253  0.82957  1.0000
  Fe  Fe53      1.0  0.37589  0.49159  0.92336  1.0000
  S   S100      1.0  0.35941  0.48153  0.97138  1.0000
  S   S101      1.0  0.40844  0.51008  0.92238  1.0000
  Fe  Fe54      1.0  0.36124  0.44767  0.95295  1.0000
  H   H552      1.0  0.03298  0.52597  0.98329  1.0000
  Fe  Fe55      1.0  0.32759  0.48327  0.94479  1.0000
  C   C322      1.0  0.28939  0.38757  0.76025  1.0000
  S   S102      1.0  0.37946  0.45707  0.90630  1.0000
  S   S103      1.0  0.34389  0.49603  0.89755  1.0000
  C   C323      1.0  0.23200  0.53269  0.95806  1.0000
  Fe  Fe56      1.0  0.02668  0.34633  0.96725  1.0000
  H   H553      1.0  0.47266  0.58776  0.77705  1.0000
  S   S104      1.0  0.02611  0.36512  0.91942  1.0000
  H   H554      1.0  0.16780  0.34372  0.56864  1.0000
  H   H555      1.0  0.22556  0.38872  0.75271  1.0000
  C   C324      1.0  0.48630  0.61319  0.82039  1.0000
  H   H556      1.0  0.04880  0.39250  0.96536  1.0000
  C   C325      1.0  0.30126  0.34893  0.51084  1.0000
  H   H557      1.0  0.14807  0.38722  0.96031  1.0000
  H   H558      1.0  0.14177  0.36494  0.91863  1.0000
  N   N22       1.0  0.27162  0.40258  0.74934  1.0000
  C   C326      1.0  0.29096  0.41752  0.98681  1.0000
  C   C327      1.0  0.27270  0.42342  0.80463  1.0000
  H   H559      1.0  0.24644  0.42266  0.76981  1.0000
  H   H560      1.0  0.13627  0.34167  0.94216  1.0000
  H   H561      1.0  0.43144  0.57541  0.77068  1.0000
  H   H562      1.0  0.23248  0.54914  0.94692  1.0000
  H   H563      1.0  0.43453  0.42219  0.92213  1.0000
  C   C328      1.0  0.43662  0.57937  0.92902  1.0000
  C   C329      1.0  0.41415  0.57604  0.93052  1.0000
  C   C330      1.0  0.40519  0.55511  0.92866  1.0000
  C   C331      1.0  0.41858  0.53711  0.92479  1.0000
  C   C332      1.0  0.44104  0.54052  0.92280  1.0000
  C   C333      1.0  0.45001  0.56136  0.92533  1.0000
  H   H564      1.0  0.11721  0.39254  0.90877  1.0000
  H   H565      1.0  0.38792  0.55294  0.93013  1.0000
  H   H566      1.0  0.45163  0.52695  0.91905  1.0000
  H   H567      1.0  0.46728  0.56352  0.92404  1.0000
  C   C334      1.0  0.42992  0.45266  0.94863  1.0000
  H   H568      1.0  0.03116  0.55205  0.96422  1.0000
  C   C335      1.0  0.18362  0.36892  0.51856  1.0000
  N   N23       1.0  0.44471  0.45475  0.97786  1.0000
  H   H569      1.0  0.31194  0.36256  0.50413  1.0000
  H   H570      1.0  0.14193  0.39673  0.58260  1.0000
  H   H571      1.0  0.45618  0.44095  0.91495  1.0000
  H   H572      1.0  0.23351  0.45477  0.95750  1.0000
  H   H573      1.0  0.01073  0.38689  0.98440  1.0000
  C   C336      1.0  0.12500  0.34121  0.89146  1.0000
  H   H574      1.0  0.43124  0.44574  0.89559  1.0000
  C   C337      1.0  0.48603  0.63382  0.79838  1.0000
  C   C338      1.0  0.09513  0.32973  0.96833  1.0000
  H   H575      1.0  0.29458  0.35219  0.53607  1.0000
  H   H576      1.0  0.45492  0.62442  0.86200  1.0000
  C   C339      1.0  0.24589  0.38051  0.63861  1.0000
  H   H577      1.0  0.29537  0.42826  0.74577  1.0000
  H   H578      1.0  0.14680  0.36909  0.59225  1.0000
  C   C340      1.0  0.41857  0.38584  0.96404  1.0000
  H   H579      1.0  0.27845  0.41461  0.67769  1.0000
  H   H580      1.0  0.00719  0.57856  0.95545  1.0000
  C   C341      1.0  0.07195  0.41401  0.98639  1.0000
  C   C342      1.0  0.34600  0.39205  0.76446  1.0000
  C   C343      1.0  0.33988  0.41191  0.75048  1.0000
  C   C344      1.0  0.33771  0.43022  0.77074  1.0000
  C   C345      1.0  0.34182  0.42905  0.80516  1.0000
  C   C346      1.0  0.34833  0.40929  0.81904  1.0000
  C   C347      1.0  0.35042  0.39095  0.79879  1.0000
  H   H581      1.0  0.33693  0.41318  0.72404  1.0000
  H   H582      1.0  0.33293  0.44546  0.75963  1.0000
  H   H583      1.0  0.35158  0.40809  0.84541  1.0000
  H   H584      1.0  0.35531  0.37574  0.80989  1.0000
  H   H585      1.0  0.29183  0.43378  0.97511  1.0000
  H   H586      1.0  0.26181  0.42900  0.82490  1.0000
  H   H587      1.0  0.23711  0.53280  0.98435  1.0000
  C   C348      1.0  0.18584  0.55370  0.96011  1.0000
  H   H588      1.0  0.42432  0.46863  0.93920  1.0000
  H   H589      1.0  0.16973  0.35793  0.51556  1.0000
  S   S105      1.0  0.44957  0.36095  0.99333  1.0000
  H   H590      1.0  0.35375  0.37260  0.53933  1.0000
  H   H591      1.0  0.47650  0.33815  0.91432  1.0000
  C   C349      1.0  0.40085  0.39999  0.96368  1.0000
  H   H592      1.0  0.26982  0.36984  0.79846  1.0000
  H   H593      1.0  0.21928  0.40004  0.52055  1.0000
  H   H594      1.0  0.19967  0.40840  0.65390  1.0000
  H   H595      1.0  0.10386  0.33127  0.82333  1.0000
  S   S106      1.0  0.34587  0.32857  0.66677  1.0000
  C   C350      1.0  0.21047  0.39475  0.65191  1.0000
  C   C351      1.0  0.99988  0.53649  0.97591  1.0000
  N   N24       1.0  0.46511  0.60149  0.82492  1.0000
  H   H596      1.0  0.27846  0.35395  0.76308  1.0000
  H   H597      1.0  0.27094  0.46641  0.94373  1.0000
  C   C352      1.0  0.17179  0.51683  0.96530  1.0000
  C   C353      1.0  0.43861  0.43952  0.91895  1.0000
  Fe  Fe57      1.0  0.03396  0.33403  0.89384  1.0000
  H   H598      1.0  0.27015  0.43494  0.72790  1.0000
  C   C354      1.0  0.26268  0.47287  0.96527  1.0000
  H   H599      1.0  0.41659  0.62173  0.85816  1.0000
  H   H600      1.0  0.43233  0.57187  0.81454  1.0000
  H   H601      1.0  0.15018  0.50534  0.92735  1.0000
  H   H602      1.0  0.18732  0.55489  0.93247  1.0000
  H   H603      1.0  0.42586  0.38093  0.94075  1.0000
  H   H604      1.0  0.99987  0.52929  0.95072  1.0000
  H   H605      1.0  0.15698  0.52303  0.97777  1.0000
  H   H606      1.0  0.09811  0.33431  0.99446  1.0000
  H   H607      1.0  0.09392  0.39555  0.93438  1.0000
  Fe  Fe58      1.0  0.15976  0.33826  0.66601  1.0000
  H   H608      1.0  0.26568  0.38112  0.70825  1.0000
  C   C355      1.0  0.21688  0.35632  0.65609  1.0000
  H   H609      1.0  0.19718  0.36137  0.50457  1.0000
  H   H610      1.0  0.28065  0.43802  0.79401  1.0000
  C   C356      1.0  0.10285  0.38376  0.91882  1.0000
  H   H611      1.0  0.45390  0.57444  0.85603  1.0000
  H   H612      1.0  0.07174  0.37438  0.89759  1.0000
  H   H613      1.0  0.21113  0.34021  0.66167  1.0000
  C   C357      1.0  0.05863  0.39575  0.98667  1.0000
  H   H614      1.0  0.47292  0.59096  0.87490  1.0000
  S   S107      1.0  0.12817  0.33486  0.63963  1.0000
  C   C358      1.0  0.28195  0.42152  0.73113  1.0000
  C   C359      1.0  0.25924  0.41139  0.77869  1.0000
  C   C360      1.0  0.46598  0.46472  0.96772  1.0000
  H   H615      1.0  0.45149  0.55840  0.78773  1.0000
  N   N25       1.0  0.18884  0.37054  0.55508  1.0000
  C   C361      1.0  0.18478  0.34889  0.57179  1.0000
  C   C362      1.0  0.17509  0.38685  0.57305  1.0000
  C   C363      1.0  0.21231  0.37576  0.55974  1.0000
  C   C364      1.0  0.42702  0.37820  0.99431  1.0000
  H   H616      1.0  0.16867  0.55764  0.96589  1.0000
  C   C365      1.0  0.15070  0.38218  0.57402  1.0000
  C   C366      1.0  0.22000  0.39821  0.54800  1.0000
  C   C367      1.0  0.09071  0.34960  0.94584  1.0000
  H   H617      1.0  0.12152  0.33651  0.55329  1.0000
  H   H618      1.0  0.10895  0.33374  0.88951  1.0000
  H   H619      1.0  0.17701  0.40331  0.56248  1.0000
  H   H620      1.0  0.18031  0.38821  0.59935  1.0000
  H   H621      1.0  0.21652  0.37405  0.58647  1.0000
  H   H622      1.0  0.22281  0.36412  0.54637  1.0000
  H   H623      1.0  0.45078  0.60626  0.77645  1.0000
  C   C368      1.0  0.19875  0.32999  0.55928  1.0000
  C   C369      1.0  0.36278  0.33940  0.53334  1.0000
  H   H624      1.0  0.25047  0.39855  0.79272  1.0000
  H   H625      1.0  0.28490  0.41281  0.81648  1.0000
  C   C370      1.0  0.45825  0.59310  0.79159  1.0000
  C   C371      1.0  0.20278  0.37393  0.65862  1.0000
  H   H626      1.0  0.23735  0.41411  0.63526  1.0000
  H   H627      1.0  0.21131  0.41145  0.56058  1.0000
  H   H628      1.0  0.31124  0.33415  0.51329  1.0000
  H   H629      1.0  0.23722  0.39996  0.55478  1.0000
  H   H630      1.0  0.24843  0.40396  0.70935  1.0000
  C   C372      1.0  0.13273  0.39140  0.97302  1.0000
  C   C373      1.0  0.25653  0.39172  0.72556  1.0000
  H   H631      1.0  0.44668  0.63119  0.82088  1.0000
  H   H632      1.0  0.10219  0.37803  0.98801  1.0000
  H   H633      1.0  0.12785  0.35204  0.86956  1.0000
  H   H634      1.0  0.12382  0.35946  0.98861  1.0000
  H   H635      1.0  0.21187  0.50450  0.95934  1.0000
  S   S108      1.0  0.17530  0.37094  0.66882  1.0000
  H   H636      1.0  0.08566  0.39499  0.87499  1.0000
  C   C374      1.0  0.13018  0.33325  0.53035  1.0000
  C   C375      1.0  0.27298  0.48820  0.98467  1.0000
  H   H637      1.0  0.45736  0.48236  0.92142  1.0000
  H   H638      1.0  0.30076  0.43128  0.68727  1.0000
  C   C376      1.0  0.42602  0.60890  0.84558  1.0000
  C   C377      1.0  0.12797  0.34720  0.50252  1.0000
  C   C378      1.0  0.00196  0.40184  0.97786  1.0000
  C   C379      1.0  0.28289  0.36713  0.78009  1.0000
  C   C380      1.0  0.23786  0.37826  0.74079  1.0000
  N   N26       1.0  0.10959  0.36450  0.93978  1.0000
  H   H639      1.0  0.29684  0.36167  0.79517  1.0000
  N   N27       1.0  0.19093  0.53109  0.97203  1.0000
  C   C381      1.0  0.44893  0.61738  0.83846  1.0000
  S   S109      1.0  0.36491  0.33345  0.57656  1.0000
  C   C382      1.0  0.24140  0.46631  0.97316  1.0000
  H   H640      1.0  0.20451  0.58336  0.95401  1.0000
  H   H641      1.0  0.18940  0.58204  0.99175  1.0000
  C   C383      1.0  0.35765  0.36013  0.52171  1.0000
  H   H642      1.0  0.24317  0.36569  0.75862  1.0000
  H   H643      1.0  0.45529  0.49822  0.95877  1.0000
  C   C384      1.0  0.20995  0.52194  0.95316  1.0000
  S   S110      1.0  0.06438  0.33247  0.86076  1.0000
  H   H644      1.0  0.48527  0.55342  0.85954  1.0000
  H   H645      1.0  0.30175  0.39609  0.77480  1.0000
  S   S111      1.0  0.29943  0.49797  0.97493  1.0000
  H   H646      1.0  0.20726  0.52283  0.92585  1.0000
  C   C385      1.0  0.46456  0.48540  0.94607  1.0000
  C   C386      1.0  0.12866  0.35320  0.92428  1.0000
  H   H647      1.0  0.42566  0.59479  0.86278  1.0000
  H   H648      1.0  0.18441  0.40489  0.50966  1.0000
  H   H649      1.0  0.47818  0.63128  0.77413  1.0000
  H   H650      1.0  0.29356  0.40591  0.96635  1.0000
  H   H651      1.0  0.41751  0.60530  0.82220  1.0000
  H   H652      1.0  0.17446  0.50030  0.97583  1.0000
  H   H653      1.0  0.29873  0.38176  0.73847  1.0000
  H   H654      1.0  0.17774  0.50387  0.91510  1.0000
  H   H655      1.0  0.16367  0.52965  0.91509  1.0000
  C   C387      1.0  0.08800  0.37964  0.88912  1.0000
  H   H656      1.0  0.00309  0.40368  0.95034  1.0000
  H   H657      1.0  0.47534  0.46905  0.99011  1.0000
  H   H658      1.0  0.14442  0.37800  0.54928  1.0000
  C   C388      1.0  0.44880  0.43253  0.99204  1.0000
  H   H659      1.0  0.48104  0.49176  0.94129  1.0000
  H   H660      1.0  0.07216  0.42471  0.96482  1.0000
  H   H661      1.0  0.45712  0.42223  0.97337  1.0000
  H   H662      1.0  0.18705  0.34992  0.59922  1.0000
  H   H663      1.0  0.22954  0.36981  0.72047  1.0000
  C   C389      1.0  0.19941  0.57221  0.97457  1.0000
  C   C390      1.0  0.11643  0.37259  0.97337  1.0000
  C   C391      1.0  0.44258  0.57368  0.79202  1.0000
  H   H664      1.0  0.24445  0.52318  0.94457  1.0000
  H   H665      1.0  0.45370  0.34163  0.88851  1.0000
  H   H666      1.0  0.08404  0.34343  0.92244  1.0000
  C   C392      1.0  0.02373  0.54132  0.98346  1.0000
  C   C393      1.0  0.46868  0.58383  0.85056  1.0000
  H   H667      1.0  0.47833  0.64746  0.81157  1.0000
  H   H668      1.0  0.07701  0.35856  0.95724  1.0000
  C   C394      1.0  0.39121  0.40620  0.99365  1.0000
  H   H669      1.0  0.12591  0.40635  0.96183  1.0000
  S   S112      1.0  0.30700  0.33268  0.61199  1.0000
  H   H670      1.0  0.11780  0.36132  0.50433  1.0000
  H   H671      1.0  0.21557  0.33120  0.56809  1.0000
  C   C395      1.0  0.46386  0.32921  0.90098  1.0000
  C   C396      1.0  0.17742  0.38998  0.49983  1.0000
  S   S113      1.0  0.36885  0.42370  0.99444  1.0000
  H   H672      1.0  0.01006  0.41616  0.98802  1.0000
  C   C397      1.0  0.48658  0.56746  0.84209  1.0000
  H   H673      1.0  0.48533  0.56138  0.81641  1.0000
  H   H674      1.0  0.49285  0.61776  0.84496  1.0000
  H   H675      1.0  0.19844  0.32857  0.53181  1.0000
  H   H676      1.0  0.15962  0.39155  0.49831  1.0000
  H   H677      1.0  0.43341  0.42415  0.99750  1.0000
  H   H678      1.0  0.27457  0.41434  0.99700  1.0000
  H   H679      1.0  0.42936  0.48484  0.99131  1.0000
  H   H680      1.0  0.40748  0.79945  0.05318  1.0000
  C   C398      1.0  0.39828  0.81234  0.06621  1.0000
  H   H681      1.0  0.03787  0.69437  0.09952  1.0000
  S   S114      1.0  0.33388  0.97326  0.10925  1.0000
  S   S115      1.0  0.45696  0.87812  0.11021  1.0000
  C   C399      1.0  0.43626  0.79823  0.10627  1.0000
  H   H682      1.0  0.00794  0.71702  0.17250  1.0000
  Fe  Fe59      1.0  0.36237  0.97080  0.07369  1.0000
  C   C400      1.0  0.02833  0.70353  0.11819  1.0000
  S   S116      1.0  0.38258  0.94158  0.05567  1.0000
  H   H683      1.0  0.44270  0.84583  0.06451  1.0000
  H   H684      1.0  0.41081  0.91140  0.02319  1.0000
  C   C401      1.0  0.42441  0.82002  0.10997  1.0000
  H   H685      1.0  0.41435  0.86064  0.10079  1.0000
  H   H686      1.0  0.43626  0.83183  0.11969  1.0000
  H   H687      1.0  0.05363  0.72138  0.01948  1.0000
  C   C402      1.0  0.43787  0.89718  0.09382  1.0000
  C   C403      1.0  0.42669  0.91078  0.11593  1.0000
  C   C404      1.0  0.41021  0.92485  0.10472  1.0000
  C   C405      1.0  0.40418  0.92514  0.07124  1.0000
  C   C406      1.0  0.41534  0.91150  0.04911  1.0000
  C   C407      1.0  0.43224  0.89790  0.06014  1.0000
  H   H688      1.0  0.43070  0.91032  0.14209  1.0000
  H   H689      1.0  0.40182  0.93507  0.12221  1.0000
  C   C408      1.0  0.43274  0.98194  0.06083  1.0000
  H   H690      1.0  0.44059  0.88763  0.04272  1.0000
  S   S117      1.0  0.48986  0.82276  0.10775  1.0000
  S   S118      1.0  0.02390  0.68729  0.02588  1.0000
  H   H691      1.0  0.44074  0.81954  0.04794  1.0000
  H   H692      1.0  0.07925  0.80190  0.02721  1.0000
  S   S119      1.0  0.34348  0.98785  0.03290  1.0000
  H   H693      1.0  0.06473  0.86252  0.01043  1.0000
  S   S120      1.0  0.48672  0.84592  0.03488  1.0000
  N   N28       1.0  0.41359  0.82901  0.07915  1.0000
  H   H694      1.0  0.44158  0.96636  0.06202  1.0000
  H   H695      1.0  0.03054  0.69517  0.14256  1.0000
  H   H696      1.0  0.38928  0.84341  0.13970  1.0000
  C   C409      1.0  0.40132  0.99053  0.00218  1.0000
  C   C410      1.0  0.43115  0.83413  0.05397  1.0000
  H   H697      1.0  0.00984  0.74635  0.13830  1.0000
  H   H698      1.0  0.41474  0.85841  0.02168  1.0000
  H   H699      1.0  0.38988  0.80397  0.08744  1.0000
  H   H700      1.0  0.39410  0.97957  0.02132  1.0000
  H   H701      1.0  0.27438  0.99382  0.14781  1.0000
  C   C411      1.0  0.40257  0.84967  0.08922  1.0000
  C   C412      1.0  0.03832  0.72791  0.01150  1.0000
  Fe  Fe60      1.0  0.48380  0.85661  0.08796  1.0000
  H   H702      1.0  0.45027  0.79926  0.08908  1.0000
  C   C413      1.0  0.48526  0.71993  0.99961  1.0000
  H   H703      1.0  0.43876  0.99188  0.08151  1.0000
  C   C414      1.0  0.38360  0.84730  0.11421  1.0000
  H   H704      1.0  0.41250  0.81728  0.13045  1.0000
  H   H705      1.0  0.04058  0.84663  0.01619  1.0000
  H   H706      1.0  0.38172  0.83732  0.03393  1.0000
  C   C415      1.0  0.26262  0.98173  0.00638  1.0000
  H   H707      1.0  0.36429  0.81787  0.05379  1.0000
  S   S121      1.0  0.48029  0.78030  0.03971  1.0000
  H   H708      1.0  0.03513  0.71998  0.11899  1.0000
  H   H709      1.0  0.44279  0.79330  0.13089  1.0000
  C   C416      1.0  0.25854  0.99091  0.03746  1.0000
  H   H710      1.0  0.38079  0.81044  0.01936  1.0000
  C   C417      1.0  0.47837  0.73818  0.01771  1.0000
  H   H711      1.0  0.00423  0.70642  0.08085  1.0000
  H   H712      1.0  0.46384  0.73714  0.03276  1.0000
  H   H713      1.0  0.37513  0.86306  0.11586  1.0000
  H   H714      1.0  0.42538  0.78515  0.09844  1.0000
  C   C418      1.0  0.38047  0.82032  0.04221  1.0000
  H   H715      1.0  0.39655  0.85911  0.06767  1.0000
  H   H716      1.0  0.05493  0.81103  0.00814  1.0000
  H   H717      1.0  0.48773  0.77279  0.15038  1.0000
  H   H718      1.0  0.43884  0.84736  0.00503  1.0000
  H   H719      1.0  0.41544  0.97890  0.06572  1.0000
  H   H720      1.0  0.37160  0.83524  0.10659  1.0000
  H   H721      1.0  0.42264  0.95331  0.01864  1.0000
  C   C419      1.0  0.43692  0.99388  0.02728  1.0000
  C   C420      1.0  0.02012  0.71462  0.01190  1.0000
  H   H722      1.0  0.99844  0.68670  0.11135  1.0000
  H   H723      1.0  0.08803  0.83700  0.00730  1.0000
  C   C421      1.0  0.00445  0.70352  0.10799  1.0000
  C   C422      1.0  0.42414  0.84329  0.01989  1.0000
  H   H724      1.0  0.99856  0.73939  0.06541  1.0000
  H   H725      1.0  0.02251  0.74940  0.08477  1.0000
  H   H726      1.0  0.47603  0.70516  0.00091  1.0000
  H   H727      1.0  0.41534  0.83112  0.00545  1.0000
  C   C423      1.0  0.00040  0.72353  0.00118  1.0000
  H   H728      1.0  0.27885  0.97688  0.99985  1.0000
  H   H729      1.0  0.29057  0.98091  0.17863  1.0000
  Fe  Fe61      1.0  0.31640  0.99289  0.06989  1.0000
  C   C424      1.0  0.00462  0.74912  0.08595  1.0000
  C   C425      1.0  0.49000  0.75770  0.01639  1.0000
  H   H730      1.0  0.48369  0.75063  0.12336  1.0000
  H   H731      1.0  0.45468  0.99340  0.02284  1.0000
  C   C426      1.0  0.22015  0.99373  0.02278  1.0000
  C   C427      1.0  0.07195  0.80665  0.00306  1.0000
  C   C428      1.0  0.04988  0.85703  0.99844  1.0000
  C   C429      1.0  0.99649  0.74229  0.12119  1.0000
  C   C430      1.0  0.03716  0.74952  0.00079  1.0000
  H   H732      1.0  0.99948  0.76597  0.08057  1.0000
  S   S122      1.0  0.27917  0.99474  0.06773  1.0000
  H   H733      1.0  0.05160  0.75922  0.00079  1.0000
  C   C431      1.0  0.49466  0.76422  0.12864  1.0000
  H   H734      1.0  0.49482  0.77576  0.10739  1.0000
  H   H735      1.0  0.37357  0.97783  0.97572  1.0000
  C   C432      1.0  0.07226  0.81892  0.93124  1.0000
  H   H736      1.0  0.99810  0.95641  0.94150  1.0000
  H   H737      1.0  0.08355  0.86037  0.91979  1.0000
  S   S123      1.0  0.01862  0.89259  0.93660  1.0000
  H   H738      1.0  0.45233  0.99325  0.96552  1.0000
  N   N29       1.0  0.07483  0.83614  0.95717  1.0000
  Fe  Fe62      1.0  0.12511  0.96895  0.92362  1.0000
  S   S124      1.0  0.13737  0.97159  0.97597  1.0000
  S   S125      1.0  0.10969  0.93800  0.90355  1.0000
  N   N30       1.0  0.42496  0.98557  0.99747  1.0000
  H   H739      1.0  0.07935  0.83388  0.88216  1.0000
  H   H740      1.0  0.00020  0.76088  0.68676  1.0000
  S   S126      1.0  0.01867  0.78631  0.97614  1.0000
  S   S127      1.0  0.20340  0.97924  0.96237  1.0000
  H   H741      1.0  0.03993  0.92929  0.96372  1.0000
  H   H742      1.0  0.10569  0.84544  0.93576  1.0000
  C   C433      1.0  0.41847  0.94948  0.96703  1.0000
  Fe  Fe63      1.0  0.99688  0.81238  0.95291  1.0000
  C   C434      1.0  0.04427  0.90452  0.92722  1.0000
  C   C435      1.0  0.05831  0.89654  0.90280  1.0000
  C   C436      1.0  0.07820  0.90694  0.89600  1.0000
  C   C437      1.0  0.08437  0.92549  0.91335  1.0000
  C   C438      1.0  0.07035  0.93337  0.93787  1.0000
  C   C439      1.0  0.05049  0.92297  0.94468  1.0000
  H   H743      1.0  0.05370  0.88263  0.88870  1.0000
  H   H744      1.0  0.08881  0.90074  0.87684  1.0000
  H   H745      1.0  0.07481  0.94754  0.95156  1.0000
  H   H746      1.0  0.10224  0.86750  0.98929  1.0000
  H   H747      1.0  0.05215  0.83867  0.89705  1.0000
  S   S128      1.0  0.15625  0.98231  0.90132  1.0000
  C   C440      1.0  0.38680  0.98959  0.97110  1.0000
  H   H748      1.0  0.04830  0.85726  0.94463  1.0000
  H   H749      1.0  0.05980  0.81283  0.88175  1.0000
  H   H750      1.0  0.42392  0.93241  0.96819  1.0000
  C   C441      1.0  0.22417  0.98412  0.99200  1.0000
  H   H751      1.0  0.00172  0.98002  0.96563  1.0000
  S   S129      1.0  0.00563  0.82866  0.90373  1.0000
  H   H752      1.0  0.40069  0.94899  0.96992  1.0000
  H   H753      1.0  0.24896  0.97077  0.96036  1.0000
  C   C442      1.0  0.06548  0.82681  0.89621  1.0000
  H   H754      1.0  0.04044  0.83275  0.96434  1.0000
  H   H755      1.0  0.08750  0.80961  0.92800  1.0000
  H   H756      1.0  0.42324  0.95577  0.94209  1.0000
  H   H757      1.0  0.05987  0.80687  0.93934  1.0000
  H   H758      1.0  0.10117  0.81904  0.98059  1.0000
  Fe  Fe64      1.0  0.16734  0.98736  0.95416  1.0000
  C   C443      1.0  0.01781  0.75859  0.98965  1.0000
  C   C444      1.0  0.09004  0.85299  0.94298  1.0000
  H   H759      1.0  0.07246  0.79220  0.98715  1.0000
  C   C445      1.0  0.05292  0.84563  0.96464  1.0000
  H   H760      1.0  0.08069  0.88263  0.96890  1.0000
  C   C446      1.0  0.99866  0.96239  0.96733  1.0000
  H   H761      1.0  0.00149  0.92004  0.99002  1.0000
  C   C447      1.0  0.09510  0.87230  0.96516  1.0000
  C   C448      1.0  0.08492  0.82547  0.98721  1.0000
  H   H762      1.0  0.39484  0.98490  0.94771  1.0000
  H   H763      1.0  0.01260  0.95507  0.98034  1.0000
  H   H764      1.0  0.42847  0.99013  0.94355  1.0000
  C   C449      1.0  0.24556  0.97825  0.98400  1.0000
  H   H765      1.0  0.10717  0.88272  0.95204  1.0000
  H   H766      1.0  0.03979  0.87165  0.99460  1.0000
  Fe  Fe65      1.0  0.00047  0.86057  0.92957  1.0000
  C   C450      1.0  0.99927  0.74547  0.98998  1.0000
  H   H767      1.0  0.44654  0.95820  0.99490  1.0000
  C   C451      1.0  0.42891  0.96161  0.99582  1.0000
  H   H768      1.0  0.53614  0.27647  0.17074  1.0000
  H   H769      1.0  0.77437  0.01541  0.13472  1.0000
  H   H770      1.0  0.97144  0.16929  0.02565  1.0000
  S   S130      1.0  0.89425  0.02064  0.09674  1.0000
  H   H771      1.0  0.89064  0.01726  0.22178  1.0000
  H   H772      1.0  0.52360  0.05172  0.05455  1.0000
  H   H773      1.0  0.77305  0.03007  0.09639  1.0000
  S   S131      1.0  0.98738  0.14373  0.10062  1.0000
  H   H774      1.0  0.93012  0.22226  0.05667  1.0000
  H   H775      1.0  0.92025  0.07679  0.01598  1.0000
  H   H776      1.0  0.50882  0.00929  0.02397  1.0000
  S   S132      1.0  0.95467  0.09978  0.04728  1.0000
  Fe  Fe66      1.0  0.86925  0.99719  0.07517  1.0000
  H   H777      1.0  0.83902  0.99717  0.20951  1.0000
  H   H778      1.0  0.52090  0.25118  0.08855  1.0000
  H   H779      1.0  0.89410  0.14476  0.02491  1.0000
  H   H780      1.0  0.85703  0.02151  0.14834  1.0000
  C   C452      1.0  0.50552  0.26484  0.21198  1.0000
  H   H781      1.0  0.87274  0.01763  0.27724  1.0000
  C   C453      1.0  0.91147  0.04202  0.08163  1.0000
  C   C454      1.0  0.92771  0.04984  0.10254  1.0000
  C   C455      1.0  0.94135  0.06707  0.09231  1.0000
  C   C456      1.0  0.93878  0.07706  0.06106  1.0000
  C   C457      1.0  0.92252  0.06926  0.04017  1.0000
  C   C458      1.0  0.90910  0.05181  0.05019  1.0000
  H   H782      1.0  0.92976  0.04255  0.12694  1.0000
  H   H783      1.0  0.95362  0.07284  0.10883  1.0000
  H   H784      1.0  0.55567  0.04707  0.02442  1.0000
  H   H785      1.0  0.89671  0.04617  0.03376  1.0000
  H   H786      1.0  0.49680  0.23585  0.15181  1.0000
  H   H787      1.0  0.52764  0.01450  0.05693  1.0000
  C   C459      1.0  0.92784  0.21879  0.02992  1.0000
  H   H788      1.0  0.93493  0.15777  0.11177  1.0000
  S   S133      1.0  0.51657  0.28505  0.03057  1.0000
  H   H789      1.0  0.53311  0.28841  0.09646  1.0000
  Fe  Fe67      1.0  0.98596  0.11616  0.06464  1.0000
  H   H790      1.0  0.52566  0.22510  0.10545  1.0000
  C   C460      1.0  0.91055  0.14773  0.01463  1.0000
  H   H791      1.0  0.51787  0.27690  0.21864  1.0000
  C   C461      1.0  0.54802  0.04352  0.00016  1.0000
  H   H792      1.0  0.95427  0.14698  0.02582  1.0000
  C   C462      1.0  0.52597  0.28250  0.15000  1.0000
  N   N31       1.0  0.52436  0.04941  0.00092  1.0000
  H   H793      1.0  0.94243  0.14247  0.07654  1.0000
  H   H794      1.0  0.75430  0.00218  0.06832  1.0000
  H   H795      1.0  0.49904  0.23228  0.09505  1.0000
  C   C463      1.0  0.54111  0.28269  0.11939  1.0000
  H   H796      1.0  0.49920  0.27821  0.09578  1.0000
  H   H797      1.0  0.92139  0.13667  0.02825  1.0000
  C   C464      1.0  0.88126  0.00279  0.23012  1.0000
  H   H798      1.0  0.55450  0.29412  0.12376  1.0000
  C   C465      1.0  0.75505  0.00027  0.09585  1.0000
  C   C466      1.0  0.51409  0.23878  0.10567  1.0000
  Fe  Fe68      1.0  0.50240  0.31648  0.05160  1.0000
  H   H799      1.0  0.85300  0.99876  0.26452  1.0000
  N   N32       1.0  0.50554  0.26948  0.14758  1.0000
  C   C467      1.0  0.50517  0.25972  0.01943  1.0000
  H   H800      1.0  0.54606  0.00793  0.00761  1.0000
  H   H801      1.0  0.54862  0.26668  0.11555  1.0000
  H   H802      1.0  0.52203  0.29962  0.15576  1.0000
  H   H803      1.0  0.91504  0.15230  0.08149  1.0000
  C   C468      1.0  0.53698  0.08770  0.01708  1.0000
  H   H804      1.0  0.95958  0.20531  0.02587  1.0000
  C   C469      1.0  0.93835  0.17762  0.06703  1.0000
  H   H805      1.0  0.55434  0.08527  0.01146  1.0000
  H   H806      1.0  0.85984  0.03278  0.18907  1.0000
  C   C470      1.0  0.93233  0.15616  0.08459  1.0000
  C   C471      1.0  0.51042  0.24591  0.14214  1.0000
  H   H807      1.0  0.52482  0.24086  0.15662  1.0000
  H   H808      1.0  0.92691  0.18953  0.07760  1.0000
  H   H809      1.0  0.95465  0.18237  0.07580  1.0000
  H   H810      1.0  0.91070  0.21530  0.02496  1.0000
  S   S134      1.0  0.79373  0.00189  0.02161  1.0000
  H   H811      1.0  0.53376  0.08533  0.04408  1.0000
  C   C472      1.0  0.85058  0.02116  0.17428  1.0000
  H   H812      1.0  0.49803  0.05152  0.03728  1.0000
  C   C473      1.0  0.77439  0.01356  0.10734  1.0000
  H   H813      1.0  0.53363  0.10491  0.01114  1.0000
  C   C474      1.0  0.51834  0.24431  0.00371  1.0000
  C   C475      1.0  0.91585  0.17211  0.01687  1.0000
  H   H814      1.0  0.83361  0.02680  0.17308  1.0000
  C   C476      1.0  0.51430  0.04408  0.03442  1.0000
  H   H815      1.0  0.78994  0.00715  0.09815  1.0000
  H   H816      1.0  0.90307  0.17960  0.03260  1.0000
  H   H817      1.0  0.89103  0.01098  0.16611  1.0000
  H   H818      1.0  0.85488  0.02486  0.24457  1.0000
  H   H819      1.0  0.51299  0.24868  0.20983  1.0000
  C   C477      1.0  0.94312  0.20077  0.01792  1.0000
  C   C478      1.0  0.95558  0.16376  0.01633  1.0000
  N   N33       1.0  0.93783  0.17805  0.02946  1.0000
  C   C479      1.0  0.86430  0.01127  0.25523  1.0000
  H   H820      1.0  0.74064  0.00880  0.10578  1.0000
  H   H821      1.0  0.53512  0.24800  0.99880  1.0000
  C   C480      1.0  0.51264  0.02008  0.04466  1.0000
  H   H822      1.0  0.93197  0.23395  0.01613  1.0000
  C   C481      1.0  0.85124  0.99805  0.18917  1.0000
  H   H823      1.0  0.49900  0.01798  0.06259  1.0000
  C   C482      1.0  0.75673  0.02045  0.99859  1.0000
  H   H824      1.0  0.76521  0.03538  0.00277  1.0000
  C   C483      1.0  0.76715  0.00078  0.00468  1.0000
  H   H825      1.0  0.50561  0.07910  0.00012  1.0000
  H   H826      1.0  0.55068  0.16127  0.84021  1.0000
  C   C484      1.0  0.51001  0.22419  0.99392  1.0000
  S   S135      1.0  0.58902  0.01816  0.91021  1.0000
  H   H827      1.0  0.55676  0.05362  0.98125  1.0000
  H   H828      1.0  0.56528  0.13425  0.80150  1.0000
  Fe  Fe69      1.0  0.51423  0.12494  0.93424  1.0000
  H   H829      1.0  0.53922  0.11967  0.74135  1.0000
  S   S136      1.0  0.54935  0.11282  0.93190  1.0000
  H   H830      1.0  0.51692  0.14256  0.84344  1.0000
  H   H831      1.0  0.57196  0.07905  0.84173  1.0000
  H   H832      1.0  0.50660  0.13128  0.79056  1.0000
  H   H833      1.0  0.96888  0.14934  0.97156  1.0000
  H   H834      1.0  0.91356  0.17902  0.99134  1.0000
  C   C485      1.0  0.55402  0.02010  0.99137  1.0000
  N   N34       1.0  0.53499  0.11866  0.81524  1.0000
  C   C486      1.0  0.51291  0.03867  0.97273  1.0000
  H   H835      1.0  0.50949  0.32145  0.95813  1.0000
  H   H836      1.0  0.51386  0.02087  0.97448  1.0000
  C   C487      1.0  0.55374  0.11995  0.75717  1.0000
  C   C488      1.0  0.70889  0.00625  0.87737  1.0000
  H   H837      1.0  0.55064  0.01670  0.96486  1.0000
  H   H838      1.0  0.56037  0.10346  0.76032  1.0000
  C   C489      1.0  0.57871  0.04478  0.91624  1.0000
  C   C490      1.0  0.55758  0.04953  0.90588  1.0000
  C   C491      1.0  0.54831  0.07009  0.91074  1.0000
  C   C492      1.0  0.56017  0.08642  0.92566  1.0000
  C   C493      1.0  0.58144  0.08183  0.93544  1.0000
  C   C494      1.0  0.59059  0.06113  0.93109  1.0000
  H   H839      1.0  0.54824  0.03709  0.89422  1.0000
  H   H840      1.0  0.53201  0.07331  0.90287  1.0000
  H   H841      1.0  0.59089  0.09432  0.94676  1.0000
  H   H842      1.0  0.60687  0.05787  0.93907  1.0000
  C   C495      1.0  0.54925  0.13090  0.79081  1.0000
  H   H843      1.0  0.56900  0.10460  0.86035  1.0000
  H   H844      1.0  0.56540  0.13904  0.85861  1.0000
  H   H845      1.0  0.52718  0.12111  0.86807  1.0000
  H   H846      1.0  0.57908  0.10247  0.81782  1.0000
  H   H847      1.0  0.52590  0.07801  0.96910  1.0000
  H   H848      1.0  0.72775  0.03675  0.98349  1.0000
  H   H849      1.0  0.51510  0.10558  0.77610  1.0000
  H   H850      1.0  0.56603  0.12953  0.74309  1.0000
  H   H851      1.0  0.52106  0.04279  0.94863  1.0000
  S   S137      1.0  0.69627  0.00555  0.96912  1.0000
  C   C496      1.0  0.56737  0.09610  0.83654  1.0000
  H   H852      1.0  0.54208  0.14703  0.78517  1.0000
  H   H853      1.0  0.94212  0.15921  0.96595  1.0000
  H   H854      1.0  0.54580  0.15307  0.88240  1.0000
  H   H855      1.0  0.54322  0.08584  0.80235  1.0000
  C   C497      1.0  0.54405  0.09674  0.82404  1.0000
  C   C498      1.0  0.52241  0.07351  0.99549  1.0000
  C   C499      1.0  0.73533  0.02123  0.98769  1.0000
  H   H856      1.0  0.96469  0.17761  0.96718  1.0000
  C   C500      1.0  0.53122  0.13177  0.84632  1.0000
  H   H857      1.0  0.69884  0.01426  0.89663  1.0000
  S   S138      1.0  0.49859  0.13194  0.98381  1.0000
  H   H858      1.0  0.94331  0.20210  0.99026  1.0000
  C   C501      1.0  0.51347  0.11546  0.79884  1.0000
  Fe  Fe70      1.0  0.61895  0.99763  0.92371  1.0000
  H   H859      1.0  0.52037  0.21263  0.98171  1.0000
  H   H860      1.0  0.53415  0.08878  0.84396  1.0000
  C   C502      1.0  0.72359  0.00237  0.98237  1.0000
  C   C503      1.0  0.54950  0.14697  0.85711  1.0000
  H   H861      1.0  0.72465  0.01458  0.87709  1.0000
  H   H862      1.0  0.50080  0.31041  0.92020  1.0000
  S   S139      1.0  0.99086  0.27306  0.94460  1.0000
  S   S140      1.0  0.50236  0.15674  0.91271  1.0000
  S   S141      1.0  0.65214  0.99752  0.89945  1.0000
  H   H863      1.0  0.51131  0.29336  0.95337  1.0000
  H   H864      1.0  0.50007  0.08685  0.82533  1.0000
  C   C504      1.0  0.95764  0.16262  0.97804  1.0000
  H   H865      1.0  0.70053  0.00886  0.85340  1.0000
  H   H866      1.0  0.91004  0.14273  0.98821  1.0000
  C   C505      1.0  0.50097  0.30751  0.94737  1.0000
  C   C506      1.0  0.49607  0.10403  0.82043  1.0000
  H   H867      1.0  0.99223  0.22666  0.94099  1.0000
  H   H868      1.0  0.57169  0.01793  0.99424  1.0000
  C   C507      1.0  0.71751  0.50400  0.16570  1.0000
  S   S142      1.0  0.87388  0.62536  0.35359  1.0000
  C   C508      1.0  0.73425  0.49331  0.02416  1.0000
  Fe  Fe71      1.0  0.89585  0.64096  0.31483  1.0000
  S   S143      1.0  0.92148  0.62168  0.28696  1.0000
  H   H869      1.0  0.98578  0.35476  0.07905  1.0000
  H   H870      1.0  0.94409  0.39575  0.05548  1.0000
  C   C509      1.0  0.86904  0.64609  0.47186  1.0000
  H   H871      1.0  0.55827  0.52110  0.00169  1.0000
  Fe  Fe72      1.0  0.69892  0.64126  0.33692  1.0000
  S   S144      1.0  0.69943  0.60717  0.35642  1.0000
  C   C510      1.0  0.63820  0.60638  0.48173  1.0000
  Fe  Fe73      1.0  0.65033  0.64349  0.33867  1.0000
  S   S145      1.0  0.64650  0.60938  0.35796  1.0000
  Fe  Fe74      1.0  0.67351  0.61778  0.39240  1.0000
  S   S146      1.0  0.67680  0.61149  0.44818  1.0000
  Fe  Fe75      1.0  0.67250  0.60141  0.32002  1.0000
  S   S147      1.0  0.67280  0.57012  0.29012  1.0000
  C   C511      1.0  0.58652  0.47782  0.99924  1.0000
  S   S148      1.0  0.67402  0.63501  0.29818  1.0000
  Fe  Fe76      1.0  0.98283  0.64087  0.11006  1.0000
  C   C512      1.0  0.60491  0.64563  0.42451  1.0000
  H   H872      1.0  0.52852  0.47442  0.05529  1.0000
  Fe  Fe77      1.0  0.96926  0.62465  0.04227  1.0000
  H   H873      1.0  0.94243  0.57698  0.11875  1.0000
  S   S149      1.0  0.97791  0.60769  0.08986  1.0000
  Fe  Fe78      1.0  0.63161  0.48344  0.08651  1.0000
  S   S150      1.0  0.64661  0.48365  0.03513  1.0000
  S   S151      1.0  0.60734  0.45975  0.11128  1.0000
  Fe  Fe79      1.0  0.65049  0.52855  0.10205  1.0000
  S   S152      1.0  0.66566  0.53225  0.05094  1.0000
  S   S153      1.0  0.65039  0.55741  0.13671  1.0000
  Fe  Fe80      1.0  0.63489  0.51808  0.03200  1.0000
  H   H874      1.0  0.83208  0.58746  0.42457  1.0000
  Fe  Fe81      1.0  0.67656  0.49787  0.05808  1.0000
  S   S154      1.0  0.71201  0.48705  0.05172  1.0000
  S   S155      1.0  0.61888  0.51728  0.08209  1.0000
  S   S156      1.0  0.66245  0.49480  0.11052  1.0000
  Fe  Fe82      1.0  0.51441  0.36512  0.06644  1.0000
  N   N35       1.0  0.73185  0.53263  0.12295  1.0000
  S   S157      1.0  0.54101  0.39020  0.05315  1.0000
  C   C513      1.0  0.58927  0.44020  0.09468  1.0000
  C   C514      1.0  0.57341  0.43078  0.11572  1.0000
  C   C515      1.0  0.55866  0.41540  0.10372  1.0000
  C   C516      1.0  0.55946  0.40919  0.07032  1.0000
  C   C517      1.0  0.57527  0.41871  0.04928  1.0000
  C   C518      1.0  0.59014  0.43392  0.06135  1.0000
  H   H875      1.0  0.57258  0.43530  0.14160  1.0000
  H   H876      1.0  0.54670  0.40831  0.12035  1.0000
  H   H877      1.0  0.57625  0.41400  0.02347  1.0000
  H   H878      1.0  0.60245  0.44057  0.04492  1.0000
  H   H879      1.0  0.77582  0.60430  0.31379  1.0000
  H   H880      1.0  0.58544  0.61538  0.46457  1.0000
  C   C519      1.0  0.59388  0.56029  0.02274  1.0000
  C   C520      1.0  0.57801  0.57627  0.02650  1.0000
  H   H881      1.0  0.60508  0.55706  0.04264  1.0000
  H   H882      1.0  0.57702  0.58518  0.04943  1.0000
  H   H883      1.0  0.57815  0.49660  0.09977  1.0000
  H   H884      1.0  0.89569  0.59066  0.09844  1.0000
  H   H885      1.0  0.82268  0.58016  0.38451  1.0000
  S   S158      1.0  0.96751  0.65763  0.15453  1.0000
  H   H886      1.0  0.83000  0.63775  0.40875  1.0000
  H   H887      1.0  0.63531  0.59309  0.46524  1.0000
  C   C521      1.0  0.93108  0.57680  0.03796  1.0000
  C   C522      1.0  0.92114  0.55646  0.03758  1.0000
  H   H888      1.0  0.94206  0.58071  0.05759  1.0000
  H   H889      1.0  0.92443  0.54477  0.05716  1.0000
  H   H890      1.0  0.78783  0.48025  0.01408  1.0000
  H   H891      1.0  0.61660  0.54189  0.27863  1.0000
  H   H892      1.0  0.93328  0.59177  0.17435  1.0000
  C   C523      1.0  0.77428  0.62151  0.31708  1.0000
  H   H893      1.0  0.73611  0.55718  0.19951  1.0000
  C   C524      1.0  0.65807  0.56086  0.17879  1.0000
  C   C525      1.0  0.65390  0.58074  0.19395  1.0000
  C   C526      1.0  0.65875  0.58400  0.22773  1.0000
  C   C527      1.0  0.66776  0.56733  0.24687  1.0000
  C   C528      1.0  0.67222  0.54751  0.23156  1.0000
  C   C529      1.0  0.66757  0.54433  0.19764  1.0000
  H   H894      1.0  0.64664  0.59369  0.17959  1.0000
  H   H895      1.0  0.65522  0.59932  0.23910  1.0000
  H   H896      1.0  0.67927  0.53454  0.24613  1.0000
  H   H897      1.0  0.67106  0.52907  0.18622  1.0000
  H   H898      1.0  0.76474  0.62683  0.38782  1.0000
  S   S159      1.0  0.54496  0.60224  0.00606  1.0000
  C   C530      1.0  0.87140  0.62373  0.46982  1.0000
  C   C531      1.0  0.90732  0.55096  0.01162  1.0000
  H   H899      1.0  0.87717  0.61670  0.44689  1.0000
  C   C532      1.0  0.93417  0.63183  0.25014  1.0000
  C   C533      1.0  0.94783  0.61828  0.23162  1.0000
  C   C534      1.0  0.95807  0.62580  0.20210  1.0000
  C   C535      1.0  0.95489  0.64705  0.19108  1.0000
  H   H900      1.0  0.90964  0.57637  0.17667  1.0000
  H   H901      1.0  0.78782  0.60197  0.49268  1.0000
  H   H902      1.0  0.95057  0.60192  0.24031  1.0000
  H   H903      1.0  0.96869  0.61529  0.18827  1.0000
  C   C536      1.0  0.74176  0.54731  0.14823  1.0000
  C   C537      1.0  0.79278  0.63432  0.31893  1.0000
  C   C538      1.0  0.75375  0.63084  0.31979  1.0000
  H   H904      1.0  0.88359  0.62132  0.21970  1.0000
  H   H905      1.0  0.81210  0.63310  0.47924  1.0000
  C   C539      1.0  0.73185  0.50951  0.13523  1.0000
  C   C540      1.0  0.91577  0.63961  0.10940  1.0000
  H   H906      1.0  0.73956  0.62084  0.31838  1.0000
  C   C541      1.0  0.87247  0.58260  0.13736  1.0000
  H   H907      1.0  0.91266  0.65111  0.12979  1.0000
  H   H908      1.0  0.71279  0.56141  0.07068  1.0000
  C   C542      1.0  0.65657  0.61915  0.47703  1.0000
  S   S160      1.0  0.81815  0.62182  0.31734  1.0000
  C   C543      1.0  0.77814  0.62836  0.43829  1.0000
  C   C544      1.0  0.91973  0.58592  0.15896  1.0000
  H   H909      1.0  0.57848  0.63276  0.39207  1.0000
  H   H910      1.0  0.71574  0.57428  0.11064  1.0000
  H   H911      1.0  0.55475  0.47934  0.10243  1.0000
  C   C545      1.0  0.56036  0.49618  0.09868  1.0000
  H   H912      1.0  0.75579  0.53929  0.16028  1.0000
  H   H913      1.0  0.55311  0.46032  0.05270  1.0000
  S   S161      1.0  0.94018  0.61709  0.01102  1.0000
  H   H914      1.0  0.53467  0.50988  0.07071  1.0000
  H   H915      1.0  0.56617  0.48956  0.18346  1.0000
  H   H916      1.0  0.74833  0.50429  0.14237  1.0000
  H   H917      1.0  0.79535  0.60792  0.38348  1.0000
  H   H918      1.0  0.87898  0.57063  0.15522  1.0000
  C   C546      1.0  0.94133  0.66061  0.20967  1.0000
  S   S162      1.0  0.50395  0.34707  0.02112  1.0000
  H   H919      1.0  0.98002  0.43144  0.03127  1.0000
  H   H920      1.0  0.83549  0.60547  0.38886  1.0000
  H   H921      1.0  0.88039  0.61221  0.11289  1.0000
  H   H922      1.0  0.97295  0.41738  0.06858  1.0000
  H   H923      1.0  0.77738  0.53085  0.11456  1.0000
  H   H924      1.0  0.55433  0.50562  0.12013  1.0000
  H   H925      1.0  0.72361  0.51153  0.18858  1.0000
  H   H926      1.0  0.72692  0.49861  0.11492  1.0000
  H   H927      1.0  0.77729  0.52859  0.07010  1.0000
  H   H928      1.0  0.61665  0.65623  0.41112  1.0000
  H   H929      1.0  0.83033  0.61629  0.45813  1.0000
  H   H930      1.0  0.75599  0.47205  0.05037  1.0000
  H   H931      1.0  0.57252  0.46788  0.21075  1.0000
  H   H932      1.0  0.76934  0.61360  0.44674  1.0000
  C   C547      1.0  0.88955  0.59791  0.12196  1.0000
  C   C548      1.0  0.92919  0.56976  0.13390  1.0000
  H   H933      1.0  0.97334  0.36291  0.02079  1.0000
  H   H934      1.0  0.71274  0.54548  0.18258  1.0000
  H   H935      1.0  0.92845  0.60823  0.10023  1.0000
  H   H936      1.0  0.63506  0.52082  0.26977  1.0000
  H   H937      1.0  0.58548  0.47995  0.05197  1.0000
  C   C549      1.0  0.70709  0.56164  0.09698  1.0000
  H   H938      1.0  0.90335  0.60069  0.21806  1.0000
  H   H939      1.0  0.85930  0.59186  0.14951  1.0000
  H   H940      1.0  0.70236  0.52723  0.09639  1.0000
  C   C550      1.0  0.72672  0.55573  0.17625  1.0000
  H   H941      1.0  0.86543  0.57282  0.11727  1.0000
  H   H942      1.0  0.88686  0.63054  0.16169  1.0000
  H   H943      1.0  0.69805  0.53899  0.13534  1.0000
  H   H944      1.0  0.64838  0.46688  0.19961  1.0000
  H   H945      1.0  0.70035  0.50798  0.16169  1.0000
  H   H946      1.0  0.59783  0.61312  0.40657  1.0000
  C   C551      1.0  0.61812  0.52608  0.26614  1.0000
  C   C552      1.0  0.81266  0.64160  0.41281  1.0000
  H   H947      1.0  0.60690  0.51468  0.27888  1.0000
  C   C553      1.0  0.92356  0.61746  0.12264  1.0000
  C   C554      1.0  0.82449  0.59391  0.40163  1.0000
  C   C555      1.0  0.59551  0.63017  0.39847  1.0000
  C   C556      1.0  0.76830  0.52431  0.09340  1.0000
  N   N36       1.0  0.90768  0.60482  0.14405  1.0000
  H   H948      1.0  0.80585  0.58409  0.47021  1.0000
  C   C557      1.0  0.56917  0.64670  0.45501  1.0000
  H   H949      1.0  0.86843  0.59312  0.49598  1.0000
  H   H950      1.0  0.59809  0.53910  0.22786  1.0000
  H   H951      1.0  0.68982  0.56632  0.09642  1.0000
  C   C558      1.0  0.89953  0.61941  0.17128  1.0000
  H   H952      1.0  0.74722  0.55062  0.08222  1.0000
  H   H953      1.0  0.92874  0.64683  0.09357  1.0000
  H   H954      1.0  0.55993  0.52267  0.06301  1.0000
  H   H955      1.0  0.55925  0.64207  0.43361  1.0000
  H   H956      1.0  0.93868  0.62042  0.13652  1.0000
  H   H957      1.0  0.91670  0.56308  0.11749  1.0000
  C   C559      1.0  0.54747  0.50696  0.00580  1.0000
  H   H958      1.0  0.74836  0.56201  0.13549  1.0000
  H   H959      1.0  0.59665  0.54848  0.17201  1.0000
  C   C560      1.0  0.74530  0.53368  0.09129  1.0000
  H   H960      1.0  0.72104  0.57233  0.17030  1.0000
  H   H961      1.0  0.58782  0.50522  0.03100  1.0000
  C   C561      1.0  0.52433  0.51592  0.00901  1.0000
  H   H962      1.0  0.73709  0.52518  0.07082  1.0000
  H   H963      1.0  0.59070  0.47427  0.17776  1.0000
  C   C562      1.0  0.70925  0.53918  0.11371  1.0000
  H   H964      1.0  0.76804  0.50642  0.09483  1.0000
  H   H965      1.0  0.71816  0.48630  0.17026  1.0000
  H   H966      1.0  0.80660  0.64406  0.38705  1.0000
  H   H967      1.0  0.55828  0.65719  0.46999  1.0000
  N   N37       1.0  0.80141  0.62316  0.43062  1.0000
  C   C563      1.0  0.54309  0.47242  0.03916  1.0000
  Fe  Fe83      1.0  0.84748  0.64221  0.32572  1.0000
  H   H968      1.0  0.98192  0.38232  0.08994  1.0000
  N   N38       1.0  0.58914  0.65898  0.44442  1.0000
  H   H969      1.0  0.57611  0.52771  0.17489  1.0000
  H   H970      1.0  0.93631  0.55596  0.14792  1.0000
  C   C564      1.0  0.81291  0.61881  0.46283  1.0000
  H   H971      1.0  0.62024  0.46218  0.20250  1.0000
  C   C565      1.0  0.93086  0.65300  0.23887  1.0000
  C   C566      1.0  0.98596  0.56647  0.01048  1.0000
  S   S163      1.0  0.89614  0.52485  0.01138  1.0000
  C   C567      1.0  0.55205  0.50657  0.06602  1.0000
  H   H972      1.0  0.91272  0.63001  0.17991  1.0000
  H   H973      1.0  0.59021  0.53313  0.13648  1.0000
  H   H974      1.0  0.57771  0.50906  0.22749  1.0000
  H   H975      1.0  0.91968  0.41691  0.02438  1.0000
  H   H976      1.0  0.79154  0.59063  0.41842  1.0000
  C   C568      1.0  0.97662  0.36966  0.07276  1.0000
  H   H977      1.0  0.59371  0.48794  0.24447  1.0000
  H   H978      1.0  0.90143  0.63829  0.09342  1.0000
  C   C569      1.0  0.75167  0.65303  0.32430  1.0000
  C   C570      1.0  0.79073  0.65657  0.32300  1.0000
  H   H979      1.0  0.87742  0.59701  0.19876  1.0000
  C   C571      1.0  0.92710  0.59186  0.01250  1.0000
  H   H980      1.0  0.63192  0.47725  0.16733  1.0000
  C   C572      1.0  0.75442  0.48349  0.02992  1.0000
  C   C573      1.0  0.89043  0.60864  0.20340  1.0000
  C   C574      1.0  0.80205  0.60379  0.40837  1.0000
  N   N39       1.0  0.61056  0.50877  0.20898  1.0000
  C   C575      1.0  0.61300  0.52913  0.22885  1.0000
  C   C576      1.0  0.60963  0.51546  0.17272  1.0000
  C   C577      1.0  0.63036  0.49512  0.21470  1.0000
  C   C578      1.0  0.59048  0.49715  0.22099  1.0000
  C   C579      1.0  0.59199  0.53211  0.16394  1.0000
  C   C580      1.0  0.63243  0.47431  0.19457  1.0000
  C   C581      1.0  0.57980  0.48154  0.19638  1.0000
  H   H981      1.0  0.62585  0.53961  0.21789  1.0000
  H   H982      1.0  0.60736  0.50161  0.15611  1.0000
  H   H983      1.0  0.62534  0.52249  0.16448  1.0000
  H   H984      1.0  0.64514  0.50476  0.20944  1.0000
  H   H985      1.0  0.63139  0.48981  0.24124  1.0000
  H   H986      1.0  0.96747  0.54325  0.04217  1.0000
  C   C582      1.0  0.98096  0.37567  0.03586  1.0000
  H   H987      1.0  0.94358  0.43290  0.02484  1.0000
  H   H988      1.0  0.60473  0.63206  0.37472  1.0000
  N   N40       1.0  0.55516  0.49346  0.03491  1.0000
  C   C583      1.0  0.80460  0.59945  0.48379  1.0000
  N   N41       1.0  0.97308  0.39764  0.02471  1.0000
  C   C584      1.0  0.57904  0.48960  0.03078  1.0000
  C   C585      1.0  0.98315  0.55172  0.04159  1.0000
  H   H989      1.0  0.97342  0.57917  0.01251  1.0000
  H   H990      1.0  0.94172  0.38336  0.01604  1.0000
  S   S164      1.0  0.97169  0.65777  0.06339  1.0000
  H   H991      1.0  0.74817  0.64041  0.41728  1.0000
  H   H992      1.0  0.95936  0.36594  0.07741  1.0000
  S   S165      1.0  0.67533  0.65220  0.37552  1.0000
  C   C586      1.0  0.57309  0.62598  0.47590  1.0000
  C   C587      1.0  0.93672  0.41767  0.01566  1.0000
  H   H993      1.0  0.61486  0.63546  0.44151  1.0000
  C   C588      1.0  0.53506  0.46153  0.00730  1.0000
  C   C589      1.0  0.77258  0.48813  0.00933  1.0000
  C   C590      1.0  0.56378  0.58121  0.00055  1.0000
  S   S166      1.0  0.51571  0.33380  0.09595  1.0000
  H   H994      1.0  0.55788  0.61661  0.47784  1.0000
  H   H995      1.0  0.52903  0.44514  0.01406  1.0000
  H   H996      1.0  0.67492  0.64549  0.49639  1.0000
  C   C591      1.0  0.94882  0.39751  0.02877  1.0000
  S   S167      1.0  0.86909  0.65569  0.28518  1.0000
  Fe  Fe84      1.0  0.87617  0.65602  0.38241  1.0000
  H   H997      1.0  0.60523  0.65186  0.49090  1.0000
  H   H998      1.0  0.52401  0.53040  0.02496  1.0000
  C   C592      1.0  0.76514  0.63794  0.40909  1.0000
  H   H999      1.0  0.77658  0.63948  0.45963  1.0000
  H   H1000     1.0  0.58183  0.46061  0.00014  1.0000
  C   C593      1.0  0.98219  0.41578  0.04478  1.0000
  H   H1001     1.0  0.98357  0.56182  0.06414  1.0000
  H   H1002     1.0  0.51286  0.50379  0.01926  1.0000
  H   H1003     1.0  0.77136  0.65387  0.40060  1.0000
  H   H1004     1.0  0.60441  0.47798  0.99827  1.0000
  Fe  Fe85      1.0  0.84142  0.61232  0.61375  1.0000
  S   S168      1.0  0.83281  0.64646  0.62532  1.0000
  S   S169      1.0  0.85267  0.60171  0.56202  1.0000
  Fe  Fe86      1.0  0.82754  0.59563  0.68405  1.0000
  S   S170      1.0  0.81719  0.62876  0.69975  1.0000
  S   S171      1.0  0.82165  0.56612  0.71850  1.0000
  Fe  Fe87      1.0  0.80286  0.63273  0.64908  1.0000
  C   C594      1.0  0.57217  0.65844  0.75600  1.0000
  Fe  Fe88      1.0  0.84783  0.63995  0.67486  1.0000
  S   S172      1.0  0.81030  0.59870  0.63462  1.0000
  S   S173      1.0  0.85934  0.60660  0.66201  1.0000
  H   H1005     1.0  0.66713  0.58554  0.53153  1.0000
  S   S174      1.0  0.62023  0.63198  0.66316  1.0000
  C   C595      1.0  0.75076  0.51261  0.97684  1.0000
  H   H1006     1.0  0.58515  0.64655  0.92248  1.0000
  C   C596      1.0  0.60022  0.64220  0.90880  1.0000
  Fe  Fe89      1.0  0.62061  0.64745  0.61180  1.0000
  S   S175      1.0  0.60991  0.63050  0.56497  1.0000
  Fe  Fe90      1.0  0.86892  0.47130  0.93131  1.0000
  H   H1007     1.0  0.51863  0.52123  0.98406  1.0000
  S   S176      1.0  0.88067  0.43601  0.92761  1.0000
  Fe  Fe91      1.0  0.86360  0.51511  0.89513  1.0000
  S   S177      1.0  0.85012  0.53100  0.94090  1.0000
  S   S178      1.0  0.87266  0.53538  0.84884  1.0000
  Fe  Fe92      1.0  0.87564  0.51292  0.96892  1.0000
  H   H1008     1.0  0.58456  0.62763  0.74109  1.0000
  Fe  Fe93      1.0  0.82947  0.50120  0.94786  1.0000
  S   S179      1.0  0.79313  0.50904  0.95488  1.0000
  S   S180      1.0  0.89108  0.49938  0.92288  1.0000
  S   S181      1.0  0.84204  0.48610  0.90030  1.0000
  Fe  Fe94      1.0  0.52529  0.61764  0.96471  1.0000
  S   S182      1.0  0.51103  0.60089  0.92115  1.0000
  H   H1009     1.0  0.60106  0.59152  0.94363  1.0000
  Fe  Fe95      1.0  0.52247  0.62973  0.89068  1.0000
  S   S183      1.0  0.53950  0.61997  0.84220  1.0000
  H   H1010     1.0  0.90970  0.59817  0.96722  1.0000
  H   H1011     1.0  0.73082  0.65085  0.56817  1.0000
  H   H1012     1.0  0.98233  0.60153  0.92517  1.0000
  S   S184      1.0  0.97090  0.38665  0.90426  1.0000
  H   H1013     1.0  0.93966  0.53331  0.93844  1.0000
  C   C597      1.0  0.58463  0.58509  0.88013  1.0000
  H   H1014     1.0  0.55405  0.57312  0.95106  1.0000
  H   H1015     1.0  0.58219  0.54471  0.94431  1.0000
  C   C598      1.0  0.90648  0.42297  0.92448  1.0000
  C   C599      1.0  0.92542  0.43415  0.91603  1.0000
  C   C600      1.0  0.94494  0.42280  0.91054  1.0000
  C   C601      1.0  0.94611  0.40017  0.91436  1.0000
  C   C602      1.0  0.92742  0.38912  0.92439  1.0000
  C   C603      1.0  0.90776  0.40041  0.92894  1.0000
  H   H1016     1.0  0.92488  0.45146  0.91258  1.0000
  H   H1017     1.0  0.96633  0.52301  0.93393  1.0000
  H   H1018     1.0  0.92785  0.37176  0.92724  1.0000
  H   H1019     1.0  0.89330  0.39149  0.93543  1.0000
  H   H1020     1.0  0.71736  0.51582  0.99265  1.0000
  C   C604      1.0  0.62481  0.61291  0.89299  1.0000
  H   H1021     1.0  0.50293  0.63882  0.79300  1.0000
  H   H1022     1.0  0.85131  0.64867  0.55289  1.0000
  N   N42       1.0  0.60280  0.61799  0.90734  1.0000
  C   C605      1.0  0.73264  0.50807  0.99755  1.0000
  H   H1023     1.0  0.81477  0.59767  0.50631  1.0000
  C   C606      1.0  0.91287  0.58656  0.98698  1.0000
  H   H1024     1.0  0.95784  0.53487  0.99155  1.0000
  H   H1025     1.0  0.54778  0.45940  0.98820  1.0000
  H   H1026     1.0  0.56915  0.61432  0.89573  1.0000
  C   C607      1.0  0.57508  0.63615  0.75945  1.0000
  C   C608      1.0  0.55247  0.63545  0.81009  1.0000
  C   C609      1.0  0.77090  0.50266  0.98241  1.0000
  H   H1027     1.0  0.95945  0.58591  0.93761  1.0000
  H   H1028     1.0  0.84808  0.59229  0.90240  1.0000
  H   H1029     1.0  0.73521  0.61221  0.56857  1.0000
  H   H1030     1.0  0.71567  0.59195  0.53110  1.0000
  C   C610      1.0  0.62831  0.62632  0.53163  1.0000
  H   H1031     1.0  0.70287  0.64953  0.57824  1.0000
  H   H1032     1.0  0.64603  0.59173  0.92260  1.0000
  H   H1033     1.0  0.58123  0.48584  0.97590  1.0000
  C   C611      1.0  0.74820  0.64584  0.65310  1.0000
  C   C612      1.0  0.74510  0.62670  0.67137  1.0000
  C   C613      1.0  0.72426  0.62081  0.68219  1.0000
  C   C614      1.0  0.70653  0.63404  0.67480  1.0000
  Fe  Fe96      1.0  0.99090  0.35595  0.91726  1.0000
  H   H1034     1.0  0.65892  0.58548  0.58708  1.0000
  H   H1035     1.0  0.75870  0.61633  0.67680  1.0000
  H   H1036     1.0  0.72184  0.60588  0.69602  1.0000
  N   N43       1.0  0.98476  0.55549  0.97732  1.0000
  H   H1037     1.0  0.74333  0.58138  0.59540  1.0000
  C   C615      1.0  0.85819  0.54355  0.81269  1.0000
  C   C616      1.0  0.86490  0.56210  0.79482  1.0000
  C   C617      1.0  0.85398  0.56923  0.76600  1.0000
  C   C618      1.0  0.83632  0.55769  0.75436  1.0000
  C   C619      1.0  0.82980  0.53894  0.77199  1.0000
  C   C620      1.0  0.84063  0.53190  0.80096  1.0000
  H   H1038     1.0  0.87859  0.57115  0.80339  1.0000
  H   H1039     1.0  0.85927  0.58363  0.75270  1.0000
  H   H1040     1.0  0.81623  0.52982  0.76314  1.0000
  H   H1041     1.0  0.83549  0.51742  0.81403  1.0000
  C   C621      1.0  0.61471  0.61821  0.96876  1.0000
  C   C622      1.0  0.85911  0.61924  0.52787  1.0000
  H   H1042     1.0  0.57775  0.62972  0.50179  1.0000
  C   C623      1.0  0.59978  0.65445  0.87500  1.0000
  H   H1043     1.0  0.97445  0.60072  0.96793  1.0000
  H   H1044     1.0  0.64949  0.65250  0.54327  1.0000
  H   H1045     1.0  0.58634  0.61664  0.85997  1.0000
  H   H1046     1.0  0.73058  0.55690  0.60801  1.0000
  H   H1047     1.0  0.64422  0.58488  0.88019  1.0000
  S   S185      1.0  0.99136  0.33808  0.96680  1.0000
  H   H1048     1.0  0.78043  0.57395  0.93640  1.0000
  C   C624      1.0  0.56515  0.62474  0.78619  1.0000
  H   H1049     1.0  0.59860  0.57971  0.86491  1.0000
  H   H1050     1.0  0.95941  0.54961  0.91773  1.0000
  H   H1051     1.0  0.84284  0.58915  0.85922  1.0000
  H   H1052     1.0  0.57000  0.58125  0.86568  1.0000
  N   N44       1.0  0.70213  0.60224  0.57874  1.0000
  C   C625      1.0  0.72030  0.61834  0.58086  1.0000
  C   C626      1.0  0.70791  0.58323  0.60079  1.0000
  C   C627      1.0  0.68185  0.61283  0.59170  1.0000
  C   C628      1.0  0.69989  0.59630  0.54266  1.0000
  H   H1053     1.0  0.58407  0.65240  0.86248  1.0000
  C   C629      1.0  0.72887  0.57130  0.59141  1.0000
  C   C630      1.0  0.66355  0.59802  0.60475  1.0000
  C   C631      1.0  0.68352  0.57861  0.53446  1.0000
  H   H1054     1.0  0.72464  0.62088  0.60729  1.0000
  C   C632      1.0  0.62412  0.61000  0.50881  1.0000
  H   H1055     1.0  0.69501  0.57091  0.60174  1.0000
  H   H1056     1.0  0.70944  0.58852  0.62712  1.0000
  H   H1057     1.0  0.68564  0.62332  0.61307  1.0000
  H   H1058     1.0  0.67485  0.62365  0.57234  1.0000
  H   H1059     1.0  0.69482  0.61057  0.52760  1.0000
  C   C633      1.0  0.85679  0.64162  0.52984  1.0000
  S   S186      1.0  0.53893  0.64491  0.93387  1.0000
  H   H1060     1.0  0.49873  0.60254  0.80903  1.0000
  H   H1061     1.0  0.72868  0.56547  0.56546  1.0000
  H   H1062     1.0  0.61352  0.64952  0.92310  1.0000
  S   S187      1.0  0.77365  0.65319  0.63711  1.0000
  C   C634      1.0  0.90312  0.56611  0.98636  1.0000
  H   H1063     1.0  0.50280  0.57454  0.84564  1.0000
  C   C635      1.0  0.86186  0.65495  0.50206  1.0000
  H   H1064     1.0  0.61309  0.64959  0.85806  1.0000
  H   H1065     1.0  0.74908  0.52380  0.95613  1.0000
  H   H1066     1.0  0.68308  0.56514  0.55276  1.0000
  Fe  Fe97      1.0  0.65335  0.64642  0.66690  1.0000
  N   N45       1.0  0.89476  0.46849  0.81259  1.0000
  C   C636      1.0  0.89693  0.44931  0.83607  1.0000
  C   C637      1.0  0.87406  0.47981  0.82176  1.0000
  C   C638      1.0  0.91343  0.48335  0.81894  1.0000
  C   C639      1.0  0.89513  0.46066  0.77716  1.0000
  C   C640      1.0  0.91774  0.43579  0.83244  1.0000
  C   C641      1.0  0.85342  0.46608  0.81964  1.0000
  C   C642      1.0  0.91477  0.50412  0.79748  1.0000
  C   C643      1.0  0.88449  0.47538  0.75042  1.0000
  H   H1067     1.0  0.89576  0.45448  0.86251  1.0000
  H   H1068     1.0  0.88351  0.43770  0.83282  1.0000
  H   H1069     1.0  0.87135  0.49450  0.80641  1.0000
  H   H1070     1.0  0.87494  0.48591  0.84764  1.0000
  H   H1071     1.0  0.91337  0.48825  0.84558  1.0000
  H   H1072     1.0  0.92906  0.47506  0.81456  1.0000
  H   H1073     1.0  0.91201  0.45753  0.76881  1.0000
  H   H1074     1.0  0.88665  0.44487  0.77588  1.0000
  H   H1075     1.0  0.92097  0.43091  0.80644  1.0000
  H   H1076     1.0  0.93193  0.44423  0.84248  1.0000
  H   H1077     1.0  0.91592  0.42069  0.84751  1.0000
  H   H1078     1.0  0.85254  0.45702  0.79618  1.0000
  H   H1079     1.0  0.85199  0.45470  0.84120  1.0000
  H   H1080     1.0  0.83911  0.47684  0.82082  1.0000
  H   H1081     1.0  0.90013  0.51424  0.79933  1.0000
  H   H1082     1.0  0.91853  0.50051  0.77108  1.0000
  H   H1083     1.0  0.92824  0.51414  0.80653  1.0000
  H   H1084     1.0  0.89383  0.47416  0.72674  1.0000
  H   H1085     1.0  0.88373  0.49270  0.75619  1.0000
  H   H1086     1.0  0.86808  0.46952  0.74459  1.0000
  H   H1087     1.0  0.84717  0.56587  0.88611  1.0000
  C   C644      1.0  0.70973  0.65333  0.65697  1.0000
  H   H1088     1.0  0.95028  0.56072  0.97710  1.0000
  H   H1089     1.0  0.63180  0.61798  0.96056  1.0000
  H   H1090     1.0  0.64896  0.60798  0.60935  1.0000
  H   H1091     1.0  0.58344  0.57571  0.90367  1.0000
  H   H1092     1.0  0.56716  0.60745  0.78813  1.0000
  H   H1093     1.0  0.52143  0.47051  0.99607  1.0000
  H   H1094     1.0  0.58268  0.61249  0.95111  1.0000
  C   C645      1.0  0.56512  0.56958  0.97104  1.0000
  C   C646      1.0  0.59949  0.60924  0.94231  1.0000
  C   C647      1.0  0.96205  0.54758  0.97274  1.0000
  H   H1095     1.0  0.78425  0.55245  0.80926  1.0000
  H   H1096     1.0  0.61022  0.59972  0.51260  1.0000
  H   H1097     1.0  0.66781  0.59046  0.62908  1.0000
  H   H1098     1.0  0.68830  0.57113  0.51051  1.0000
  C   C648      1.0  0.63449  0.59051  0.90178  1.0000
  H   H1099     1.0  0.77301  0.57927  0.81378  1.0000
  H   H1100     1.0  0.77476  0.54721  0.92123  1.0000
  H   H1101     1.0  0.79418  0.57440  0.78464  1.0000
  H   H1102     1.0  0.75444  0.56750  0.92112  1.0000
  C   C649      1.0  0.73051  0.65918  0.64612  1.0000
  C   C650      1.0  0.58521  0.60955  0.88554  1.0000
  S   S188      1.0  0.85443  0.48403  0.97917  1.0000
  H   H1103     1.0  0.62471  0.61460  0.86531  1.0000
  C   C651      1.0  0.58106  0.55357  0.96725  1.0000
  H   H1104     1.0  0.77623  0.53123  0.86026  1.0000
  H   H1105     1.0  0.79914  0.52332  0.83515  1.0000
  H   H1106     1.0  0.79445  0.51224  0.87625  1.0000
  N   N46       1.0  0.80138  0.56786  0.87130  1.0000
  C   C652      1.0  0.81539  0.58134  0.89338  1.0000
  C   C653      1.0  0.77829  0.57202  0.88147  1.0000
  C   C654      1.0  0.80523  0.57537  0.83571  1.0000
  C   C655      1.0  0.80787  0.54459  0.87620  1.0000
  C   C656      1.0  0.83965  0.58201  0.88430  1.0000
  C   C657      1.0  0.77196  0.56469  0.91716  1.0000
  C   C658      1.0  0.78800  0.56981  0.80989  1.0000
  C   C659      1.0  0.79354  0.52720  0.86069  1.0000
  H   H1107     1.0  0.80967  0.59839  0.89356  1.0000
  H   H1108     1.0  0.81450  0.57548  0.91972  1.0000
  H   H1109     1.0  0.76675  0.56412  0.86477  1.0000
  H   H1110     1.0  0.77451  0.58954  0.87895  1.0000
  H   H1111     1.0  0.80682  0.59327  0.83434  1.0000
  H   H1112     1.0  0.82079  0.56902  0.82606  1.0000
  H   H1113     1.0  0.82434  0.54182  0.86604  1.0000
  H   H1114     1.0  0.80955  0.54037  0.90311  1.0000
  S   S189      1.0  0.68042  0.62572  0.68661  1.0000
  C   C660      1.0  0.59563  0.54906  0.99295  1.0000
  S   S190      1.0  0.65433  0.65963  0.61465  1.0000
  C   C661      1.0  0.95697  0.53791  0.93857  1.0000
  H   H1115     1.0  0.89247  0.56203  0.96629  1.0000
  C   C662      1.0  0.64637  0.63950  0.52643  1.0000
  H   H1116     1.0  0.62273  0.57761  0.90755  1.0000
  H   H1117     1.0  0.60999  0.63482  0.97574  1.0000
  H   H1118     1.0  0.63678  0.62488  0.90170  1.0000
  H   H1119     1.0  0.71281  0.64022  0.53827  1.0000
  C   C663      1.0  0.55000  0.65781  0.80715  1.0000
  S   S191      1.0  0.61586  0.52943  0.98705  1.0000
  H   H1120     1.0  0.95922  0.43159  0.90279  1.0000
  C   C664      1.0  0.71611  0.64088  0.56528  1.0000
  C   C665      1.0  0.97578  0.59084  0.94530  1.0000
  H   H1121     1.0  0.54837  0.49799  0.98216  1.0000
  H   H1122     1.0  0.61329  0.60808  0.99180  1.0000
  C   C666      1.0  0.66055  0.63578  0.49945  1.0000
  H   H1123     1.0  0.97058  0.38755  0.97383  1.0000
  H   H1124     1.0  0.99298  0.56337  0.92588  1.0000
  C   C667      1.0  0.99113  0.57148  0.95028  1.0000
  C   C668      1.0  0.97805  0.40076  0.98813  1.0000
  H   H1125     1.0  0.97107  0.41605  0.97830  1.0000
  H   H1126     1.0  0.99439  0.52332  0.99317  1.0000
  S   S192      1.0  0.49492  0.63571  0.97803  1.0000
  H   H1127     1.0  0.93613  0.41810  0.98803  1.0000
  C   C669      1.0  0.86647  0.61040  0.49772  1.0000
  H   H1128     1.0  0.78952  0.97213  0.10278  1.0000
  H   H1129     1.0  0.88737  0.74722  0.45321  1.0000
  S   S193      1.0  0.87733  0.71851  0.30347  1.0000
  S   S194      1.0  0.87524  0.66374  0.43781  1.0000
  Fe  Fe98      1.0  0.61652  0.78399  0.37977  1.0000
  S   S195      1.0  0.59352  0.81163  0.38652  1.0000
  S   S196      1.0  0.61478  0.75246  0.40820  1.0000
  Fe  Fe99      1.0  0.64834  0.81108  0.34062  1.0000
  S   S197      1.0  0.62857  0.84114  0.34513  1.0000
  S   S198      1.0  0.67999  0.80756  0.31372  1.0000
  Fe  Fe100     1.0  0.62322  0.83055  0.39853  1.0000
  S   S199      1.0  0.62288  0.85319  0.44255  1.0000
  Fe  Fe101     1.0  0.60059  0.81969  0.33223  1.0000
  S   S200      1.0  0.57571  0.83413  0.29621  1.0000
  S   S201      1.0  0.64566  0.80250  0.39473  1.0000
  S   S202      1.0  0.62101  0.79011  0.32474  1.0000
  Fe  Fe102     1.0  0.80717  0.81732  0.32201  1.0000
  S   S203      1.0  0.84009  0.83133  0.32759  1.0000
  S   S204      1.0  0.79927  0.78383  0.30444  1.0000
  Fe  Fe103     1.0  0.78610  0.85720  0.34921  1.0000
  S   S205      1.0  0.81770  0.87416  0.35800  1.0000
  S   S206      1.0  0.75313  0.87056  0.36123  1.0000
  Fe  Fe104     1.0  0.82641  0.86226  0.30650  1.0000
  S   S207      1.0  0.84715  0.87836  0.26531  1.0000
  Fe  Fe105     1.0  0.82855  0.84166  0.37825  1.0000
  S   S208      1.0  0.85032  0.82973  0.42021  1.0000
  S   S209      1.0  0.79421  0.84721  0.29699  1.0000
  S   S210      1.0  0.79625  0.82604  0.37329  1.0000
  H   H1130     1.0  0.63418  0.88135  0.28951  1.0000
  Fe  Fe106     1.0  0.86326  0.95660  0.03441  1.0000
  S   S211      1.0  0.87572  0.96187  0.08613  1.0000
  H   H1131     1.0  0.95583  0.72630  0.12966  1.0000
  Fe  Fe107     1.0  0.84087  0.95917  0.10247  1.0000
  S   S212      1.0  0.82367  0.94640  0.14976  1.0000
  S   S213      1.0  0.82890  0.95089  0.05131  1.0000
  Fe  Fe108     1.0  0.52508  0.83120  0.10864  1.0000
  S   S214      1.0  0.53098  0.82016  0.05579  1.0000
  S   S215      1.0  0.54752  0.81445  0.14645  1.0000
  C   C670      1.0  0.59995  0.66604  0.47597  1.0000
  Fe  Fe109     1.0  0.52194  0.85402  0.04039  1.0000
  H   H1132     1.0  0.72561  0.74900  0.36058  1.0000
  S   S216      1.0  0.51887  0.86585  0.09293  1.0000
  H   H1133     1.0  0.58243  0.66845  0.37332  1.0000
  H   H1134     1.0  0.51258  0.71831  0.11084  1.0000
  C   C671      1.0  0.59159  0.90125  0.02830  1.0000
  H   H1135     1.0  0.57058  0.87554  0.04575  1.0000
  H   H1136     1.0  0.83800  0.70770  0.48599  1.0000
  C   C672      1.0  0.75565  0.98160  0.99910  1.0000
  H   H1137     1.0  0.68680  0.89650  0.47210  1.0000
  N   N47       1.0  0.86258  0.73635  0.41970  1.0000
  H   H1138     1.0  0.63173  0.88651  0.22628  1.0000
  H   H1139     1.0  0.60955  0.89284  0.27520  1.0000
  C   C673      1.0  0.84662  0.83307  0.46377  1.0000
  H   H1140     1.0  0.65867  0.78277  0.47862  1.0000
  H   H1141     1.0  0.70082  0.69363  0.27870  1.0000
  H   H1142     1.0  0.71250  0.99329  0.08003  1.0000
  H   H1143     1.0  0.82245  0.85784  0.46006  1.0000
  C   C674      1.0  0.83955  0.89594  0.23192  1.0000
  C   C675      1.0  0.85440  0.90011  0.20580  1.0000
  C   C676      1.0  0.84959  0.91490  0.17979  1.0000
  C   C677      1.0  0.82993  0.92598  0.17988  1.0000
  C   C678      1.0  0.81496  0.92154  0.20571  1.0000
  C   C679      1.0  0.81964  0.90653  0.23144  1.0000
  H   H1144     1.0  0.86987  0.89206  0.20593  1.0000
  H   H1145     1.0  0.86128  0.91807  0.16012  1.0000
  H   H1146     1.0  0.79971  0.92998  0.20614  1.0000
  H   H1147     1.0  0.80808  0.90357  0.25137  1.0000
  C   C680      1.0  0.63698  0.84766  0.47980  1.0000
  H   H1148     1.0  0.89927  0.70711  0.42068  1.0000
  H   H1149     1.0  0.97527  0.74250  0.18217  1.0000
  H   H1150     1.0  0.68606  0.89015  0.40877  1.0000
  C   C681      1.0  0.56746  0.82788  0.25501  1.0000
  C   C682      1.0  0.55428  0.84262  0.23760  1.0000
  C   C683      1.0  0.54787  0.83877  0.20456  1.0000
  C   C684      1.0  0.55467  0.82012  0.18836  1.0000
  C   C685      1.0  0.56785  0.80536  0.20577  1.0000
  C   C686      1.0  0.57404  0.80908  0.23894  1.0000
  H   H1151     1.0  0.54899  0.85717  0.24975  1.0000
  H   H1152     1.0  0.53775  0.85030  0.19162  1.0000
  H   H1153     1.0  0.57328  0.79090  0.19358  1.0000
  H   H1154     1.0  0.58397  0.79747  0.25203  1.0000
  C   C687      1.0  0.70009  0.82512  0.32739  1.0000
  C   C688      1.0  0.72177  0.81964  0.32261  1.0000
  C   C689      1.0  0.73808  0.83349  0.33315  1.0000
  C   C690      1.0  0.73279  0.85317  0.34768  1.0000
  C   C691      1.0  0.71107  0.85887  0.35176  1.0000
  C   C692      1.0  0.69471  0.84470  0.34219  1.0000
  H   H1155     1.0  0.72603  0.80456  0.31107  1.0000
  H   H1156     1.0  0.75476  0.82888  0.32995  1.0000
  H   H1157     1.0  0.70690  0.87424  0.36231  1.0000
  H   H1158     1.0  0.67799  0.84912  0.34565  1.0000
  C   C693      1.0  0.62266  0.69114  0.34822  1.0000
  C   C694      1.0  0.63353  0.69358  0.37823  1.0000
  C   C695      1.0  0.63153  0.71273  0.39603  1.0000
  C   C696      1.0  0.61898  0.72972  0.38361  1.0000
  C   C697      1.0  0.60886  0.72775  0.35291  1.0000
  C   C698      1.0  0.61049  0.70836  0.33545  1.0000
  H   H1159     1.0  0.64276  0.68046  0.38853  1.0000
  H   H1160     1.0  0.63953  0.71430  0.41965  1.0000
  H   H1161     1.0  0.59906  0.74083  0.34328  1.0000
  H   H1162     1.0  0.60205  0.70660  0.31222  1.0000
  C   C699      1.0  0.85499  0.73572  0.30588  1.0000
  C   C700      1.0  0.83418  0.72864  0.29877  1.0000
  C   C701      1.0  0.81693  0.74339  0.29890  1.0000
  C   C702      1.0  0.82041  0.76498  0.30712  1.0000
  C   C703      1.0  0.84105  0.77163  0.31564  1.0000
  C   C704      1.0  0.85838  0.75724  0.31411  1.0000
  H   H1163     1.0  0.83151  0.71201  0.29224  1.0000
  H   H1164     1.0  0.80096  0.73810  0.29233  1.0000
  H   H1165     1.0  0.84380  0.78794  0.32298  1.0000
  H   H1166     1.0  0.87444  0.76278  0.31965  1.0000
  H   H1167     1.0  0.81285  0.67673  0.41202  1.0000
  N   N48       1.0  0.85107  0.80877  0.22121  1.0000
  C   C705      1.0  0.86752  0.80596  0.24841  1.0000
  C   C706      1.0  0.83520  0.79049  0.22502  1.0000
  C   C707      1.0  0.83981  0.83010  0.22637  1.0000
  C   C708      1.0  0.86288  0.80858  0.18821  1.0000
  C   C709      1.0  0.88364  0.82466  0.25248  1.0000
  C   C710      1.0  0.84447  0.76759  0.22089  1.0000
  C   C711      1.0  0.81710  0.83296  0.21177  1.0000
  C   C712      1.0  0.84913  0.80906  0.15649  1.0000
  H   H1168     1.0  0.85934  0.80361  0.27301  1.0000
  H   H1169     1.0  0.87746  0.79125  0.24460  1.0000
  H   H1170     1.0  0.82169  0.79192  0.20737  1.0000
  H   H1171     1.0  0.82729  0.79111  0.24995  1.0000
  H   H1172     1.0  0.83761  0.83313  0.25348  1.0000
  H   H1173     1.0  0.84984  0.84368  0.21644  1.0000
  H   H1174     1.0  0.87362  0.82287  0.18576  1.0000
  H   H1175     1.0  0.87427  0.79473  0.18663  1.0000
  H   H1176     1.0  0.89458  0.82057  0.27336  1.0000
  H   H1177     1.0  0.89392  0.82724  0.23003  1.0000
  H   H1178     1.0  0.87553  0.83994  0.25922  1.0000
  H   H1179     1.0  0.85214  0.76544  0.19610  1.0000
  H   H1180     1.0  0.85592  0.76318  0.24086  1.0000
  H   H1181     1.0  0.83106  0.75579  0.22310  1.0000
  H   H1182     1.0  0.81206  0.85004  0.21480  1.0000
  H   H1183     1.0  0.80509  0.82299  0.22579  1.0000
  H   H1184     1.0  0.81637  0.82945  0.18496  1.0000
  H   H1185     1.0  0.84539  0.82592  0.14876  1.0000
  H   H1186     1.0  0.83407  0.79970  0.15876  1.0000
  H   H1187     1.0  0.85830  0.80129  0.13599  1.0000
  H   H1188     1.0  0.79784  0.66618  0.44610  1.0000
  C   C713      1.0  0.77452  0.96555  0.09247  1.0000
  H   H1189     1.0  0.71911  0.90348  0.44752  1.0000
  C   C714      1.0  0.70930  0.84943  0.44471  1.0000
  H   H1190     1.0  0.91152  0.96636  0.17416  1.0000
  C   C715      1.0  0.67597  0.88167  0.42776  1.0000
  H   H1191     1.0  0.67416  0.68311  0.28062  1.0000
  H   H1192     1.0  0.96788  0.89911  0.03749  1.0000
  C   C716      1.0  0.72439  0.88661  0.44290  1.0000
  H   H1193     1.0  0.99434  0.89006  0.02668  1.0000
  H   H1194     1.0  0.83959  0.96469  0.23265  1.0000
  H   H1195     1.0  0.68600  0.72632  0.41394  1.0000
  H   H1196     1.0  0.73800  0.83365  0.46683  1.0000
  H   H1197     1.0  0.98041  0.72181  0.21269  1.0000
  H   H1198     1.0  0.61567  0.83272  0.18016  1.0000
  H   H1199     1.0  0.76860  0.68313  0.32888  1.0000
  H   H1200     1.0  0.65644  0.85117  0.28000  1.0000
  H   H1201     1.0  0.67111  0.86560  0.41868  1.0000
  H   H1202     1.0  0.59685  0.68917  0.41919  1.0000
  H   H1203     1.0  0.65206  0.86656  0.18816  1.0000
  H   H1204     1.0  0.96289  0.73620  0.07164  1.0000
  S   S217      1.0  0.84832  0.67193  0.35658  1.0000
  H   H1205     1.0  0.86246  0.76076  0.45769  1.0000
  H   H1206     1.0  0.93671  0.93404  0.05886  1.0000
  C   C717      1.0  0.63703  0.81068  0.24011  1.0000
  C   C718      1.0  0.62020  0.68028  0.47159  1.0000
  H   H1207     1.0  0.90829  0.71468  0.37985  1.0000
  C   C719      1.0  0.90783  0.88419  0.02880  1.0000
  H   H1208     1.0  0.94509  0.96043  0.04408  1.0000
  N   N49       1.0  0.53095  0.74794  0.10843  1.0000
  C   C720      1.0  0.51810  0.73054  0.09196  1.0000
  C   C721      1.0  0.53547  0.76642  0.08444  1.0000
  C   C722      1.0  0.52930  0.71819  0.06366  1.0000
  C   C723      1.0  0.55524  0.76433  0.06080  1.0000
  H   H1209     1.0  0.56193  0.73147  0.10390  1.0000
  H   H1210     1.0  0.74434  0.95774  0.14860  1.0000
  H   H1211     1.0  0.68519  0.70307  0.38861  1.0000
  H   H1212     1.0  0.52120  0.76973  0.06870  1.0000
  H   H1213     1.0  0.53808  0.78149  0.09848  1.0000
  H   H1214     1.0  0.94478  0.71412  0.07495  1.0000
  H   H1215     1.0  0.68652  0.69344  0.33584  1.0000
  Fe  Fe110     1.0  0.82453  0.98645  0.04315  1.0000
  H   H1216     1.0  0.65554  0.83847  0.19090  1.0000
  H   H1217     1.0  0.56112  0.74781  0.05657  1.0000
  H   H1218     1.0  0.75497  0.87028  0.45990  1.0000
  N   N50       1.0  0.69062  0.72770  0.32660  1.0000
  C   C724      1.0  0.71474  0.72517  0.32381  1.0000
  S   S218      1.0  0.61924  0.93276  0.00540  1.0000
  C   C725      1.0  0.68386  0.73424  0.36120  1.0000
  C   C726      1.0  0.68357  0.74506  0.30235  1.0000
  C   C727      1.0  0.72816  0.74487  0.33409  1.0000
  H   H1219     1.0  0.56716  0.69199  0.38128  1.0000
  C   C728      1.0  0.65901  0.74752  0.29790  1.0000
  H   H1220     1.0  0.66393  0.87294  0.25297  1.0000
  H   H1221     1.0  0.71966  0.72168  0.29771  1.0000
  C   C729      1.0  0.57143  0.67588  0.39183  1.0000
  H   H1222     1.0  0.96447  0.94030  0.05653  1.0000
  H   H1223     1.0  0.69237  0.84561  0.26045  1.0000
  H   H1224     1.0  0.73834  0.96639  0.06093  1.0000
  H   H1225     1.0  0.68945  0.76110  0.31021  1.0000
  H   H1226     1.0  0.69094  0.74262  0.27728  1.0000
  H   H1227     1.0  0.91856  0.98883  0.20051  1.0000
  H   H1228     1.0  0.74554  0.74096  0.33096  1.0000
  C   C730      1.0  0.57315  0.88811  0.02715  1.0000
  H   H1229     1.0  0.98289  0.75318  0.12792  1.0000
  C   C731      1.0  0.83212  0.84813  0.47680  1.0000
  C   C732      1.0  0.87360  0.75384  0.43873  1.0000
  C   C733      1.0  0.73071  0.83698  0.44226  1.0000
  H   H1230     1.0  0.65169  0.73318  0.28646  1.0000
  H   H1231     1.0  0.65592  0.76147  0.28091  1.0000
  H   H1232     1.0  0.65054  0.75090  0.32168  1.0000
  C   C734      1.0  0.94901  0.94295  0.04372  1.0000
  Fe  Fe111     1.0  0.87274  0.68382  0.31917  1.0000
  H   H1233     1.0  0.50325  0.73737  0.08063  1.0000
  C   C735      1.0  0.89968  0.72065  0.40232  1.0000
  H   H1234     1.0  0.66264  0.70690  0.32414  1.0000
  H   H1235     1.0  0.75255  0.89860  0.46983  1.0000
  H   H1236     1.0  0.86838  0.78236  0.40599  1.0000
  H   H1237     1.0  0.60979  0.86537  0.28801  1.0000
  H   H1238     1.0  0.89296  0.99281  0.24452  1.0000
  H   H1239     1.0  0.86944  0.71393  0.38003  1.0000
  N   N51       1.0  0.99001  0.71899  0.12635  1.0000
  H   H1240     1.0  0.63228  0.67320  0.45438  1.0000
  C   C736      1.0  0.96699  0.71539  0.11610  1.0000
  H   H1241     1.0  0.87890  0.74034  0.37192  1.0000
  H   H1242     1.0  0.57187  0.68928  0.44103  1.0000
  C   C737      1.0  0.98702  0.92194  0.00637  1.0000
  C   C738      1.0  0.55114  0.73835  0.12309  1.0000
  C   C739      1.0  0.74865  0.88605  0.45146  1.0000
  H   H1243     1.0  0.84660  0.75751  0.38436  1.0000
  H   H1244     1.0  0.58083  0.74646  0.14848  1.0000
  H   H1245     1.0  0.76824  0.98421  0.18738  1.0000
  C   C740      1.0  0.69183  0.71960  0.38998  1.0000
  C   C741      1.0  0.71352  0.97773  0.09402  1.0000
  H   H1246     1.0  0.51815  0.70555  0.05484  1.0000
  H   H1247     1.0  0.52557  0.77023  0.14901  1.0000
  H   H1248     1.0  0.63032  0.84636  0.14774  1.0000
  H   H1249     1.0  0.98946  0.69570  0.16742  1.0000
  H   H1250     1.0  0.82580  0.72918  0.46286  1.0000
  C   C742      1.0  0.85926  0.82075  0.48589  1.0000
  H   H1251     1.0  0.55097  0.77109  0.03592  1.0000
  C   C743      1.0  0.84142  0.72289  0.47187  1.0000
  C   C744      1.0  0.89565  0.90332  0.02665  1.0000
  H   H1252     1.0  0.74229  0.84532  0.42520  1.0000
  H   H1253     1.0  0.93881  0.67710  0.20144  1.0000
  C   C745      1.0  0.62667  0.83291  0.24604  1.0000
  H   H1254     1.0  0.70985  0.98020  0.12077  1.0000
  S   S219      1.0  0.62310  0.66649  0.32713  1.0000
  H   H1255     1.0  0.90817  0.87507  0.05199  1.0000
  H   H1256     1.0  0.88789  0.96015  0.21597  1.0000
  H   H1257     1.0  0.61168  0.75262  0.49085  1.0000
  C   C746      1.0  0.97554  0.72482  0.18646  1.0000
  H   H1258     1.0  0.56791  0.76947  0.13004  1.0000
  H   H1259     1.0  0.83297  0.75502  0.42296  1.0000
  C   C747      1.0  0.56493  0.75398  0.14342  1.0000
  H   H1260     1.0  0.54700  0.72438  0.13978  1.0000
  C   C748      1.0  0.60929  0.79318  0.47534  1.0000
  H   H1261     1.0  0.66079  0.89102  0.43070  1.0000
  H   H1262     1.0  0.66603  0.73453  0.36365  1.0000
  H   H1263     1.0  0.54412  0.70974  0.07168  1.0000
  C   C749      1.0  0.85645  0.95956  0.23690  1.0000
  H   H1264     1.0  0.62393  0.78846  0.46146  1.0000
  Fe  Fe112     1.0  0.49564  0.81273  0.05448  1.0000
  C   C750      1.0  0.64388  0.85144  0.19673  1.0000
  C   C751      1.0  0.88862  0.99352  0.17181  1.0000
  H   H1265     1.0  0.70392  0.85122  0.41856  1.0000
  N   N52       1.0  0.63880  0.85247  0.23354  1.0000
  C   C752      1.0  0.73556  0.96672  0.08841  1.0000
  H   H1266     1.0  0.72498  0.75921  0.31804  1.0000
  H   H1267     1.0  0.66982  0.75818  0.49542  1.0000
  H   H1268     1.0  0.61303  0.86163  0.17394  1.0000
  C   C753      1.0  0.62442  0.84784  0.17384  1.0000
  H   H1269     1.0  0.79179  0.93496  0.09259  1.0000
  H   H1270     1.0  0.60851  0.86967  0.22690  1.0000
  C   C754      1.0  0.77017  0.66592  0.32562  1.0000
  H   H1271     1.0  0.65717  0.82291  0.45923  1.0000
  H   H1272     1.0  0.67820  0.70958  0.26399  1.0000
  H   H1273     1.0  0.92210  0.99060  0.15620  1.0000
  C   C755      1.0  0.51753  0.75630  0.13719  1.0000
  H   H1274     1.0  0.89002  0.78473  0.43429  1.0000
  H   H1275     1.0  0.68897  0.75106  0.36631  1.0000
  S   S220      1.0  0.93489  0.85295  0.00454  1.0000
  S   S221      1.0  0.85826  0.99193  0.02272  1.0000
  H   H1276     1.0  0.73337  0.94959  0.09641  1.0000
  H   H1277     1.0  0.98013  0.96481  0.01236  1.0000
  C   C756      1.0  0.68374  0.69807  0.28342  1.0000
  H   H1278     1.0  0.64794  0.80619  0.26078  1.0000
  H   H1279     1.0  0.64438  0.75755  0.47685  1.0000
  H   H1280     1.0  0.75811  0.89052  0.42869  1.0000
  H   H1281     1.0  0.70065  0.96732  0.08401  1.0000
  C   C757      1.0  0.65336  0.83219  0.48107  1.0000
  C   C758      1.0  0.75159  0.97381  0.14280  1.0000
  H   H1282     1.0  0.77699  0.95877  0.17312  1.0000
  H   H1283     1.0  0.58842  0.67490  0.49232  1.0000
  H   H1284     1.0  0.85106  0.70384  0.42953  1.0000
  H   H1285     1.0  0.86226  0.96483  0.26143  1.0000
  H   H1286     1.0  0.77193  0.93634  0.12484  1.0000
  C   C759      1.0  0.82706  0.72926  0.38866  1.0000
  N   N53       1.0  0.70984  0.87096  0.46163  1.0000
  H   H1287     1.0  0.81369  0.73821  0.37647  1.0000
  C   C760      1.0  0.81247  0.66343  0.43085  1.0000
  H   H1288     1.0  0.87223  0.71178  0.45556  1.0000
  C   C761      1.0  0.96176  0.71894  0.07901  1.0000
  H   H1289     1.0  0.55733  0.75726  0.16799  1.0000
  C   C762      1.0  0.58263  0.67906  0.42539  1.0000
  H   H1290     1.0  0.84841  0.73427  0.48981  1.0000
  C   C763      1.0  0.87191  0.96660  0.20853  1.0000
  H   H1291     1.0  0.84499  0.98714  0.16973  1.0000
  H   H1292     1.0  0.68590  0.84995  0.21777  1.0000
  H   H1293     1.0  0.82673  0.66482  0.44714  1.0000
  H   H1294     1.0  0.81966  0.71821  0.40746  1.0000
  C   C764      1.0  0.91971  0.87691  0.00117  1.0000
  H   H1295     1.0  0.86732  0.95761  0.18585  1.0000
  H   H1296     1.0  0.76419  0.93237  0.08190  1.0000
  H   H1297     1.0  0.69735  0.83860  0.45731  1.0000
  C   C765      1.0  0.85740  0.71788  0.44329  1.0000
  H   H1298     1.0  0.72037  0.71096  0.33857  1.0000
  H   H1299     1.0  0.88668  0.90894  0.04809  1.0000
  C   C766      1.0  0.99159  0.71334  0.16303  1.0000
  H   H1300     1.0  0.95907  0.71807  0.18426  1.0000
  C   C767      1.0  0.59530  0.91740  0.00398  1.0000
  C   C768      1.0  0.87690  0.72803  0.39211  1.0000
  C   C769      1.0  0.88181  0.77328  0.41767  1.0000
  H   H1301     1.0  0.53254  0.72880  0.04176  1.0000
  C   C770      1.0  0.68718  0.87995  0.46181  1.0000
  H   H1302     1.0  0.92042  0.66360  0.25292  1.0000
  H   H1303     1.0  0.64576  0.80943  0.21612  1.0000
  S   S222      1.0  0.72616  0.66486  0.32907  1.0000
  C   C771      1.0  0.77206  0.97513  0.16443  1.0000
  H   H1304     1.0  0.60313  0.89876  0.04797  1.0000
  H   H1305     1.0  0.61602  0.69691  0.46342  1.0000
  C   C772      1.0  0.77534  0.94092  0.09853  1.0000
  H   H1306     1.0  0.56871  0.77447  0.06955  1.0000
  H   H1307     1.0  0.78614  0.98312  0.15264  1.0000
  H   H1308     1.0  0.67652  0.87024  0.47864  1.0000
  H   H1309     1.0  0.89373  0.76861  0.39834  1.0000
  H   H1310     1.0  0.90943  0.73403  0.41206  1.0000
  C   C773      1.0  0.62451  0.87194  0.23859  1.0000
  C   C774      1.0  0.61951  0.87794  0.27505  1.0000
  H   H1311     1.0  0.62410  0.79836  0.23897  1.0000
  H   H1312     1.0  0.77626  0.96844  0.06513  1.0000
  C   C775      1.0  0.84243  0.74562  0.40445  1.0000
  S   S223      1.0  0.90094  0.67002  0.34665  1.0000
  C   C776      1.0  0.67951  0.84337  0.24178  1.0000
  H   H1313     1.0  0.87060  0.80916  0.47610  1.0000
  C   C777      1.0  0.65916  0.85562  0.25325  1.0000
  H   H1314     1.0  0.59578  0.78238  0.46893  1.0000
  H   H1315     1.0  0.51575  0.74374  0.15720  1.0000
  H   H1316     1.0  0.62388  0.83371  0.27335  1.0000
  C   C778      1.0  0.65472  0.76762  0.49246  1.0000
  H   H1317     1.0  0.67695  0.82582  0.23994  1.0000
  H   H1318     1.0  0.83514  0.71975  0.36907  1.0000
  H   H1319     1.0  0.72757  0.82110  0.43089  1.0000
  H   H1320     1.0  0.70963  0.71886  0.39118  1.0000
  H   H1321     1.0  0.96186  0.69868  0.12291  1.0000
  H   H1322     1.0  0.61009  0.83265  0.23608  1.0000
  H   H1323     1.0  0.97168  0.70886  0.06223  1.0000
  C   C779      1.0  0.68027  0.70638  0.31909  1.0000
  H   H1324     1.0  0.72300  0.88441  0.41555  1.0000
  H   H1325     1.0  0.55623  0.66666  0.39423  1.0000
  H   H1326     1.0  0.94201  0.91807  0.00824  1.0000
  N   N54       1.0  0.75458  0.97667  0.10560  1.0000
  H   H1327     1.0  0.80494  0.66656  0.32407  1.0000
  H   H1328     1.0  0.73981  0.98580  0.15249  1.0000
  H   H1329     1.0  0.85625  0.94168  0.23844  1.0000
  H   H1330     1.0  0.60480  0.80951  0.46597  1.0000
  H   H1331     1.0  0.88202  0.98647  0.14870  1.0000
  N   N55       1.0  0.87306  0.99044  0.20069  1.0000
  C   C780      1.0  0.91145  0.98417  0.17649  1.0000
  C   C781      1.0  0.98009  0.89894  0.01708  1.0000
  C   C782      1.0  0.71616  0.86757  0.49751  1.0000
  H   H1332     1.0  0.98619  0.71348  0.00093  1.0000
  H   H1333     1.0  0.76340  0.96623  0.00362  1.0000
  C   C783      1.0  0.94891  0.93454  0.00772  1.0000
  C   C784      1.0  0.55840  0.89090  0.00138  1.0000
  S   S224      1.0  0.83511  0.99475  0.09499  1.0000
  H   H1334     1.0  0.99323  0.93012  0.02873  1.0000
  H   H1335     1.0  0.62812  0.68169  0.49614  1.0000
  H   H1336     1.0  0.72072  0.95844  0.77930  1.0000
  S   S225      1.0  0.86542  0.66546  0.70309  1.0000
  H   H1337     1.0  0.91830  0.88073  0.89478  1.0000
  S   S226      1.0  0.64839  0.72161  0.61377  1.0000
  H   H1338     1.0  0.61422  0.81133  0.57449  1.0000
  H   H1339     1.0  0.98824  0.78694  0.68850  1.0000
  Fe  Fe113     1.0  0.67387  0.82470  0.69530  1.0000
  S   S227      1.0  0.64876  0.84281  0.66650  1.0000
  S   S228      1.0  0.66856  0.79208  0.71907  1.0000
  Fe  Fe114     1.0  0.70805  0.85872  0.68274  1.0000
  S   S229      1.0  0.68598  0.87961  0.65218  1.0000
  S   S230      1.0  0.74219  0.86889  0.69238  1.0000
  Fe  Fe115     1.0  0.66172  0.87199  0.69326  1.0000
  S   S231      1.0  0.63997  0.89678  0.71861  1.0000
  Fe  Fe116     1.0  0.67513  0.84877  0.62820  1.0000
  S   S232      1.0  0.67758  0.83790  0.57390  1.0000
  S   S233      1.0  0.68467  0.85296  0.72479  1.0000
  S   S234      1.0  0.69940  0.82872  0.65613  1.0000
  Fe  Fe117     1.0  0.87562  0.78168  0.64347  1.0000
  S   S235      1.0  0.89047  0.81370  0.62968  1.0000
  S   S236      1.0  0.88816  0.75081  0.62193  1.0000
  Fe  Fe118     1.0  0.83909  0.80171  0.68228  1.0000
  S   S237      1.0  0.85081  0.83528  0.67168  1.0000
  S   S238      1.0  0.80820  0.79241  0.70865  1.0000
  Fe  Fe119     1.0  0.85643  0.82415  0.61904  1.0000
  S   S239      1.0  0.84227  0.84458  0.57682  1.0000
  Fe  Fe120     1.0  0.88366  0.82180  0.68355  1.0000
  S   S240      1.0  0.90764  0.84094  0.71414  1.0000
  S   S241      1.0  0.84230  0.79152  0.62925  1.0000
  S   S242      1.0  0.87136  0.78885  0.69780  1.0000
  Fe  Fe121     1.0  0.95951  0.84435  0.96479  1.0000
  S   S243      1.0  0.96506  0.86218  0.91649  1.0000
  C   C785      1.0  0.81934  0.72513  0.64699  1.0000
  Fe  Fe122     1.0  0.96964  0.82919  0.89445  1.0000
  S   S244      1.0  0.95143  0.81343  0.85182  1.0000
  S   S245      1.0  0.96155  0.81142  0.94260  1.0000
  C   C786      1.0  0.57335  0.74849  0.71953  1.0000
  Fe  Fe123     1.0  0.64798  0.96162  0.89458  1.0000
  S   S246      1.0  0.66235  0.95418  0.94466  1.0000
  S   S247      1.0  0.66512  0.94101  0.85568  1.0000
  H   H1340     1.0  0.70539  0.94369  0.92088  1.0000
  Fe  Fe124     1.0  0.62879  0.95724  0.96531  1.0000
  H   H1341     1.0  0.88459  0.82047  0.94440  1.0000
  S   S248      1.0  0.61405  0.96182  0.91499  1.0000
  H   H1342     1.0  0.56858  0.75958  0.69902  1.0000
  H   H1343     1.0  0.81071  0.67498  0.72923  1.0000
  H   H1344     1.0  0.76191  0.96507  0.91140  1.0000
  H   H1345     1.0  0.73273  0.86122  0.49984  1.0000
  C   C787      1.0  0.51544  0.74049  0.97814  1.0000
  H   H1346     1.0  0.92347  0.76930  0.74249  1.0000
  H   H1347     1.0  0.55941  0.71816  0.73992  1.0000
  C   C788      1.0  0.74848  0.97777  0.86445  1.0000
  H   H1348     1.0  0.78258  0.69953  0.63612  1.0000
  H   H1349     1.0  0.77921  0.72800  0.63612  1.0000
  C   C789      1.0  0.75470  0.84698  0.60405  1.0000
  H   H1350     1.0  0.56914  0.75727  0.74273  1.0000
  C   C790      1.0  0.75908  0.98069  0.89856  1.0000
  H   H1351     1.0  0.69761  0.89118  0.52646  1.0000
  H   H1352     1.0  0.67836  0.81765  0.51082  1.0000
  H   H1353     1.0  0.87550  0.85648  0.95200  1.0000
  C   C791      1.0  0.95309  0.93990  0.93058  1.0000
  H   H1354     1.0  0.92861  0.88352  0.95027  1.0000
  C   C792      1.0  0.94338  0.77155  0.64138  1.0000
  H   H1355     1.0  0.95912  0.91012  0.95660  1.0000
  N   N56       1.0  0.94468  0.77030  0.67892  1.0000
  H   H1356     1.0  0.93966  0.81566  0.65187  1.0000
  C   C793      1.0  0.91967  0.83309  0.75242  1.0000
  C   C794      1.0  0.91549  0.81308  0.76762  1.0000
  C   C795      1.0  0.92578  0.80722  0.79755  1.0000
  C   C796      1.0  0.93999  0.82146  0.81313  1.0000
  C   C797      1.0  0.94409  0.84154  0.79804  1.0000
  C   C798      1.0  0.93403  0.84725  0.76779  1.0000
  H   H1357     1.0  0.90423  0.80218  0.75639  1.0000
  H   H1358     1.0  0.92243  0.79167  0.80904  1.0000
  H   H1359     1.0  0.95502  0.85265  0.80960  1.0000
  H   H1360     1.0  0.93740  0.86277  0.75619  1.0000
  C   C799      1.0  0.63242  0.85979  0.50833  1.0000
  C   C800      1.0  0.84375  0.83918  0.53355  1.0000
  H   H1361     1.0  0.96100  0.95536  0.92363  1.0000
  H   H1362     1.0  0.86777  0.81427  0.53727  1.0000
  H   H1363     1.0  0.94537  0.75351  0.59556  1.0000
  C   C801      1.0  0.75977  0.84760  0.70254  1.0000
  C   C802      1.0  0.78157  0.85201  0.70797  1.0000
  C   C803      1.0  0.79643  0.83506  0.71157  1.0000
  C   C804      1.0  0.78950  0.81367  0.70982  1.0000
  C   C805      1.0  0.76751  0.80926  0.70651  1.0000
  C   C806      1.0  0.75267  0.82621  0.70278  1.0000
  H   H1364     1.0  0.78711  0.86854  0.70810  1.0000
  H   H1365     1.0  0.81328  0.83859  0.71492  1.0000
  H   H1366     1.0  0.76203  0.79274  0.70563  1.0000
  H   H1367     1.0  0.73582  0.82267  0.69947  1.0000
  C   C807      1.0  0.64724  0.90941  0.75637  1.0000
  C   C808      1.0  0.66720  0.90565  0.77123  1.0000
  C   C809      1.0  0.67237  0.91569  0.80132  1.0000
  C   C810      1.0  0.65772  0.92964  0.81706  1.0000
  C   C811      1.0  0.63781  0.93363  0.80213  1.0000
  C   C812      1.0  0.63261  0.92351  0.77199  1.0000
  H   H1368     1.0  0.67872  0.89504  0.75944  1.0000
  H   H1369     1.0  0.68784  0.91250  0.81251  1.0000
  H   H1370     1.0  0.62644  0.94451  0.81368  1.0000
  H   H1371     1.0  0.61719  0.92666  0.76061  1.0000
  H   H1372     1.0  0.72329  0.88466  0.54315  1.0000
  H   H1373     1.0  0.75948  0.96716  0.85001  1.0000
  C   C813      1.0  0.66089  0.84149  0.53881  1.0000
  C   C814      1.0  0.64420  0.85661  0.53783  1.0000
  H   H1374     1.0  0.98417  0.75212  0.98140  1.0000
  H   H1375     1.0  0.64070  0.86622  0.55950  1.0000
  C   C815      1.0  0.65822  0.74050  0.64188  1.0000
  C   C816      1.0  0.65953  0.76218  0.63194  1.0000
  C   C817      1.0  0.66368  0.77810  0.65535  1.0000
  C   C818      1.0  0.66710  0.77226  0.68864  1.0000
  C   C819      1.0  0.66756  0.75043  0.69805  1.0000
  C   C820      1.0  0.66310  0.73455  0.67466  1.0000
  H   H1376     1.0  0.65682  0.76675  0.60634  1.0000
  H   H1377     1.0  0.66362  0.79491  0.64781  1.0000
  H   H1378     1.0  0.67065  0.74587  0.72368  1.0000
  H   H1379     1.0  0.66292  0.71779  0.68223  1.0000
  H   H1380     1.0  0.58552  0.85462  0.93321  1.0000
  H   H1381     1.0  0.58716  0.79072  0.71170  1.0000
  N   N57       1.0  0.97008  0.93533  0.98900  1.0000
  C   C821      1.0  0.87191  0.68896  0.68019  1.0000
  C   C822      1.0  0.87555  0.68842  0.64578  1.0000
  C   C823      1.0  0.88081  0.70746  0.62811  1.0000
  C   C824      1.0  0.88165  0.72717  0.64457  1.0000
  C   C825      1.0  0.87755  0.72775  0.67887  1.0000
  C   C826      1.0  0.87310  0.70862  0.69673  1.0000
  H   H1382     1.0  0.87481  0.67325  0.63292  1.0000
  H   H1383     1.0  0.88401  0.70690  0.60158  1.0000
  H   H1384     1.0  0.87790  0.74283  0.69177  1.0000
  H   H1385     1.0  0.87019  0.70908  0.72333  1.0000
  N   N58       1.0  0.80277  0.71602  0.67126  1.0000
  C   C827      1.0  0.80021  0.73219  0.69872  1.0000
  C   C828      1.0  0.78189  0.71371  0.65275  1.0000
  C   C829      1.0  0.81079  0.69439  0.68361  1.0000
  H   H1386     1.0  0.73283  0.67395  0.63186  1.0000
  C   C830      1.0  0.76105  0.71127  0.67378  1.0000
  C   C831      1.0  0.79881  0.68365  0.71342  1.0000
  H   H1387     1.0  0.88353  0.83095  0.81453  1.0000
  H   H1388     1.0  0.78722  0.72775  0.71661  1.0000
  H   H1389     1.0  0.78703  0.67160  0.70461  1.0000
  H   H1390     1.0  0.81041  0.68242  0.66331  1.0000
  H   H1391     1.0  0.82813  0.69509  0.69001  1.0000
  H   H1392     1.0  0.60835  0.71939  0.52145  1.0000
  H   H1393     1.0  0.91715  0.88986  0.85276  1.0000
  H   H1394     1.0  0.96705  0.81002  0.66384  1.0000
  H   H1395     1.0  0.74744  0.70829  0.65676  1.0000
  H   H1396     1.0  0.75700  0.72625  0.68723  1.0000
  H   H1397     1.0  0.76153  0.69735  0.69124  1.0000
  C   C832      1.0  0.50873  0.75863  0.99661  1.0000
  H   H1398     1.0  0.79050  0.69486  0.73028  1.0000
  C   C833      1.0  0.94644  0.75014  0.62276  1.0000
  N   N59       1.0  0.62296  0.88892  0.89182  1.0000
  C   C834      1.0  0.64358  0.88248  0.87415  1.0000
  C   C835      1.0  0.62913  0.90170  0.92190  1.0000
  C   C836      1.0  0.61061  0.90347  0.86835  1.0000
  C   C837      1.0  0.61031  0.86879  0.90074  1.0000
  C   C838      1.0  0.64104  0.87120  0.84040  1.0000
  C   C839      1.0  0.64503  0.89047  0.94583  1.0000
  C   C840      1.0  0.58859  0.91171  0.88069  1.0000
  C   C841      1.0  0.59494  0.86982  0.93129  1.0000
  H   H1399     1.0  0.65413  0.89675  0.86971  1.0000
  H   H1400     1.0  0.65314  0.87115  0.88989  1.0000
  H   H1401     1.0  0.61483  0.90640  0.93690  1.0000
  H   H1402     1.0  0.63669  0.91727  0.91400  1.0000
  H   H1403     1.0  0.62048  0.91789  0.86157  1.0000
  H   H1404     1.0  0.60713  0.89532  0.84459  1.0000
  H   H1405     1.0  0.60051  0.86369  0.87919  1.0000
  H   H1406     1.0  0.62130  0.85496  0.90598  1.0000
  H   H1407     1.0  0.65685  0.86437  0.83261  1.0000
  H   H1408     1.0  0.62932  0.85776  0.84175  1.0000
  H   H1409     1.0  0.63647  0.88279  0.82034  1.0000
  C   C842      1.0  0.56194  0.90728  0.97736  1.0000
  H   H1410     1.0  0.90843  0.74539  0.73532  1.0000
  H   H1411     1.0  0.69987  0.96672  0.82918  1.0000
  H   H1412     1.0  0.57638  0.89869  0.88074  1.0000
  H   H1413     1.0  0.58281  0.92435  0.86299  1.0000
  H   H1414     1.0  0.58927  0.91929  0.90536  1.0000
  H   H1415     1.0  0.58315  0.88307  0.92962  1.0000
  H   H1416     1.0  0.75423  0.81763  0.53983  1.0000
  H   H1417     1.0  0.72159  0.85463  0.59280  1.0000
  C   C843      1.0  0.85770  0.82363  0.52061  1.0000
  C   C844      1.0  0.71089  0.98207  0.88655  1.0000
  H   H1418     1.0  0.75930  0.86397  0.59831  1.0000
  H   H1419     1.0  0.65200  0.76049  0.54528  1.0000
  C   C845      1.0  0.50380  0.72095  0.97940  1.0000
  H   H1420     1.0  0.93685  0.74341  0.73989  1.0000
  C   C846      1.0  0.72860  0.95597  0.80380  1.0000
  N   N60       1.0  0.72580  0.96904  0.86475  1.0000
  C   C847      1.0  0.77131  0.82172  0.53526  1.0000
  H   H1421     1.0  0.73669  0.84648  0.55736  1.0000
  H   H1422     1.0  0.96246  0.74282  0.62718  1.0000
  H   H1423     1.0  0.73317  0.94934  0.92925  1.0000
  H   H1424     1.0  0.64096  0.87331  0.95059  1.0000
  C   C848      1.0  0.58022  0.92061  0.97880  1.0000
  H   H1425     1.0  0.52976  0.74162  0.96260  1.0000
  H   H1426     1.0  0.77202  0.83145  0.51179  1.0000
  C   C849      1.0  0.73411  0.84308  0.58420  1.0000
  H   H1427     1.0  0.82724  0.72102  0.73023  1.0000
  H   H1428     1.0  0.72511  0.92291  0.91762  1.0000
  H   H1429     1.0  0.90613  0.91650  0.94559  1.0000
  C   C850      1.0  0.62282  0.79693  0.58432  1.0000
  S   S249      1.0  0.64169  0.67731  0.68942  1.0000
  H   H1430     1.0  0.90393  0.81461  0.86038  1.0000
  H   H1431     1.0  0.61893  0.79571  0.61137  1.0000
  H   H1432     1.0  0.64470  0.89881  0.97012  1.0000
  H   H1433     1.0  0.82941  0.69586  0.62025  1.0000
  C   C851      1.0  0.96687  0.92623  0.95477  1.0000
  H   H1434     1.0  0.63436  0.72974  0.53069  1.0000
  C   C852      1.0  0.72543  0.94552  0.87554  1.0000
  H   H1435     1.0  0.79499  0.74807  0.68817  1.0000
  C   C853      1.0  0.64526  0.77252  0.52727  1.0000
  C   C854      1.0  0.72224  0.94038  0.91303  1.0000
  H   H1436     1.0  0.79950  0.82921  0.56234  1.0000
  H   H1437     1.0  0.91709  0.85166  0.84969  1.0000
  H   H1438     1.0  0.75386  0.80326  0.58924  1.0000
  H   H1439     1.0  0.95021  0.82650  0.68913  1.0000
  C   C855      1.0  0.78450  0.79210  0.60651  1.0000
  C   C856      1.0  0.82047  0.73616  0.71965  1.0000
  H   H1440     1.0  0.71884  0.98730  0.81938  1.0000
  C   C857      1.0  0.76634  0.80909  0.60629  1.0000
  N   N61       1.0  0.77334  0.83186  0.59800  1.0000
  C   C858      1.0  0.78235  0.83451  0.56306  1.0000
  H   H1441     1.0  0.80859  0.71138  0.59934  1.0000
  H   H1442     1.0  0.62326  0.80815  0.51786  1.0000
  H   H1443     1.0  0.79404  0.79320  0.62966  1.0000
  H   H1444     1.0  0.93668  0.94305  0.94048  1.0000
  H   H1445     1.0  0.55053  0.90959  0.95747  1.0000
  H   H1446     1.0  0.92441  0.79619  0.69786  1.0000
  H   H1447     1.0  0.81603  0.74659  0.74091  1.0000
  H   H1448     1.0  0.71574  0.98132  0.91304  1.0000
  H   H1449     1.0  0.75846  0.80840  0.63143  1.0000
  H   H1450     1.0  0.78057  0.80680  0.52990  1.0000
  Fe  Fe125     1.0  0.66513  0.98970  0.95076  1.0000
  C   C859      1.0  0.66536  0.82928  0.51033  1.0000
  H   H1451     1.0  0.98747  0.77148  0.65042  1.0000
  H   H1452     1.0  0.93359  0.73825  0.62862  1.0000
  N   N62       1.0  0.59714  0.74354  0.71858  1.0000
  C   C860      1.0  0.60210  0.73002  0.74923  1.0000
  C   C861      1.0  0.61005  0.76412  0.72047  1.0000
  C   C862      1.0  0.60359  0.73073  0.68844  1.0000
  C   C863      1.0  0.62619  0.72551  0.75581  1.0000
  C   C864      1.0  0.60206  0.78394  0.70044  1.0000
  C   C865      1.0  0.59831  0.74050  0.65396  1.0000
  H   H1453     1.0  0.59540  0.73772  0.77203  1.0000
  H   H1454     1.0  0.88206  0.87973  0.92667  1.0000
  H   H1455     1.0  0.61104  0.76963  0.74672  1.0000
  H   H1456     1.0  0.62693  0.76126  0.71244  1.0000
  H   H1457     1.0  0.62122  0.72804  0.68791  1.0000
  H   H1458     1.0  0.59716  0.71400  0.68976  1.0000
  H   H1459     1.0  0.62754  0.71549  0.77888  1.0000
  H   H1460     1.0  0.63388  0.71616  0.73562  1.0000
  H   H1461     1.0  0.63549  0.74047  0.75995  1.0000
  H   H1462     1.0  0.59949  0.78067  0.67387  1.0000
  H   H1463     1.0  0.61454  0.79677  0.70144  1.0000
  H   H1464     1.0  0.61141  0.75143  0.64513  1.0000
  H   H1465     1.0  0.58267  0.74895  0.65304  1.0000
  H   H1466     1.0  0.59689  0.72724  0.63585  1.0000
  H   H1467     1.0  0.91154  0.82139  0.95993  1.0000
  H   H1468     1.0  0.90571  0.80427  0.92590  1.0000
  H   H1469     1.0  0.89322  0.89106  0.87729  1.0000
  H   H1470     1.0  0.85470  0.87244  0.93390  1.0000
  H   H1471     1.0  0.81265  0.86282  0.63741  1.0000
  N   N63       1.0  0.89203  0.84317  0.88521  1.0000
  C   C866      1.0  0.88830  0.82221  0.86750  1.0000
  C   C867      1.0  0.90792  0.83868  0.91260  1.0000
  C   C868      1.0  0.90207  0.85872  0.86023  1.0000
  C   C869      1.0  0.87066  0.85156  0.89806  1.0000
  H   H1472     1.0  0.66178  0.89167  0.93596  1.0000
  C   C870      1.0  0.90183  0.82012  0.93697  1.0000
  C   C871      1.0  0.90786  0.88125  0.87271  1.0000
  C   C872      1.0  0.87110  0.86582  0.92929  1.0000
  H   H1473     1.0  0.87020  0.80704  0.82812  1.0000
  H   H1474     1.0  0.88010  0.81027  0.88428  1.0000
  H   H1475     1.0  0.91078  0.85309  0.92779  1.0000
  H   H1476     1.0  0.92402  0.83463  0.90183  1.0000
  H   H1477     1.0  0.72728  0.82678  0.58847  1.0000
  H   H1478     1.0  0.89127  0.86174  0.83877  1.0000
  H   H1479     1.0  0.86227  0.86094  0.87817  1.0000
  H   H1480     1.0  0.85953  0.83803  0.90460  1.0000
  H   H1481     1.0  0.59203  0.75597  0.52212  1.0000
  H   H1482     1.0  0.92754  0.77845  0.63383  1.0000
  H   H1483     1.0  0.58269  0.93331  0.96043  1.0000
  H   H1484     1.0  0.74034  0.93711  0.86712  1.0000
  H   H1485     1.0  0.65294  0.78783  0.53476  1.0000
  H   H1486     1.0  0.72691  0.93858  0.81014  1.0000
  C   C873      1.0  0.82319  0.71228  0.61485  1.0000
  H   H1487     1.0  0.83305  0.74504  0.70518  1.0000
  H   H1488     1.0  0.60375  0.87123  0.95502  1.0000
  C   C874      1.0  0.87445  0.82360  0.83582  1.0000
  N   N64       1.0  0.62108  0.77413  0.53068  1.0000
  H   H1489     1.0  0.59433  0.71394  0.74811  1.0000
  H   H1490     1.0  0.91071  0.76300  0.68189  1.0000
  H   H1491     1.0  0.81506  0.74195  0.63930  1.0000
  H   H1492     1.0  0.56113  0.71934  0.69484  1.0000
  H   H1493     1.0  0.78580  0.83299  0.64776  1.0000
  H   H1494     1.0  0.80578  0.82813  0.61732  1.0000
  H   H1495     1.0  0.54128  0.73458  0.71674  1.0000
  C   C875      1.0  0.55822  0.72884  0.71762  1.0000
  H   H1496     1.0  0.78533  0.87148  0.63548  1.0000
  C   C876      1.0  0.91922  0.88877  0.97135  1.0000
  S   S250      1.0  0.88016  0.93908  0.99227  1.0000
  C   C877      1.0  0.79766  0.86145  0.62275  1.0000
  C   C878      1.0  0.79083  0.83755  0.62214  1.0000
  H   H1497     1.0  0.80120  0.86806  0.59747  1.0000
  C   C879      1.0  0.96534  0.75999  0.69047  1.0000
  H   H1498     1.0  0.82015  0.86349  0.52123  1.0000
  H   H1499     1.0  0.96590  0.74274  0.68327  1.0000
  H   H1500     1.0  0.62286  0.76242  0.58194  1.0000
  Fe  Fe126     1.0  0.63954  0.68922  0.63640  1.0000
  H   H1501     1.0  0.59788  0.77456  0.57160  1.0000
  H   H1502     1.0  0.77735  0.77571  0.60648  1.0000
  C   C880      1.0  0.95039  0.81202  0.67319  1.0000
  C   C881      1.0  0.90664  0.90754  0.96891  1.0000
  H   H1503     1.0  0.95563  0.78264  0.63046  1.0000
  H   H1504     1.0  0.61984  0.87188  0.50750  1.0000
  H   H1505     1.0  0.79538  0.79372  0.58451  1.0000
  C   C882      1.0  0.60977  0.75439  0.51815  1.0000
  H   H1506     1.0  0.78262  0.85184  0.55542  1.0000
  H   H1507     1.0  0.94917  0.79322  0.71885  1.0000
  C   C883      1.0  0.61260  0.79415  0.51330  1.0000
  C   C884      1.0  0.92621  0.75640  0.69127  1.0000
  C   C885      1.0  0.94182  0.79249  0.69370  1.0000
  H   H1508     1.0  0.92738  0.73975  0.68160  1.0000
  H   H1509     1.0  0.69437  0.97509  0.88629  1.0000
  H   H1510     1.0  0.74995  0.84648  0.63091  1.0000
  C   C886      1.0  0.92388  0.75372  0.72947  1.0000
  H   H1511     1.0  0.71193  0.93689  0.86345  1.0000
  C   C887      1.0  0.61561  0.77593  0.56735  1.0000
  H   H1512     1.0  0.85919  0.83252  0.83995  1.0000
  S   S251      1.0  0.51322  0.69864  0.95512  1.0000
  H   H1513     1.0  0.69620  0.66370  0.65141  1.0000
  C   C888      1.0  0.98632  0.77068  0.67798  1.0000
  H   H1514     1.0  0.74585  0.96007  0.80018  1.0000
  S   S252      1.0  0.60554  0.67805  0.63029  1.0000
  H   H1515     1.0  0.59654  0.79869  0.52382  1.0000
  C   C889      1.0  0.61684  0.73270  0.53397  1.0000
  H   H1516     1.0  0.64043  0.79968  0.58231  1.0000
  H   H1517     1.0  0.83580  0.72062  0.59958  1.0000
  C   C890      1.0  0.71740  0.97059  0.82960  1.0000
  C   C891      1.0  0.73390  0.98239  0.98799  1.0000
  H   H1518     1.0  0.83534  0.72628  0.65882  1.0000
  Fe  Fe127     1.0  0.50759  0.66242  0.94432  1.0000
  H   H1519     1.0  0.96620  0.75989  0.71814  1.0000
  H   H1520     1.0  0.61242  0.73143  0.56078  1.0000
  C   C892      1.0  0.83086  0.85129  0.51149  1.0000
  H   H1521     1.0  0.74986  0.99168  0.91494  1.0000
  H   H1522     1.0  0.55726  0.68638  0.77782  1.0000
  H   H1523     1.0  0.86028  0.67223  0.50409  1.0000
  H   H1524     1.0  0.98258  0.92323  0.94199  1.0000
  H   H1525     1.0  0.72190  0.90214  0.50726  1.0000
  H   H1526     1.0  0.96476  0.96902  0.97618  1.0000
  C   C893      1.0  0.97748  0.95842  0.98697  1.0000
  H   H1527     1.0  0.74911  0.99372  0.85135  1.0000
  H   H1528     1.0  0.51783  0.77347  0.99495  1.0000
  C   C894      1.0  0.55967  0.66917  0.78014  1.0000
  S   S253      1.0  0.58294  0.67349  0.72146  1.0000
  H   H1529     1.0  0.72507  0.96765  0.98422  1.0000
  H   H1530     1.0  0.60149  0.67200  0.87937  1.0000
  H   H1531     1.0  0.77518  0.98818  0.89465  1.0000
  C   C895      1.0  0.71463  0.88771  0.51948  1.0000
  H   H1532     1.0  0.95114  0.93084  0.90716  1.0000
  Fe  Fe128     1.0  0.60837  0.66391  0.68234  1.0000
  S   S254      1.0  0.99421  0.84411  0.97906  1.0000
  S   S255      1.0  0.63222  0.99266  0.97543  1.0000
  H   H1533     1.0  0.70580  0.85494  0.50964  1.0000
  H   H1534     1.0  0.93647  0.94431  0.99462  1.0000
  H   H1535     1.0  0.54027  0.66629  0.82526  1.0000
  S   S256      1.0  0.53621  0.87339  0.99696  1.0000
  H   H1536     1.0  0.97386  0.88960  0.99597  1.0000
  C   C896      1.0  0.89496  0.91498  0.99659  1.0000
