data_image0
_chemical_formula_structural       CHSH2SHC2FeS2FeSHFeSCS2HC3H4C2HCH2FeC6H4SC2H3CH4CHC2HC3H2CHCHFeH2CHC2H5CHNH6CHCHCH9CH4NC2NCHSCH3CHC2H2CH3CHCH4CH4NCH2CH2CH3CHCH3CHCH4SCH2SH2C3SCFe2HNFeSH2FeS2FeS2FeSFeS3FeS2H4CFeSCSC6H4CHC6H6CHSCH3C4H2CH3C8H5CHSHC2NH2NH2CHCH5NHCHC2H2C2H3CFeHC2H3CH2CHC2H3CHCH2C2HCH2CNH2C2H5CHCH2C2HCH4CH3CHNH2SCFeHSH5NH4CHCHCHCH5SHCHSHCH4CHCH2C3H3CH2CSH7CHCHCHC3HCHFeH4C2H3NSH2CH2SH3CHC2H4CHC2H3CHCH3CH8CSHCSHFeS2C2H2NH3SCHCHFeCHSH2CHFeS2FeS2FeSFeS3FeS2FeS2FeSFeS3FeCH4C8H4C3H7C4H5NC6H4CHC2H2CHC2HNC7H4C6H6CH2SHCHCHC3H7CH3CH5CHNCHCHC2H5CH2FeH6CH2CFeHSCNC6HCH3CH8CFeH4CHNC5H18NSHCH3C3SCHCSCHCH3CHCHSH6CSH2CH4CHCHCH2CH3SHFeH4CHFeHCH3NHCSH2CH4CHCSH4C2FeSFeHSCHCH3NSHC6H4C4H7C3HCNHCHC2H2CH3CHS3CH2SHFeHCSH2CH3CHSC2H5FeH2CHSH2C3HCHFeHC2H5C2H2CH3CHNH6C3H5CFeSHFeSFeS3HCH3SH5CFeS2FeS2FeSFeS3HC6H4C6H4SH2CFeC3HC4HNH3CH2CHC3H3CHC6H4CHCH3C3H2CNH2CH5C2H2C2H7C4HSHCH2CH4C5H5FeHNC3H2C3H6NSH4CNHCH11CH3CH2CHCH7SH10C3HCH4CH2CHSH3C2H4CH3C2H4NHC2HCH3C2H3NCH3SHSHFeS2FeSFeSFeS3FeS2FeS2FeSFeS3C2SCHC6H4C2HCH2FeC6H6C6H4CHCHC2H3CFeH2SC6H4C2SHCFeCH6FeHCHCH3CH4CFeH6FeSHNH4CHCH4NFeSCH2CSCNC6H12CNC8H19NC8H15C2HCH2NHCHCHSHCH2CHCHCHC2HC2HC2HCSNH3SH4SH3C2H8CHCH4C2HNCHCH2C2H2Fe2CSH2C2H5C3SHCHCH6CH3SHNSH2CHFeS2FeS2Fe2S3FeS2FeS2FeHFeS3HS2H3FeS2FeSFeSFeS3HCFeHC2HC2H3C6H2CHC6H7CHCHCFeHC6H4C7H2C6H4CH5NCHSHCH2CNC5NSCH4SH4CHNH3CH2NH4CH5CH7CH6CH2CH5SC4HC2H2C2H3NCH2C6H12C4H3CH3C2H5CH2CH2CHC2H2CHCSHCH6CH7CHCHCH9C2H3FeC2HC2NCH2CH9C2HCH7CH6CHC3FeH2C2H10CHFeS2HFeS2CFe2SHSCFeS2FeS2FeHFeS3CH2C2SCHC6H4CHC2HCH2SHS2CH2SHFeHC6H6NC2H4NC6H14NC8H15C3HFeHCH6SCH6CH6SH3CH3CH2CH3C2HCFeC3H9FeC3HSHCH2CNFeC3H6CHC2H2CHNHCHCFeSFeS2FeSFeS3HCHSFeS2FeSCFeSFeS3FeS2FeS2FeSFeS3C2HCH3C6H4C6H8CH7C2H2CH2C6H4C6H4C4HNHC3H2CHSHSH3CH2S3H3CH6CHCH2C2H5CNC8H20SHCHC3H10CFeCHSH4SH5NH3FeHC2H3SCH2C2H3CH3CHSHCHFeCNHC2H2NC3H7SHCH3FeHCH2CH2CHCH2C2H2C5FeCHC4H7C2HCH3CHCH4C2HFeH3CH5CH2CSHCH2NH4SH3CHSNSCHSHFeSFeSHCFeS2FeS2FeCFeS3CHC5H3C7H2SC6HCH2C7H3CNH2C2HFeCHC2HCH6FeCH2CHNCH5NHNCH9SHC2H10C2HCHSC3HC2H4CH2C2H6CH2CNHCHCH2CH4CH7CH6C2H4CH2C2H2CH2CH6C4NH7CH2C4H7S2H4C3H4CFeCHFeS2FeSHFeCFeS3FeS2FeS2FeHFeS2HS2CHSH2C5H3SH8C7H5NC2HC2HC6H4CSHCH3C3HC3H2SH3SHC2HC3H3SHC2H9CNC8H13CH3CH2CNHSCHCHFeH7C2SH3NHC2HCH8CH3CH4C3SHFeCH2CH3C3H2CHSH4CH3SH3CHCH9FeS2FeS2FeSFeS3HFeS2Fe2S3H3FeCHSCFeS2FeSFeCS4CSFeSCS2HCHCSCSHC6H9CH2C2H2C6H4CHSH2C3HC6H4C6H4C4H2NC6H2CHSHCH2SH2CHCH8NH8C3HCH2NFeH7CH3FeH3C2NHNC8H19C2H2CSNCH3CH4CHCSH3C2HC2H8C2H2CHC2HSH2C2HSHSHCFe2HCHSHNHC2SHCFeC4HCH4C2HNHC2H2NCSH2CH5SCHSFeCHC2HCNCSC2H2CHCFeH2CHCH8C2HC2HC2H5C2H7CFeH2CH4CHCHC2H4C2H3CH5CH4CHNH4CHCH5CH8C2H5CHC2H6CFeS2FeSHSC3SHCFeS2FeS2FeSFeS3FeS2FeS2FeSFeS3HCSCH2CH3C6SH3C2H2C3H3C2H5FeC6H4NHC8H4C6H6SFeC2H3SHC2H2NFe2H4CFeCH2SCNCH2C2HSH5CH2NH4C3H3FeHNC8H22C4H10CHC2HCH3CH2CSCSHCH4CHCH3CH3FeH2FeHCH3CSHC3HCH2CHCH2CH2C2H3CH6CHCSC3NH4CH2CHC2H3CSH3C2H3NHSCHCHC4HCHC2H9NH2C2H3SCH7CS2HFeSFeSHCSCFeCHS2H5SC4H4C4SFeH3CHS2HC2H2C2SH2CSC2H4CH6NH2C2HCSH5C2H2NH6CHC2HCHC5H3CH2CH2SCH3CHC2NC2H2CH4SH3C2HCHC2HCH4CH2C2H6CHCHCH3NHCHSCHCFeH3C2H2C2H2NH2C2HSHC3HCH2FeSHFeS2FeSFeS3HCFeCSFeCS2HSHSH2C3H2C2NSHFeSFe2S2FeS2FeSHSCHCHC4H5C2HC3HSH3CHC2H2C6H5C3H3SHCSC2H3C6H4C6H4CHC3H4SH3NSHSCH3C2HCH2FeH2CHCH2C2H3CHFeH2SH3FeNC6HCH11CHCHCNH3NC5HC2H8SH4CH6NC8H24SH4CHCH2C2H2CHCSH3CFeCHNH2C2HC2FeHSCH6C6HSCH2FeC2H2CHSC2HSH3CH6SH4CH2C2HSH5SC3H2CHC2SH2C2H4C5H5FeSHFeS2FeSFeHS2FeS2FeS2FeSHS2H3C2HCH4NCH4CH2C3HC2H3C6H5C5H3FeH2CH2C2H3SHC2H3CHCH2CHCH3C2H2C2H3C3H3CHCH3C3HCH3NHC3H2CH4CSC2NH2C2H6CHC3HCH10CH5CH2CHC2H5C2HNCNH4CSHCFeHSH2CFeHSHSHSFeS2FeS2FeSFeS3FeSCFeS2FeSHFeSHFeSFeS3C3H2CSHCHC2H2C6H4C6H4CHC4H3CH3CFeCNC6H4NCHC7H5CSH3C5H2CHCH4C2SH2CH2C3HCH11NC7H19C2NH3CHCH3SHCH2SH2C2H3CH3CH2CH2CHCHCSH2C2HCHC2H2FeHCH3FeC2H3C3H5C3H3CH2CHC2FeS2CH2FeSH2NCSH6CHSH3SH5CH4CHNH2SH2C2H5CHCH3SCH2SH2SCH2CH2FeS2FeSCHS2H4CFeS2FeSCFeSFeS3FeS2FeS2FeCFeS3C7H5C6H4C6H4C4HCHCH7C2H2CHC2H2FeHCHCNC8H20CH2C2H2CNHFeCHCH5NCHCHSH2CH2CNC2HC2HCH4CH11CH2CH3CH6CH3SHSH7CH2C2H5CHC2H3CH4CHC2H3NHFeC2H2CH2C4H2C2H2FeH4SC3SHSH6CNCH2C2H7NH3CSCHCHCH6C2H5CH3C2H3FeHSFeCSH2FeS3FeS2FeS2CHC2HCHSC6H4C4HCH2SFeHFeH2CH7C6H4CNSC4HC2H8C2H2CH2SCHCH4C3NH3C2FeHCH2C2H2CH3SCNH11SH2CH2CH4CH7CH6CHCH3CNCH2FeS2FeCFeHSFeS2FeS2FeSFeS3HC2H2C3HCFeS2FeSFeS2H2C2H3CHC3H2CH4C6H4C2H2C2H4C3HSH2NH2C6H8CH7CHCH5CHSNCH3CNSH3C2HC2HC2HCHFeH4CH2CSH5CH2CHCHCH3S2NCH2CH4CHCH2NH3C2HSHSC3H3C2H2C2HC2HCHCH5CH3CH3CHCH5NCH4CH7CH5CH2FeH3SCSH2CFeSNFeSHFe2S3HCHCH2SCH2C2H3CSH2FeS2FeS2FeS2FeS2FeSFeS3FeHSH2CSHC6H5C5H3C6H5C6H6CH4CHCSHC6H4C2H5SC2NC8H9CH11CH2CH3CHCHCHCH3C2H4FeC2H14SCHC2SH3CHC3HCNHCH6CHCH3CH3CSH2C2H10CHCH5NHFeH4FeNH2NC3H3C2SH4CH2FeCH2CH2CH2CH3CHFeS2CHCFeCFeCHSFeS2FeSHFeSFeS3CNFeS2FeS2FeSFeHS2CNHC7H6NH2NH2C6H4C7H5C2H8C2HCH5C2H2NC8H21CH7CNCH8CHC3H2CHC2HSH6CH2C3H7SCH4CH6C3H2C3FeH4CHSHCHS2H4CHCH3CHCFeH2SHCHCSFeS2H2FeHS2FeSHFeS2Fe2S3H2C6H4SHC3HCH4CH2FeHFeC2H3FeH2C8H4C2SH2C2H2CHCHN2C3HCH3CH5CH11C2H7SH3SHC2H3CH2CHCHSHCNSC2HC2SH2C2H5CH9CH3C3SH2C3H2CH3C2H2N2C8H10CH2SH2CSFeHFeH9C
_chemical_formula_sum              "C2016 H3456 S576 Fe288 N144"
_cell_length_a       68.5562
_cell_length_b       68.2612
_cell_length_c       70.1739
_cell_angle_alpha    79.2271
_cell_angle_beta     78.8234
_cell_angle_gamma    79.04

_space_group_name_H-M_alt    "P 1"
_space_group_IT_number       1

loop_
  _space_group_symop_operation_xyz
  'x, y, z'

loop_
  _atom_site_type_symbol
  _atom_site_label
  _atom_site_symmetry_multiplicity
  _atom_site_fract_x
  _atom_site_fract_y
  _atom_site_fract_z
  _atom_site_occupancy
  C   C1        1.0  0.31599  0.06580  0.19559  1.0000
  H   H1        1.0  0.30139  0.33746  0.07728  1.0000
  S   S1        1.0  0.28225  0.35968  0.03271  1.0000
  H   H2        1.0  0.13067  0.45415  0.13032  1.0000
  H   H3        1.0  0.14945  0.38294  0.14866  1.0000
  S   S2        1.0  0.14406  0.34892  0.20933  1.0000
  H   H4        1.0  0.01437  0.47467  0.01665  1.0000
  C   C2        1.0  0.12173  0.44219  0.13798  1.0000
  C   C3        1.0  0.02316  0.47292  0.02880  1.0000
  Fe  Fe1       1.0  0.18734  0.43600  0.13899  1.0000
  S   S3        1.0  0.21691  0.44775  0.12956  1.0000
  S   S4        1.0  0.16858  0.43406  0.16951  1.0000
  Fe  Fe2       1.0  0.18371  0.43280  0.09742  1.0000
  S   S5        1.0  0.21284  0.44371  0.08422  1.0000
  H   H5        1.0  0.02319  0.46819  0.06635  1.0000
  Fe  Fe3       1.0  0.22482  0.42381  0.10991  1.0000
  S   S6        1.0  0.25652  0.40670  0.10568  1.0000
  C   C4        1.0  0.10631  0.44070  0.07288  1.0000
  S   S7        1.0  0.19650  0.41047  0.12143  1.0000
  S   S8        1.0  0.17271  0.45751  0.11557  1.0000
  H   H6        1.0  0.10763  0.44528  0.13167  1.0000
  C   C5        1.0  0.16278  0.41024  0.18149  1.0000
  C   C6        1.0  0.17228  0.39262  0.17405  1.0000
  C   C7        1.0  0.16660  0.37392  0.18302  1.0000
  H   H7        1.0  0.29780  0.45316  0.07175  1.0000
  H   H8        1.0  0.17976  0.47351  0.16140  1.0000
  H   H9        1.0  0.08232  0.39092  0.12627  1.0000
  H   H10       1.0  0.18410  0.39332  0.16143  1.0000
  C   C8        1.0  0.13812  0.38468  0.13880  1.0000
  C   C9        1.0  0.31594  0.08838  0.18704  1.0000
  H   H11       1.0  0.11174  0.41342  0.11373  1.0000
  C   C10       1.0  0.02909  0.27388  0.22187  1.0000
  H   H12       1.0  0.30988  0.33459  0.11923  1.0000
  H   H13       1.0  0.30511  0.06071  0.18845  1.0000
  Fe  Fe4       1.0  0.20303  0.46685  0.10446  1.0000
  C   C11       1.0  0.27523  0.37306  0.05279  1.0000
  C   C12       1.0  0.25476  0.37948  0.05944  1.0000
  C   C13       1.0  0.24880  0.38980  0.07572  1.0000
  C   C14       1.0  0.26331  0.39348  0.08555  1.0000
  C   C15       1.0  0.28375  0.38717  0.07884  1.0000
  C   C16       1.0  0.28971  0.37723  0.06235  1.0000
  H   H14       1.0  0.24347  0.37646  0.05201  1.0000
  H   H15       1.0  0.23298  0.39479  0.08071  1.0000
  H   H16       1.0  0.29502  0.39036  0.08617  1.0000
  H   H17       1.0  0.30551  0.37291  0.05701  1.0000
  S   S9        1.0  0.16437  0.42279  0.07985  1.0000
  C   C17       1.0  0.26684  0.46025  0.08433  1.0000
  C   C18       1.0  0.11426  0.40334  0.16278  1.0000
  H   H18       1.0  0.24803  0.45596  0.05297  1.0000
  H   H19       1.0  0.09318  0.41708  0.13473  1.0000
  H   H20       1.0  0.26372  0.30612  0.07517  1.0000
  C   C19       1.0  0.10226  0.46070  0.07640  1.0000
  H   H21       1.0  0.13031  0.38937  0.21999  1.0000
  H   H22       1.0  0.11480  0.37051  0.17335  1.0000
  H   H23       1.0  0.30937  0.30675  0.06566  1.0000
  H   H24       1.0  0.10256  0.41680  0.16497  1.0000
  C   C20       1.0  0.09869  0.38706  0.12699  1.0000
  H   H25       1.0  0.05351  0.30373  0.20112  1.0000
  C   C21       1.0  0.28151  0.46952  0.03983  1.0000
  C   C22       1.0  0.13661  0.45771  0.08223  1.0000
  H   H26       1.0  0.31826  0.30096  0.11691  1.0000
  C   C23       1.0  0.15131  0.37266  0.19945  1.0000
  C   C24       1.0  0.14989  0.38368  0.11784  1.0000
  C   C25       1.0  0.10433  0.38502  0.17360  1.0000
  H   H27       1.0  0.12623  0.40430  0.17104  1.0000
  H   H28       1.0  0.26312  0.30709  0.14001  1.0000
  C   C26       1.0  0.10643  0.40631  0.12904  1.0000
  H   H29       1.0  0.14053  0.42254  0.20425  1.0000
  C   C27       1.0  0.29706  0.43302  0.04155  1.0000
  H   H30       1.0  0.06729  0.31358  0.21569  1.0000
  Fe  Fe5       1.0  0.31488  0.34577  0.02550  1.0000
  H   H31       1.0  0.11844  0.44386  0.15377  1.0000
  H   H32       1.0  0.27683  0.28784  0.11027  1.0000
  C   C28       1.0  0.29735  0.33142  0.09312  1.0000
  H   H33       1.0  0.07293  0.26926  0.20857  1.0000
  C   C29       1.0  0.07287  0.28029  0.21843  1.0000
  C   C30       1.0  0.12552  0.42935  0.07369  1.0000
  H   H34       1.0  0.28411  0.03232  0.22040  1.0000
  H   H35       1.0  0.29628  0.41774  0.05027  1.0000
  H   H36       1.0  0.30549  0.26816  0.11719  1.0000
  H   H37       1.0  0.26867  0.48022  0.04629  1.0000
  H   H38       1.0  0.30088  0.09755  0.19037  1.0000
  C   C31       1.0  0.13416  0.42131  0.13485  1.0000
  H   H39       1.0  0.17402  0.36036  0.17710  1.0000
  N   N1        1.0  0.12291  0.40353  0.14128  1.0000
  H   H40       1.0  0.26067  0.44275  0.01949  1.0000
  H   H41       1.0  0.28206  0.34001  0.09746  1.0000
  H   H42       1.0  0.04042  0.26979  0.20913  1.0000
  H   H43       1.0  0.24081  0.43177  0.03579  1.0000
  H   H44       1.0  0.02015  0.45830  0.03801  1.0000
  H   H45       1.0  0.29522  0.43138  0.02662  1.0000
  C   C32       1.0  0.14201  0.39023  0.20721  1.0000
  H   H46       1.0  0.12862  0.41399  0.07066  1.0000
  C   C33       1.0  0.14069  0.43778  0.07841  1.0000
  H   H47       1.0  0.09978  0.38665  0.18939  1.0000
  C   C34       1.0  0.11740  0.46920  0.08116  1.0000
  H   H48       1.0  0.09034  0.38453  0.16815  1.0000
  H   H49       1.0  0.10584  0.38194  0.11276  1.0000
  H   H50       1.0  0.31973  0.26749  0.09258  1.0000
  H   H51       1.0  0.14019  0.38874  0.10635  1.0000
  H   H52       1.0  0.10041  0.37434  0.13913  1.0000
  H   H53       1.0  0.27321  0.32978  0.06833  1.0000
  H   H54       1.0  0.13127  0.37077  0.14338  1.0000
  H   H55       1.0  0.28493  0.31884  0.13361  1.0000
  H   H56       1.0  0.28521  0.43182  0.07930  1.0000
  C   C35       1.0  0.31211  0.33903  0.10308  1.0000
  H   H57       1.0  0.27920  0.06691  0.21479  1.0000
  H   H58       1.0  0.16214  0.39290  0.11472  1.0000
  H   H59       1.0  0.14046  0.42270  0.11893  1.0000
  H   H60       1.0  0.09467  0.43409  0.06915  1.0000
  N   N2        1.0  0.29711  0.30879  0.09620  1.0000
  C   C36       1.0  0.29596  0.30315  0.07668  1.0000
  C   C37       1.0  0.14785  0.40898  0.19831  1.0000
  N   N3        1.0  0.28059  0.44831  0.05051  1.0000
  C   C38       1.0  0.27874  0.30361  0.11057  1.0000
  H   H61       1.0  0.26566  0.41788  0.03383  1.0000
  S   S10       1.0  0.07816  0.47462  0.07471  1.0000
  C   C39       1.0  0.30037  0.02699  0.21594  1.0000
  H   H62       1.0  0.31993  0.08994  0.17077  1.0000
  H   H63       1.0  0.14743  0.41909  0.14249  1.0000
  H   H64       1.0  0.29627  0.28666  0.07772  1.0000
  C   C40       1.0  0.25694  0.43336  0.03391  1.0000
  H   H65       1.0  0.30971  0.35579  0.10022  1.0000
  C   C41       1.0  0.13261  0.47900  0.18071  1.0000
  C   C42       1.0  0.31809  0.27369  0.10641  1.0000
  H   H66       1.0  0.26484  0.31345  0.10626  1.0000
  H   H67       1.0  0.14835  0.46447  0.08546  1.0000
  C   C43       1.0  0.27695  0.31337  0.06772  1.0000
  H   H68       1.0  0.28680  0.29135  0.13980  1.0000
  H   H69       1.0  0.27948  0.31155  0.05197  1.0000
  H   H70       1.0  0.30399  0.02778  0.19974  1.0000
  C   C44       1.0  0.27890  0.30544  0.13208  1.0000
  H   H71       1.0  0.15723  0.36790  0.11661  1.0000
  C   C45       1.0  0.31624  0.29696  0.10286  1.0000
  H   H72       1.0  0.12378  0.46681  0.18114  1.0000
  H   H73       1.0  0.27073  0.45809  0.09932  1.0000
  H   H74       1.0  0.28774  0.08706  0.22168  1.0000
  H   H75       1.0  0.28902  0.46081  0.00985  1.0000
  C   C46       1.0  0.04575  0.46977  0.01993  1.0000
  H   H76       1.0  0.00657  0.36124  0.21826  1.0000
  H   H77       1.0  0.15008  0.47445  0.15246  1.0000
  H   H78       1.0  0.04941  0.45594  0.01289  1.0000
  H   H79       1.0  0.32109  0.45182  0.03053  1.0000
  N   N4        1.0  0.31086  0.06101  0.21765  1.0000
  C   C47       1.0  0.06791  0.30164  0.20679  1.0000
  H   H80       1.0  0.07993  0.30393  0.19385  1.0000
  H   H81       1.0  0.25206  0.45520  0.08621  1.0000
  C   C48       1.0  0.28362  0.44768  0.07141  1.0000
  H   H82       1.0  0.01712  0.28524  0.21562  1.0000
  H   H83       1.0  0.18101  0.47644  0.18586  1.0000
  C   C49       1.0  0.26013  0.44266  0.05127  1.0000
  H   H84       1.0  0.25653  0.43129  0.06448  1.0000
  H   H85       1.0  0.05554  0.46759  0.03127  1.0000
  H   H86       1.0  0.14527  0.47200  0.18874  1.0000
  C   C50       1.0  0.31879  0.43707  0.03967  1.0000
  H   H87       1.0  0.26478  0.47652  0.01502  1.0000
  C   C51       1.0  0.28063  0.47328  0.01763  1.0000
  H   H88       1.0  0.26533  0.47667  0.07872  1.0000
  H   H89       1.0  0.29492  0.47527  0.04205  1.0000
  H   H90       1.0  0.30331  0.01074  0.22236  1.0000
  C   C52       1.0  0.28931  0.07028  0.22399  1.0000
  H   H91       1.0  0.08889  0.27849  0.22043  1.0000
  C   C53       1.0  0.31389  0.03838  0.22364  1.0000
  H   H92       1.0  0.32068  0.08645  0.22541  1.0000
  H   H93       1.0  0.32335  0.43597  0.05419  1.0000
  H   H94       1.0  0.11760  0.17212  0.47263  1.0000
  H   H95       1.0  0.20562  0.25686  0.29808  1.0000
  S   S11       1.0  0.07969  0.17098  0.45523  1.0000
  C   C54       1.0  0.22671  0.23918  0.27677  1.0000
  H   H96       1.0  0.22564  0.20304  0.26879  1.0000
  H   H97       1.0  0.99884  0.39624  0.31044  1.0000
  S   S12       1.0  0.30794  0.05067  0.29237  1.0000
  H   H98       1.0  0.18749  0.23248  0.28449  1.0000
  H   H99       1.0  0.04505  0.39696  0.27066  1.0000
  C   C55       1.0  0.28028  0.06398  0.24576  1.0000
  C   C56       1.0  0.13348  0.34837  0.31978  1.0000
  C   C57       1.0  0.14712  0.03791  0.39099  1.0000
  S   S13       1.0  0.30382  0.10538  0.26140  1.0000
  C   C58       1.0  0.01222  0.02836  0.46467  1.0000
  Fe  Fe6       1.0  0.07374  0.34257  0.24317  1.0000
  Fe  Fe7       1.0  0.99487  0.44365  0.36619  1.0000
  H   H100      1.0  0.13895  0.01696  0.37599  1.0000
  N   N5        1.0  0.13741  0.00303  0.40679  1.0000
  Fe  Fe8       1.0  0.30186  0.12580  0.28358  1.0000
  S   S14       1.0  0.27194  0.14604  0.28966  1.0000
  H   H101      1.0  0.13017  0.99079  0.44929  1.0000
  H   H102      1.0  0.14342  0.98448  0.37017  1.0000
  Fe  Fe9       1.0  0.17255  0.19140  0.38386  1.0000
  S   S15       1.0  0.19627  0.19017  0.40223  1.0000
  S   S16       1.0  0.15691  0.16425  0.38957  1.0000
  Fe  Fe10      1.0  0.18033  0.23168  0.35917  1.0000
  S   S17       1.0  0.20452  0.23366  0.37594  1.0000
  S   S18       1.0  0.17663  0.25742  0.33385  1.0000
  Fe  Fe11      1.0  0.21500  0.20085  0.37348  1.0000
  S   S19       1.0  0.24827  0.18926  0.36508  1.0000
  Fe  Fe12      1.0  0.18362  0.22285  0.40305  1.0000
  S   S20       1.0  0.17448  0.23788  0.43030  1.0000
  S   S21       1.0  0.19220  0.19955  0.35496  1.0000
  S   S22       1.0  0.15843  0.22351  0.38647  1.0000
  Fe  Fe13      1.0  0.09303  0.35493  0.27334  1.0000
  S   S23       1.0  0.07379  0.33134  0.27514  1.0000
  S   S24       1.0  0.08736  0.37547  0.29616  1.0000
  H   H103      1.0  0.21014  0.26987  0.27409  1.0000
  H   H104      1.0  0.05151  0.24922  0.25818  1.0000
  H   H105      1.0  0.01449  0.48056  0.40804  1.0000
  H   H106      1.0  0.02855  0.44570  0.40491  1.0000
  C   C59       1.0  0.11643  0.01235  0.41505  1.0000
  Fe  Fe14      1.0  0.10306  0.31160  0.26601  1.0000
  S   S25       1.0  0.10749  0.27912  0.28141  1.0000
  C   C60       1.0  0.00573  0.35024  0.23156  1.0000
  S   S26       1.0  0.12243  0.33452  0.26645  1.0000
  C   C61       1.0  0.15814  0.26166  0.31858  1.0000
  C   C62       1.0  0.15851  0.27798  0.30313  1.0000
  C   C63       1.0  0.14325  0.28314  0.29151  1.0000
  C   C64       1.0  0.12751  0.27192  0.29509  1.0000
  C   C65       1.0  0.12752  0.25505  0.31007  1.0000
  C   C66       1.0  0.14277  0.24997  0.32189  1.0000
  H   H107      1.0  0.17048  0.28695  0.30034  1.0000
  H   H108      1.0  0.14376  0.29575  0.27968  1.0000
  H   H109      1.0  0.11545  0.24621  0.31288  1.0000
  H   H110      1.0  0.14239  0.23731  0.33375  1.0000
  C   C67       1.0  0.18630  0.22929  0.45122  1.0000
  H   H111      1.0  0.20897  0.20685  0.43843  1.0000
  C   C68       1.0  0.26601  0.15722  0.31110  1.0000
  C   C69       1.0  0.28034  0.16536  0.31757  1.0000
  C   C70       1.0  0.27481  0.17516  0.33422  1.0000
  C   C71       1.0  0.25494  0.17687  0.34438  1.0000
  C   C72       1.0  0.24071  0.16860  0.33792  1.0000
  C   C73       1.0  0.24620  0.15893  0.32126  1.0000
  H   H112      1.0  0.29552  0.16456  0.30946  1.0000
  H   H113      1.0  0.28583  0.18171  0.33907  1.0000
  H   H114      1.0  0.22554  0.16932  0.34593  1.0000
  H   H115      1.0  0.23506  0.15265  0.31630  1.0000
  H   H116      1.0  0.31741  0.13106  0.37290  1.0000
  H   H117      1.0  0.09222  0.00699  0.40116  1.0000
  C   C74       1.0  0.10361  0.21721  0.47280  1.0000
  H   H118      1.0  0.01636  0.42617  0.27615  1.0000
  S   S27       1.0  0.00550  0.37086  0.35504  1.0000
  C   C75       1.0  0.00290  0.36738  0.28738  1.0000
  H   H119      1.0  0.29696  0.01176  0.29589  1.0000
  H   H120      1.0  0.04860  0.38820  0.24766  1.0000
  H   H121      1.0  0.01524  0.99162  0.44258  1.0000
  C   C76       1.0  0.03768  0.38947  0.33601  1.0000
  C   C77       1.0  0.05580  0.39041  0.32274  1.0000
  C   C78       1.0  0.06486  0.37403  0.31296  1.0000
  C   C79       1.0  0.05608  0.35651  0.31702  1.0000
  H   H122      1.0  0.27094  0.10798  0.39126  1.0000
  H   H123      1.0  0.06268  0.40392  0.31988  1.0000
  C   C80       1.0  0.99948  0.99020  0.44223  1.0000
  H   H124      1.0  0.08832  0.24944  0.26043  1.0000
  H   H125      1.0  0.01479  0.40813  0.25362  1.0000
  H   H126      1.0  0.09551  0.22686  0.46126  1.0000
  C   C81       1.0  0.31060  0.01229  0.28517  1.0000
  C   C82       1.0  0.02174  0.32875  0.25755  1.0000
  C   C83       1.0  0.10061  0.16878  0.43645  1.0000
  C   C84       1.0  0.11206  0.14992  0.43382  1.0000
  C   C85       1.0  0.12914  0.14858  0.41910  1.0000
  C   C86       1.0  0.13499  0.16611  0.40726  1.0000
  C   C87       1.0  0.12341  0.18492  0.40982  1.0000
  C   C88       1.0  0.10613  0.18623  0.42426  1.0000
  H   H127      1.0  0.10766  0.13637  0.44295  1.0000
  H   H128      1.0  0.13797  0.13399  0.41703  1.0000
  H   H129      1.0  0.12758  0.19844  0.40049  1.0000
  H   H130      1.0  0.09716  0.20081  0.42613  1.0000
  H   H131      1.0  0.06141  0.30321  0.24822  1.0000
  C   C89       1.0  0.02874  0.37204  0.33963  1.0000
  H   H132      1.0  0.00293  0.30971  0.27824  1.0000
  S   S28       1.0  0.06236  0.11649  0.47261  1.0000
  H   H133      1.0  0.01757  0.47763  0.43299  1.0000
  C   C90       1.0  0.30754  0.13262  0.36170  1.0000
  C   C91       1.0  0.31911  0.99546  0.27581  1.0000
  N   N6        1.0  0.29434  0.11635  0.36681  1.0000
  H   H134      1.0  0.01860  0.01249  0.41091  1.0000
  H   H135      1.0  0.06346  0.34346  0.31048  1.0000
  N   N7        1.0  0.03679  0.43532  0.43398  1.0000
  H   H136      1.0  0.01799  0.35952  0.29049  1.0000
  H   H137      1.0  0.14575  0.16660  0.44804  1.0000
  C   C92       1.0  0.01493  0.40728  0.43829  1.0000
  H   H138      1.0  0.28914  0.06729  0.25605  1.0000
  C   C93       1.0  0.28212  0.11841  0.38688  1.0000
  H   H139      1.0  0.02495  0.00728  0.38677  1.0000
  H   H140      1.0  0.01985  0.03438  0.44986  1.0000
  H   H141      1.0  0.09520  0.24546  0.23505  1.0000
  H   H142      1.0  0.05896  0.24538  0.23348  1.0000
  H   H143      1.0  0.02267  0.42370  0.29979  1.0000
  N   N8        1.0  0.00304  0.98979  0.40491  1.0000
  H   H144      1.0  0.15231  0.18984  0.43320  1.0000
  C   C94       1.0  0.02398  0.44932  0.42019  1.0000
  H   H145      1.0  0.10951  0.00150  0.42716  1.0000
  C   C95       1.0  0.01729  0.39236  0.26149  1.0000
  C   C96       1.0  0.00958  0.39812  0.29638  1.0000
  H   H146      1.0  0.22950  0.26561  0.28923  1.0000
  H   H147      1.0  0.03422  0.29984  0.23295  1.0000
  C   C97       1.0  0.03775  0.42546  0.47154  1.0000
  C   C98       1.0  0.29887  0.07721  0.37778  1.0000
  H   H148      1.0  0.10892  0.33556  0.31562  1.0000
  H   H149      1.0  0.15001  0.01570  0.42704  1.0000
  H   H150      1.0  0.25112  0.23011  0.32888  1.0000
  C   C99       1.0  0.23569  0.20250  0.27963  1.0000
  Fe  Fe15      1.0  0.11862  0.34499  0.23481  1.0000
  H   H151      1.0  0.03470  0.32358  0.26482  1.0000
  C   C100      1.0  0.02299  0.34279  0.24027  1.0000
  C   C101      1.0  0.23766  0.22962  0.32245  1.0000
  H   H152      1.0  0.21803  0.23817  0.26521  1.0000
  H   H153      1.0  0.32190  0.09588  0.37125  1.0000
  H   H154      1.0  0.19382  0.20544  0.28380  1.0000
  C   C102      1.0  0.26607  0.10531  0.35333  1.0000
  H   H155      1.0  0.16738  0.17528  0.47230  1.0000
  H   H156      1.0  0.21095  0.20118  0.31350  1.0000
  C   C103      1.0  0.20900  0.21624  0.30405  1.0000
  H   H157      1.0  0.08811  0.34789  0.33880  1.0000
  C   C104      1.0  0.15703  0.18637  0.46382  1.0000
  C   C105      1.0  0.12339  0.32972  0.32104  1.0000
  H   H158      1.0  0.12487  0.35864  0.33008  1.0000
  H   H159      1.0  0.01631  0.39117  0.43663  1.0000
  H   H160      1.0  0.03537  0.03730  0.47558  1.0000
  C   C106      1.0  0.21086  0.20637  0.46897  1.0000
  H   H161      1.0  0.10450  0.29194  0.35521  1.0000
  C   C107      1.0  0.03991  0.38670  0.26281  1.0000
  H   H162      1.0  0.09818  0.30729  0.31230  1.0000
  H   H163      1.0  0.24169  0.24181  0.26826  1.0000
  C   C108      1.0  0.19120  0.21734  0.29321  1.0000
  C   C109      1.0  0.24446  0.21959  0.30376  1.0000
  H   H164      1.0  0.08965  0.42906  0.43002  1.0000
  C   C110      1.0  0.05532  0.28145  0.27416  1.0000
  H   H165      1.0  0.13190  0.04604  0.39598  1.0000
  H   H166      1.0  0.31202  0.09349  0.35035  1.0000
  C   C111      1.0  0.06515  0.28660  0.25245  1.0000
  N   N9        1.0  0.05946  0.27578  0.23798  1.0000
  H   H167      1.0  0.00378  0.41580  0.42905  1.0000
  H   H168      1.0  0.06063  0.29055  0.28311  1.0000
  C   C112      1.0  0.05810  0.43973  0.42774  1.0000
  C   C113      1.0  0.10095  0.03066  0.47171  1.0000
  H   H169      1.0  0.10742  0.02454  0.38552  1.0000
  H   H170      1.0  0.20372  0.22711  0.31455  1.0000
  H   H171      1.0  0.17760  0.21484  0.30434  1.0000
  H   H172      1.0  0.16276  0.06414  0.46575  1.0000
  H   H173      1.0  0.27276  0.13374  0.38666  1.0000
  C   C114      1.0  0.09171  0.01778  0.46415  1.0000
  H   H174      1.0  0.08572  0.28993  0.33040  1.0000
  C   C115      1.0  0.03579  0.41400  0.43166  1.0000
  H   H175      1.0  0.03936  0.47624  0.41351  1.0000
  H   H176      1.0  0.16669  0.99593  0.41615  1.0000
  C   C116      1.0  0.15636  0.17758  0.44528  1.0000
  C   C117      1.0  0.06239  0.25328  0.24465  1.0000
  H   H177      1.0  0.29817  0.14789  0.36177  1.0000
  C   C118      1.0  0.02134  0.99983  0.40224  1.0000
  H   H178      1.0  0.04620  0.40266  0.43991  1.0000
  H   H179      1.0  0.11899  0.33848  0.36045  1.0000
  H   H180      1.0  0.01441  0.38308  0.25117  1.0000
  H   H181      1.0  0.14936  0.34416  0.32213  1.0000
  C   C119      1.0  0.21764  0.25882  0.28526  1.0000
  H   H182      1.0  0.99819  0.02840  0.37756  1.0000
  H   H183      1.0  0.22807  0.22050  0.33391  1.0000
  H   H184      1.0  0.22966  0.24526  0.31970  1.0000
  C   C120      1.0  0.20267  0.21352  0.45156  1.0000
  H   H185      1.0  0.99752  0.06471  0.44715  1.0000
  N   N10       1.0  0.22875  0.21986  0.29122  1.0000
  H   H186      1.0  0.25095  0.20377  0.30912  1.0000
  H   H187      1.0  0.03869  0.28529  0.27635  1.0000
  S   S29       1.0  0.10117  0.32054  0.23384  1.0000
  C   C121      1.0  0.14667  0.01596  0.38870  1.0000
  Fe  Fe16      1.0  0.31819  0.08100  0.28285  1.0000
  H   H188      1.0  0.23491  0.18775  0.28951  1.0000
  S   S30       1.0  0.09112  0.36769  0.24173  1.0000
  H   H189      1.0  0.31438  0.13682  0.32899  1.0000
  H   H190      1.0  0.30572  0.07166  0.39129  1.0000
  H   H191      1.0  0.08605  0.35402  0.36226  1.0000
  H   H192      1.0  0.01634  0.01166  0.46703  1.0000
  H   H193      1.0  0.05988  0.26544  0.28038  1.0000
  N   N11       1.0  0.00303  0.38968  0.28074  1.0000
  H   H194      1.0  0.25740  0.22664  0.29492  1.0000
  H   H195      1.0  0.17156  0.16964  0.43987  1.0000
  H   H196      1.0  0.04090  0.41186  0.41598  1.0000
  H   H197      1.0  0.05829  0.05312  0.44116  1.0000
  C   C122      1.0  0.07001  0.04680  0.44991  1.0000
  H   H198      1.0  0.26887  0.19829  0.27764  1.0000
  C   C123      1.0  0.25733  0.20108  0.26791  1.0000
  H   H199      1.0  0.25607  0.10326  0.36773  1.0000
  C   C124      1.0  0.07882  0.05964  0.45799  1.0000
  H   H200      1.0  0.07389  0.07580  0.45546  1.0000
  C   C125      1.0  0.07635  0.02584  0.45307  1.0000
  H   H201      1.0  0.06172  0.44336  0.41138  1.0000
  H   H202      1.0  0.26035  0.18788  0.25998  1.0000
  H   H203      1.0  0.25944  0.21458  0.25667  1.0000
  H   H204      1.0  0.08173  0.28372  0.25211  1.0000
  H   H205      1.0  0.03062  0.40224  0.34335  1.0000
  S   S31       1.0  0.06508  0.01022  0.44264  1.0000
  H   H206      1.0  0.05099  0.99454  0.41078  1.0000
  C   C126      1.0  0.30756  0.09604  0.36590  1.0000
  H   H207      1.0  0.99142  0.36542  0.31926  1.0000
  S   S32       1.0  0.04593  0.35083  0.22870  1.0000
  H   H208      1.0  0.07659  0.33188  0.35983  1.0000
  C   C127      1.0  0.28013  0.12075  0.35205  1.0000
  H   H209      1.0  0.10672  0.31794  0.37118  1.0000
  H   H210      1.0  0.05980  0.45341  0.43342  1.0000
  H   H211      1.0  0.11662  0.02537  0.42249  1.0000
  H   H212      1.0  0.08415  0.22703  0.25335  1.0000
  C   C128      1.0  0.03807  0.35551  0.33028  1.0000
  H   H213      1.0  0.22357  0.19425  0.46914  1.0000
  C   C129      1.0  0.08892  0.34096  0.35416  1.0000
  H   H214      1.0  0.12126  0.28718  0.33336  1.0000
  H   H215      1.0  0.03132  0.34192  0.33327  1.0000
  C   C130      1.0  0.02849  0.43957  0.45459  1.0000
  C   C131      1.0  0.12462  0.20796  0.46294  1.0000
  C   C132      1.0  0.31952  0.02980  0.28062  1.0000
  H   H216      1.0  0.27036  0.13562  0.35319  1.0000
  H   H217      1.0  0.00894  0.40834  0.45398  1.0000
  H   H218      1.0  0.14925  0.31991  0.34826  1.0000
  C   C133      1.0  0.32218  0.13298  0.34190  1.0000
  H   H219      1.0  0.99367  0.14144  0.45254  1.0000
  H   H220      1.0  0.27465  0.09063  0.34963  1.0000
  C   C134      1.0  0.29431  0.11528  0.40384  1.0000
  S   S33       1.0  0.01655  0.46601  0.35972  1.0000
  H   H221      1.0  0.15749  0.03868  0.40106  1.0000
  H   H222      1.0  0.02403  0.38944  0.30036  1.0000
  H   H223      1.0  0.01193  0.44003  0.45797  1.0000
  H   H224      1.0  0.28838  0.12196  0.33677  1.0000
  H   H225      1.0  0.13735  0.27745  0.36193  1.0000
  H   H226      1.0  0.04229  0.40958  0.46919  1.0000
  H   H227      1.0  0.16244  0.00887  0.38367  1.0000
  C   C135      1.0  0.00368  0.32111  0.26525  1.0000
  H   H228      1.0  0.15861  0.28654  0.36590  1.0000
  C   C136      1.0  0.99834  0.07815  0.45342  1.0000
  H   H229      1.0  0.13369  0.35716  0.30472  1.0000
  C   C137      1.0  0.02413  0.47215  0.41886  1.0000
  H   H230      1.0  0.15130  0.30137  0.33305  1.0000
  C   C138      1.0  0.14260  0.29126  0.36389  1.0000
  C   C139      1.0  0.11031  0.29921  0.34013  1.0000
  C   C140      1.0  0.10959  0.32833  0.35708  1.0000
  H   H231      1.0  0.07318  0.41704  0.44963  1.0000
  C   C141      1.0  0.14153  0.30793  0.34569  1.0000
  H   H232      1.0  0.13425  0.29658  0.37762  1.0000
  Fe  Fe17      1.0  0.99114  0.40053  0.36454  1.0000
  H   H233      1.0  0.04386  0.37086  0.26981  1.0000
  H   H234      1.0  0.25607  0.11106  0.34209  1.0000
  H   H235      1.0  0.03030  0.45503  0.45610  1.0000
  H   H236      1.0  0.13243  0.32059  0.30978  1.0000
  C   C142      1.0  0.09275  0.30372  0.32833  1.0000
  C   C143      1.0  0.15059  0.00093  0.42224  1.0000
  H   H237      1.0  0.00798  0.44732  0.42445  1.0000
  H   H238      1.0  0.15288  0.04627  0.37644  1.0000
  H   H239      1.0  0.08082  0.31595  0.33311  1.0000
  N   N12       1.0  0.12071  0.31661  0.34094  1.0000
  S   S34       1.0  0.31370  0.10077  0.30602  1.0000
  H   H240      1.0  0.11688  0.98957  0.38045  1.0000
  H   H241      1.0  0.02785  0.27965  0.25090  1.0000
  C   C144      1.0  0.10097  0.01920  0.40084  1.0000
  H   H242      1.0  0.99984  0.36031  0.27548  1.0000
  H   H243      1.0  0.32138  0.06494  0.24364  1.0000
  S   S35       1.0  0.00094  0.41467  0.38672  1.0000
  H   H244      1.0  0.30093  0.12893  0.40380  1.0000
  H   H245      1.0  0.30342  0.06468  0.36892  1.0000
  H   H246      1.0  0.12186  0.20137  0.45058  1.0000
  C   C145      1.0  0.17821  0.23777  0.46834  1.0000
  H   H247      1.0  0.09017  0.03238  0.40569  1.0000
  C   C146      1.0  0.08379  0.24353  0.24853  1.0000
  C   C147      1.0  0.03756  0.28307  0.23645  1.0000
  H   H248      1.0  0.16556  0.24996  0.46818  1.0000
  H   H249      1.0  0.16492  0.19963  0.45881  1.0000
  H   H250      1.0  0.26492  0.07273  0.24888  1.0000
  H   H251      1.0  0.15617  0.98592  0.45134  1.0000
  C   C148      1.0  0.14543  0.98607  0.44129  1.0000
  H   H252      1.0  0.27870  0.04778  0.24919  1.0000
  C   C149      1.0  0.09442  0.05159  0.46879  1.0000
  C   C150      1.0  0.07527  0.42288  0.43372  1.0000
  H   H253      1.0  0.00438  0.08937  0.44115  1.0000
  H   H254      1.0  0.05076  0.43117  0.47464  1.0000
  H   H255      1.0  0.07728  0.41022  0.42525  1.0000
  C   C151      1.0  0.04095  0.98573  0.40648  1.0000
  H   H256      1.0  0.02790  0.07085  0.46160  1.0000
  C   C152      1.0  0.01119  0.42085  0.29187  1.0000
  H   H257      1.0  0.31167  0.03428  0.23990  1.0000
  H   H258      1.0  0.09642  0.00164  0.46694  1.0000
  H   H259      1.0  0.28402  0.11291  0.41811  1.0000
  C   C153      1.0  0.01205  0.07354  0.46929  1.0000
  H   H260      1.0  0.99648  0.43011  0.29664  1.0000
  H   H261      1.0  0.01040  0.08805  0.47493  1.0000
  H   H262      1.0  0.30641  0.10199  0.40348  1.0000
  H   H263      1.0  0.13304  0.22068  0.45594  1.0000
  H   H264      1.0  0.00015  0.47451  0.32240  1.0000
  H   H265      1.0  0.28231  0.07910  0.38166  1.0000
  H   H266      1.0  0.02252  0.26023  0.22942  1.0000
  H   H267      1.0  0.99573  0.03119  0.46514  1.0000
  C   C154      1.0  0.25637  0.16346  0.52174  1.0000
  S   S36       1.0  0.07245  0.09628  0.51694  1.0000
  H   H268      1.0  0.25709  0.19107  0.49968  1.0000
  C   C155      1.0  0.01601  0.06046  0.50347  1.0000
  S   S37       1.0  0.10396  0.12418  0.54053  1.0000
  H   H269      1.0  0.29160  0.17595  0.52406  1.0000
  Fe  Fe18      1.0  0.02518  0.44971  0.52298  1.0000
  S   S38       1.0  0.01222  0.46404  0.54973  1.0000
  S   S39       1.0  0.05296  0.42633  0.51973  1.0000
  C   C156      1.0  0.03816  0.06395  0.49961  1.0000
  C   C157      1.0  0.00351  0.40398  0.57924  1.0000
  H   H270      1.0  0.23969  0.16580  0.52281  1.0000
  H   H271      1.0  0.08834  0.22669  0.59686  1.0000
  N   N13       1.0  0.09852  0.26685  0.58550  1.0000
  H   H272      1.0  0.27375  0.20456  0.51767  1.0000
  H   H273      1.0  0.01665  0.40902  0.60383  1.0000
  H   H274      1.0  0.14600  0.33440  0.64610  1.0000
  S   S40       1.0  0.29671  0.16467  0.61221  1.0000
  C   C158      1.0  0.10159  0.22954  0.60220  1.0000
  H   H275      1.0  0.08643  0.47000  0.50087  1.0000
  C   C159      1.0  0.06010  0.26673  0.58841  1.0000
  H   H276      1.0  0.14194  0.09634  0.53597  1.0000
  Fe  Fe19      1.0  0.99270  0.47308  0.50030  1.0000
  C   C160      1.0  0.15451  0.07978  0.49111  1.0000
  H   H277      1.0  0.14818  0.17733  0.51543  1.0000
  S   S41       1.0  0.16840  0.42971  0.70778  1.0000
  H   H278      1.0  0.08263  0.31016  0.60882  1.0000
  H   H279      1.0  0.18936  0.32566  0.68063  1.0000
  C   C161      1.0  0.15413  0.19071  0.50647  1.0000
  H   H280      1.0  0.16971  0.18664  0.49881  1.0000
  Fe  Fe20      1.0  0.05823  0.37264  0.64268  1.0000
  S   S42       1.0  0.07922  0.36103  0.61700  1.0000
  S   S43       1.0  0.02411  0.37672  0.64660  1.0000
  Fe  Fe21      1.0  0.09265  0.38209  0.66060  1.0000
  S   S44       1.0  0.11628  0.37121  0.63616  1.0000
  S   S45       1.0  0.09716  0.39191  0.68874  1.0000
  Fe  Fe22      1.0  0.09432  0.38768  0.61624  1.0000
  S   S46       1.0  0.10553  0.40628  0.58766  1.0000
  Fe  Fe23      1.0  0.09929  0.34543  0.63895  1.0000
  S   S47       1.0  0.11354  0.31234  0.64166  1.0000
  S   S48       1.0  0.07198  0.40063  0.64030  1.0000
  S   S49       1.0  0.07699  0.35497  0.66493  1.0000
  Fe  Fe24      1.0  0.15236  0.20955  0.56082  1.0000
  S   S50       1.0  0.18050  0.18708  0.55582  1.0000
  S   S51       1.0  0.12128  0.20743  0.55575  1.0000
  Fe  Fe25      1.0  0.17495  0.24196  0.56637  1.0000
  S   S52       1.0  0.20536  0.22233  0.56096  1.0000
  S   S53       1.0  0.17018  0.27517  0.56955  1.0000
  Fe  Fe26      1.0  0.19382  0.21296  0.53659  1.0000
  S   S54       1.0  0.21289  0.20534  0.50792  1.0000
  Fe  Fe27      1.0  0.19003  0.19783  0.58058  1.0000
  S   S55       1.0  0.20440  0.17432  0.60353  1.0000
  S   S56       1.0  0.16511  0.23482  0.54004  1.0000
  S   S57       1.0  0.16022  0.21807  0.58760  1.0000
  Fe  Fe28      1.0  0.04774  0.11802  0.50398  1.0000
  C   C162      1.0  0.99888  0.11851  0.49918  1.0000
  H   H281      1.0  0.11197  0.29143  0.59018  1.0000
  H   H282      1.0  0.11360  0.25328  0.61025  1.0000
  H   H283      1.0  0.30461  0.07453  0.62818  1.0000
  H   H284      1.0  0.30544  0.18459  0.68790  1.0000
  C   C163      1.0  0.08278  0.46718  0.51717  1.0000
  C   C164      1.0  0.16046  0.33721  0.64897  1.0000
  C   C165      1.0  0.12975  0.30237  0.62167  1.0000
  C   C166      1.0  0.13616  0.28139  0.62328  1.0000
  C   C167      1.0  0.14866  0.27285  0.60749  1.0000
  C   C168      1.0  0.15500  0.28527  0.59001  1.0000
  C   C169      1.0  0.14881  0.30627  0.58852  1.0000
  C   C170      1.0  0.13612  0.31480  0.60422  1.0000
  H   H285      1.0  0.13137  0.27169  0.63676  1.0000
  H   H286      1.0  0.15349  0.25669  0.60889  1.0000
  H   H287      1.0  0.15369  0.31599  0.57506  1.0000
  H   H288      1.0  0.13131  0.33098  0.60282  1.0000
  C   C171      1.0  0.01127  0.35903  0.64095  1.0000
  C   C172      1.0  0.02144  0.34084  0.63496  1.0000
  C   C173      1.0  0.01057  0.32736  0.63021  1.0000
  H   H289      1.0  0.29149  0.15083  0.53543  1.0000
  H   H290      1.0  0.29677  0.05203  0.60761  1.0000
  H   H291      1.0  0.13115  0.26036  0.57867  1.0000
  H   H292      1.0  0.03763  0.33716  0.63403  1.0000
  H   H293      1.0  0.01847  0.31327  0.62564  1.0000
  H   H294      1.0  0.04888  0.05052  0.49542  1.0000
  H   H295      1.0  0.28590  0.18663  0.55854  1.0000
  C   C174      1.0  0.14787  0.42045  0.70228  1.0000
  C   C175      1.0  0.14886  0.41570  0.68339  1.0000
  C   C176      1.0  0.13324  0.40750  0.67876  1.0000
  C   C177      1.0  0.11647  0.40386  0.69306  1.0000
  H   H296      1.0  0.30927  0.17137  0.55077  1.0000
  H   H297      1.0  0.06684  0.46488  0.52091  1.0000
  H   H298      1.0  0.16186  0.41830  0.67230  1.0000
  H   H299      1.0  0.13428  0.40384  0.66422  1.0000
  H   H300      1.0  0.15249  0.15510  0.49541  1.0000
  N   N14       1.0  0.28981  0.19684  0.66305  1.0000
  C   C178      1.0  0.27087  0.16710  0.61058  1.0000
  C   C179      1.0  0.26174  0.18474  0.59973  1.0000
  C   C180      1.0  0.24130  0.18732  0.59784  1.0000
  C   C181      1.0  0.22986  0.17209  0.60645  1.0000
  C   C182      1.0  0.23892  0.15453  0.61749  1.0000
  C   C183      1.0  0.25934  0.15204  0.61960  1.0000
  H   H301      1.0  0.27049  0.19657  0.59287  1.0000
  H   H302      1.0  0.23437  0.20110  0.58976  1.0000
  H   H303      1.0  0.23013  0.14272  0.62433  1.0000
  H   H304      1.0  0.26616  0.13840  0.62802  1.0000
  C   C184      1.0  0.30057  0.02513  0.62911  1.0000
  H   H305      1.0  0.00414  0.39217  0.52587  1.0000
  C   C185      1.0  0.99891  0.38943  0.54201  1.0000
  C   C186      1.0  0.10016  0.25192  0.60414  1.0000
  H   H306      1.0  0.05992  0.26027  0.60408  1.0000
  H   H307      1.0  0.08418  0.25049  0.56965  1.0000
  C   C187      1.0  0.26460  0.20862  0.63860  1.0000
  H   H308      1.0  0.10212  0.22016  0.61690  1.0000
  C   C188      1.0  0.16602  0.36231  0.70076  1.0000
  C   C189      1.0  0.00098  0.36692  0.58426  1.0000
  H   H309      1.0  0.09135  0.29938  0.57726  1.0000
  N   N15       1.0  0.00807  0.05659  0.48609  1.0000
  C   C190      1.0  0.30885  0.03021  0.65977  1.0000
  C   C191      1.0  0.06673  0.42014  0.53932  1.0000
  C   C192      1.0  0.05811  0.42418  0.55826  1.0000
  C   C193      1.0  0.06966  0.41904  0.57354  1.0000
  C   C194      1.0  0.09000  0.41045  0.56968  1.0000
  C   C195      1.0  0.09859  0.40669  0.55069  1.0000
  C   C196      1.0  0.08690  0.41113  0.53567  1.0000
  H   H310      1.0  0.04255  0.43104  0.56124  1.0000
  H   H311      1.0  0.06303  0.42222  0.58817  1.0000
  H   H312      1.0  0.11435  0.40024  0.54761  1.0000
  H   H313      1.0  0.09367  0.40800  0.52107  1.0000
  C   C197      1.0  0.10922  0.14754  0.54370  1.0000
  C   C198      1.0  0.09749  0.16576  0.53714  1.0000
  C   C199      1.0  0.10141  0.18408  0.54080  1.0000
  C   C200      1.0  0.11733  0.18432  0.55062  1.0000
  C   C201      1.0  0.12949  0.16615  0.55659  1.0000
  C   C202      1.0  0.12530  0.14779  0.55330  1.0000
  H   H314      1.0  0.08503  0.16568  0.52978  1.0000
  H   H315      1.0  0.09195  0.19809  0.53617  1.0000
  H   H316      1.0  0.14170  0.16619  0.56428  1.0000
  H   H317      1.0  0.13439  0.13374  0.55847  1.0000
  H   H318      1.0  0.30507  0.00140  0.65351  1.0000
  H   H319      1.0  0.11871  0.24770  0.56600  1.0000
  C   C203      1.0  0.08361  0.29371  0.60882  1.0000
  H   H320      1.0  0.09057  0.28596  0.62183  1.0000
  H   H321      1.0  0.12922  0.05620  0.51332  1.0000
  S   S58       1.0  0.10394  0.12241  0.48646  1.0000
  H   H322      1.0  0.09873  0.47727  0.58384  1.0000
  C   C204      1.0  0.14721  0.09746  0.51986  1.0000
  H   H323      1.0  0.18406  0.31638  0.70667  1.0000
  C   C205      1.0  0.18118  0.31519  0.69191  1.0000
  H   H324      1.0  0.30575  0.16704  0.67206  1.0000
  C   C206      1.0  0.16605  0.10773  0.51616  1.0000
  C   C207      1.0  0.13972  0.20260  0.49250  1.0000
  C   C208      1.0  0.09423  0.46727  0.55709  1.0000
  H   H325      1.0  0.28610  0.15930  0.70504  1.0000
  H   H326      1.0  0.28436  0.22976  0.65834  1.0000
  H   H327      1.0  0.16717  0.08826  0.48522  1.0000
  H   H328      1.0  0.13551  0.10837  0.51271  1.0000
  H   H329      1.0  0.99648  0.39422  0.61126  1.0000
  H   H330      1.0  0.10599  0.06073  0.54272  1.0000
  H   H331      1.0  0.25988  0.22370  0.64321  1.0000
  C   C209      1.0  0.26396  0.17492  0.50138  1.0000
  H   H332      1.0  0.16184  0.06277  0.53941  1.0000
  H   H333      1.0  0.00477  0.36036  0.59906  1.0000
  H   H334      1.0  0.16740  0.34609  0.63524  1.0000
  C   C210      1.0  0.12047  0.06644  0.54100  1.0000
  H   H335      1.0  0.25352  0.21356  0.68426  1.0000
  H   H336      1.0  0.16145  0.12276  0.52106  1.0000
  H   H337      1.0  0.17281  0.11062  0.50046  1.0000
  H   H338      1.0  0.17741  0.09932  0.52521  1.0000
  H   H339      1.0  0.11349  0.17860  0.49656  1.0000
  C   C211      1.0  0.30740  0.19782  0.64634  1.0000
  H   H340      1.0  0.31003  0.18423  0.63897  1.0000
  N   N16       1.0  0.01333  0.38332  0.57454  1.0000
  C   C212      1.0  0.03339  0.37831  0.58169  1.0000
  H   H341      1.0  0.02621  0.42488  0.48506  1.0000
  C   C213      1.0  0.01743  0.38433  0.55249  1.0000
  H   H342      1.0  0.15518  0.20053  0.51709  1.0000
  C   C214      1.0  0.04695  0.35867  0.57631  1.0000
  C   C215      1.0  0.20257  0.21475  0.48616  1.0000
  H   H343      1.0  0.01495  0.04762  0.51579  1.0000
  H   H344      1.0  0.04189  0.06695  0.51341  1.0000
  H   H345      1.0  0.04230  0.39080  0.57607  1.0000
  H   H346      1.0  0.03127  0.37669  0.59804  1.0000
  H   H347      1.0  0.14442  0.34346  0.71645  1.0000
  C   C216      1.0  0.30897  0.05084  0.65264  1.0000
  H   H348      1.0  0.02759  0.39562  0.54561  1.0000
  H   H349      1.0  0.17292  0.35256  0.66631  1.0000
  Fe  Fe29      1.0  0.07677  0.14226  0.47636  1.0000
  H   H350      1.0  0.25892  0.16857  0.49002  1.0000
  H   H351      1.0  0.05955  0.35503  0.58487  1.0000
  H   H352      1.0  0.26997  0.21438  0.70130  1.0000
  H   H353      1.0  0.05398  0.36057  0.56058  1.0000
  H   H354      1.0  0.04078  0.07739  0.48842  1.0000
  H   H355      1.0  0.01939  0.02455  0.49398  1.0000
  C   C217      1.0  0.30023  0.04587  0.62216  1.0000
  H   H356      1.0  0.19029  0.07428  0.50297  1.0000
  H   H357      1.0  0.03875  0.34559  0.57996  1.0000
  C   C218      1.0  0.13815  0.15433  0.49091  1.0000
  Fe  Fe30      1.0  0.31462  0.13980  0.63151  1.0000
  H   H358      1.0  0.11912  0.35367  0.67777  1.0000
  S   S59       1.0  0.02319  0.47918  0.50242  1.0000
  C   C219      1.0  0.29603  0.17977  0.67886  1.0000
  N   N17       1.0  0.26208  0.16934  0.53938  1.0000
  C   C220      1.0  0.25491  0.15469  0.55722  1.0000
  C   C221      1.0  0.28471  0.16667  0.53739  1.0000
  C   C222      1.0  0.18710  0.06250  0.51574  1.0000
  C   C223      1.0  0.25182  0.19040  0.54237  1.0000
  C   C224      1.0  0.23228  0.15313  0.56109  1.0000
  C   C225      1.0  0.29276  0.17149  0.55479  1.0000
  H   H359      1.0  0.12309  0.29283  0.55612  1.0000
  C   C226      1.0  0.26124  0.20839  0.52951  1.0000
  H   H360      1.0  0.26335  0.13913  0.55637  1.0000
  H   H361      1.0  0.25791  0.15875  0.57089  1.0000
  H   H362      1.0  0.05741  0.46582  0.55618  1.0000
  C   C227      1.0  0.13098  0.41702  0.71648  1.0000
  H   H363      1.0  0.00476  0.35399  0.57587  1.0000
  H   H364      1.0  0.09142  0.45269  0.55414  1.0000
  H   H365      1.0  0.23586  0.19264  0.54020  1.0000
  H   H366      1.0  0.25096  0.19238  0.55788  1.0000
  H   H367      1.0  0.22815  0.14570  0.55001  1.0000
  H   H368      1.0  0.22865  0.14363  0.57560  1.0000
  H   H369      1.0  0.22267  0.16805  0.56191  1.0000
  H   H370      1.0  0.08729  0.25504  0.61599  1.0000
  C   C228      1.0  0.16444  0.06170  0.52344  1.0000
  Fe  Fe31      1.0  0.08632  0.12357  0.51669  1.0000
  H   H371      1.0  0.18810  0.29989  0.68849  1.0000
  H   H372      1.0  0.27679  0.17781  0.64922  1.0000
  H   H373      1.0  0.27195  0.16107  0.68587  1.0000
  H   H374      1.0  0.09266  0.45306  0.52217  1.0000
  C   C229      1.0  0.11544  0.40872  0.71190  1.0000
  H   H375      1.0  0.26657  0.21701  0.53890  1.0000
  N   N18       1.0  0.14810  0.33956  0.68585  1.0000
  C   C230      1.0  0.12663  0.33864  0.68423  1.0000
  C   C231      1.0  0.15774  0.34937  0.66605  1.0000
  C   C232      1.0  0.14743  0.35234  0.70147  1.0000
  C   C233      1.0  0.15837  0.31827  0.69155  1.0000
  C   C234      1.0  0.11277  0.33208  0.70363  1.0000
  H   H376      1.0  0.11677  0.08035  0.54782  1.0000
  H   H377      1.0  0.31184  0.02425  0.67446  1.0000
  H   H378      1.0  0.11029  0.46822  0.55084  1.0000
  H   H379      1.0  0.26062  0.23664  0.68530  1.0000
  H   H380      1.0  0.12605  0.32805  0.67415  1.0000
  H   H381      1.0  0.14528  0.21718  0.48632  1.0000
  H   H382      1.0  0.14888  0.36452  0.66179  1.0000
  H   H383      1.0  0.13465  0.36509  0.70085  1.0000
  H   H384      1.0  0.16783  0.37434  0.68781  1.0000
  H   H385      1.0  0.15151  0.31188  0.70657  1.0000
  H   H386      1.0  0.15569  0.30788  0.68214  1.0000
  H   H387      1.0  0.28058  0.17317  0.49778  1.0000
  H   H388      1.0  0.09770  0.33165  0.70023  1.0000
  H   H389      1.0  0.19446  0.06508  0.52765  1.0000
  H   H390      1.0  0.31806  0.98422  0.71814  1.0000
  H   H391      1.0  0.05082  0.25787  0.58308  1.0000
  H   H392      1.0  0.17071  0.32265  0.65145  1.0000
  H   H393      1.0  0.05258  0.28274  0.58715  1.0000
  N   N19       1.0  0.14948  0.07722  0.51328  1.0000
  S   S60       1.0  0.31521  0.06611  0.66755  1.0000
  H   H394      1.0  0.25107  0.20429  0.63496  1.0000
  C   C235      1.0  0.09236  0.46530  0.57951  1.0000
  H   H395      1.0  0.17991  0.23727  0.49875  1.0000
  H   H396      1.0  0.06806  0.29065  0.61067  1.0000
  H   H397      1.0  0.10923  0.28041  0.54356  1.0000
  C   C236      1.0  0.28520  0.21678  0.67057  1.0000
  C   C237      1.0  0.11780  0.26229  0.57127  1.0000
  C   C238      1.0  0.18622  0.23047  0.48575  1.0000
  S   S61       1.0  0.06008  0.14540  0.50678  1.0000
  C   C239      1.0  0.09685  0.28816  0.58954  1.0000
  H   H398      1.0  0.02546  0.36965  0.54823  1.0000
  C   C240      1.0  0.08130  0.26485  0.57588  1.0000
  S   S62       1.0  0.01580  0.11299  0.51599  1.0000
  C   C241      1.0  0.26632  0.22018  0.68631  1.0000
  H   H399      1.0  0.26767  0.18116  0.70056  1.0000
  C   C242      1.0  0.27248  0.19244  0.65501  1.0000
  H   H400      1.0  0.11756  0.08179  0.51176  1.0000
  H   H401      1.0  0.13048  0.05470  0.54934  1.0000
  H   H402      1.0  0.11033  0.34308  0.71400  1.0000
  C   C243      1.0  0.30470  0.05864  0.63376  1.0000
  H   H403      1.0  0.99606  0.17624  0.49102  1.0000
  C   C244      1.0  0.12125  0.27816  0.55262  1.0000
  H   H404      1.0  0.29790  0.21885  0.67735  1.0000
  S   S63       1.0  0.30480  0.12714  0.66323  1.0000
  H   H405      1.0  0.24942  0.21906  0.52234  1.0000
  H   H406      1.0  0.11830  0.31672  0.71086  1.0000
  H   H407      1.0  0.25926  0.19016  0.66657  1.0000
  H   H408      1.0  0.16193  0.04618  0.52279  1.0000
  H   H409      1.0  0.08006  0.27662  0.56269  1.0000
  H   H410      1.0  0.07698  0.46377  0.58731  1.0000
  C   C245      1.0  0.30494  0.01730  0.64797  1.0000
  S   S64       1.0  0.29620  0.00947  0.61349  1.0000
  H   H411      1.0  0.10192  0.45097  0.58471  1.0000
  H   H412      1.0  0.11556  0.22404  0.59255  1.0000
  C   C246      1.0  0.27921  0.17008  0.69329  1.0000
  H   H413      1.0  0.00670  0.07389  0.50944  1.0000
  H   H414      1.0  0.29055  0.15988  0.56806  1.0000
  H   H415      1.0  0.01178  0.41587  0.56990  1.0000
  H   H416      1.0  0.13559  0.27275  0.54331  1.0000
  C   C247      1.0  0.12906  0.07046  0.51883  1.0000
  H   H417      1.0  0.26171  0.14706  0.52125  1.0000
  C   C248      1.0  0.01914  0.03654  0.48083  1.0000
  H   H418      1.0  0.12511  0.20650  0.50220  1.0000
  C   C249      1.0  0.12557  0.17489  0.48407  1.0000
  H   H419      1.0  0.27576  0.20946  0.62485  1.0000
  H   H420      1.0  0.12911  0.14640  0.50389  1.0000
  C   C250      1.0  0.00192  0.40699  0.60075  1.0000
  H   H421      1.0  0.30426  0.21097  0.63474  1.0000
  H   H422      1.0  0.18012  0.35141  0.70104  1.0000
  H   H423      1.0  0.19483  0.04773  0.51148  1.0000
  S   S65       1.0  0.99598  0.44233  0.51875  1.0000
  H   H424      1.0  0.30984  0.99148  0.69440  1.0000
  Fe  Fe32      1.0  0.08809  0.09674  0.48580  1.0000
  H   H425      1.0  0.11296  0.02436  0.48012  1.0000
  H   H426      1.0  0.10263  0.40580  0.72312  1.0000
  H   H427      1.0  0.99112  0.42095  0.60341  1.0000
  H   H428      1.0  0.10462  0.22711  0.48331  1.0000
  C   C251      1.0  0.00378  0.12909  0.48026  1.0000
  H   H429      1.0  0.14168  0.08931  0.48440  1.0000
  Fe  Fe33      1.0  0.32253  0.09757  0.65510  1.0000
  H   H430      1.0  0.99109  0.17489  0.51704  1.0000
  C   C252      1.0  0.99026  0.36360  0.64220  1.0000
  H   H431      1.0  0.14100  0.14446  0.47942  1.0000
  H   H432      1.0  0.17363  0.05046  0.48643  1.0000
  H   H433      1.0  0.09425  0.20548  0.48016  1.0000
  N   N20       1.0  0.13689  0.19241  0.47611  1.0000
  H   H434      1.0  0.99051  0.37652  0.54492  1.0000
  C   C253      1.0  0.15983  0.06010  0.48202  1.0000
  S   S66       1.0  0.10656  0.06732  0.47815  1.0000
  H   H435      1.0  0.14739  0.05114  0.48546  1.0000
  H   H436      1.0  0.16368  0.36999  0.71386  1.0000
  C   C254      1.0  0.05883  0.48212  0.55300  1.0000
  H   H437      1.0  0.01823  0.13416  0.47574  1.0000
  H   H438      1.0  0.30108  0.38747  0.91708  1.0000
  H   H439      1.0  0.99655  0.46573  0.85596  1.0000
  H   H440      1.0  0.16458  0.41886  0.83953  1.0000
  C   C255      1.0  0.02443  0.47372  0.86175  1.0000
  H   H441      1.0  0.14132  0.46368  0.89443  1.0000
  C   C256      1.0  0.32067  0.41116  0.91050  1.0000
  S   S67       1.0  0.28086  0.36973  0.80424  1.0000
  H   H442      1.0  0.29956  0.46693  0.78714  1.0000
  H   H443      1.0  0.15113  0.46458  0.82585  1.0000
  H   H444      1.0  0.15172  0.42960  0.81925  1.0000
  H   H445      1.0  0.26405  0.45735  0.79707  1.0000
  C   C257      1.0  0.16280  0.45200  0.83087  1.0000
  C   C258      1.0  0.10779  0.47579  0.83767  1.0000
  Fe  Fe34      1.0  0.14119  0.45123  0.77405  1.0000
  S   S68       1.0  0.11322  0.44279  0.79388  1.0000
  Fe  Fe35      1.0  0.16668  0.44414  0.73509  1.0000
  H   H446      1.0  0.31785  0.26851  0.81905  1.0000
  S   S69       1.0  0.16681  0.42690  0.76584  1.0000
  C   C259      1.0  0.08575  0.46142  0.73309  1.0000
  H   H447      1.0  0.27544  0.42536  0.78029  1.0000
  C   C260      1.0  0.06041  0.46365  0.78714  1.0000
  H   H448      1.0  0.19603  0.43389  0.83991  1.0000
  H   H449      1.0  0.13956  0.46788  0.86043  1.0000
  H   H450      1.0  0.16585  0.44928  0.89212  1.0000
  N   N21       1.0  0.30297  0.43582  0.78192  1.0000
  S   S70       1.0  0.29985  0.38495  0.84985  1.0000
  H   H451      1.0  0.02098  0.46559  0.78469  1.0000
  C   C261      1.0  0.22854  0.42179  0.79458  1.0000
  C   C262      1.0  0.23853  0.41985  0.81072  1.0000
  C   C263      1.0  0.25417  0.40364  0.81421  1.0000
  C   C264      1.0  0.26024  0.38944  0.80135  1.0000
  C   C265      1.0  0.25006  0.39122  0.78539  1.0000
  C   C266      1.0  0.23423  0.40729  0.78203  1.0000
  H   H452      1.0  0.13922  0.43299  0.84334  1.0000
  H   H453      1.0  0.25458  0.38023  0.77543  1.0000
  H   H454      1.0  0.22668  0.40864  0.76955  1.0000
  H   H455      1.0  0.07400  0.46622  0.79211  1.0000
  C   C267      1.0  0.09926  0.46308  0.85398  1.0000
  C   C268      1.0  0.09403  0.44506  0.85138  1.0000
  C   C269      1.0  0.09771  0.43944  0.83269  1.0000
  C   C270      1.0  0.10722  0.45149  0.81658  1.0000
  H   H456      1.0  0.04417  0.47213  0.74223  1.0000
  H   H457      1.0  0.25260  0.45622  0.77673  1.0000
  H   H458      1.0  0.08750  0.43518  0.86393  1.0000
  H   H459      1.0  0.09396  0.42526  0.83088  1.0000
  H   H460      1.0  0.04993  0.44073  0.81100  1.0000
  H   H461      1.0  0.29092  0.45275  0.81652  1.0000
  H   H462      1.0  0.30386  0.24726  0.89557  1.0000
  C   C271      1.0  0.20316  0.44536  0.86355  1.0000
  C   C272      1.0  0.31047  0.45570  0.77935  1.0000
  C   C273      1.0  0.18732  0.43984  0.85338  1.0000
  H   H463      1.0  0.17522  0.45098  0.81817  1.0000
  C   C274      1.0  0.15415  0.43215  0.83375  1.0000
  N   N22       1.0  0.17015  0.45633  0.84836  1.0000
  H   H464      1.0  0.01142  0.46971  0.76215  1.0000
  C   C275      1.0  0.15606  0.46188  0.88444  1.0000
  H   H465      1.0  0.26161  0.40214  0.82678  1.0000
  C   C276      1.0  0.99287  0.48143  0.91257  1.0000
  C   C277      1.0  0.32024  0.33352  0.95098  1.0000
  H   H466      1.0  0.29131  0.34243  0.94137  1.0000
  H   H467      1.0  0.14719  0.44191  0.86915  1.0000
  C   C278      1.0  0.30892  0.25377  0.88005  1.0000
  H   H468      1.0  0.30481  0.27097  0.84333  1.0000
  H   H469      1.0  0.23421  0.43098  0.82052  1.0000
  H   H470      1.0  0.04933  0.43483  0.78771  1.0000
  C   C279      1.0  0.00046  0.47454  0.89240  1.0000
  H   H471      1.0  0.31051  0.39242  0.78120  1.0000
  S   S71       1.0  0.31250  0.33744  0.84349  1.0000
  S   S72       1.0  0.09637  0.46821  0.87803  1.0000
  S   S73       1.0  0.20995  0.44321  0.79019  1.0000
  C   C280      1.0  0.30748  0.39809  0.90449  1.0000
  H   H472      1.0  0.00493  0.47891  0.92163  1.0000
  H   H473      1.0  0.03434  0.45381  0.90731  1.0000
  S   S74       1.0  0.13972  0.46706  0.74333  1.0000
  H   H474      1.0  0.30323  0.39757  0.94796  1.0000
  Fe  Fe36      1.0  0.18677  0.44815  0.76962  1.0000
  H   H475      1.0  0.21342  0.43133  0.86824  1.0000
  C   C281      1.0  0.30741  0.33889  0.93677  1.0000
  S   S75       1.0  0.16066  0.47117  0.78023  1.0000
  H   H476      1.0  0.29486  0.41101  0.80439  1.0000
  H   H477      1.0  0.19655  0.45235  0.87680  1.0000
  C   C282      1.0  0.31789  0.42280  0.76873  1.0000
  H   H478      1.0  0.27416  0.43426  0.82277  1.0000
  H   H479      1.0  0.10016  0.45181  0.72805  1.0000
  H   H480      1.0  0.18140  0.42657  0.86292  1.0000
  C   C283      1.0  0.08088  0.45686  0.75572  1.0000
  H   H481      1.0  0.29452  0.40812  0.89862  1.0000
  S   S76       1.0  0.18909  0.46364  0.73801  1.0000
  C   C284      1.0  0.26713  0.45716  0.78107  1.0000
  C   C285      1.0  0.15256  0.45675  0.86506  1.0000
  H   H482      1.0  0.00541  0.45790  0.89515  1.0000
  H   H483      1.0  0.30415  0.24519  0.87024  1.0000
  H   H484      1.0  0.04493  0.44875  0.75784  1.0000
  H   H485      1.0  0.09430  0.45854  0.76156  1.0000
  H   H486      1.0  0.03764  0.47987  0.85228  1.0000
  Fe  Fe37      1.0  0.30303  0.36733  0.82517  1.0000
  H   H487      1.0  0.30069  0.26940  0.87850  1.0000
  H   H488      1.0  0.31208  0.46281  0.76359  1.0000
  C   C286      1.0  0.31781  0.39043  0.95265  1.0000
  H   H489      1.0  0.05334  0.45457  0.88523  1.0000
  S   S77       1.0  0.29895  0.34728  0.89917  1.0000
  H   H490      1.0  0.28483  0.44113  0.75873  1.0000
  H   H491      1.0  0.02985  0.45745  0.86658  1.0000
  C   C287      1.0  0.31847  0.27411  0.83278  1.0000
  C   C288      1.0  0.30188  0.42476  0.80273  1.0000
  C   C289      1.0  0.31535  0.33991  0.91666  1.0000
  H   H492      1.0  0.31633  0.29281  0.86178  1.0000
  C   C290      1.0  0.28281  0.43901  0.77511  1.0000
  H   H493      1.0  0.31718  0.41850  0.80637  1.0000
  Fe  Fe38      1.0  0.31221  0.35561  0.86720  1.0000
  H   H494      1.0  0.20417  0.46755  0.82278  1.0000
  C   C291      1.0  0.04497  0.46292  0.89723  1.0000
  C   C292      1.0  0.05821  0.44146  0.79568  1.0000
  H   H495      1.0  0.31812  0.29070  0.82877  1.0000
  H   H496      1.0  0.32317  0.40065  0.96035  1.0000
  H   H497      1.0  0.07993  0.44044  0.75959  1.0000
  H   H498      1.0  0.21273  0.45549  0.85332  1.0000
  H   H499      1.0  0.31476  0.37690  0.96364  1.0000
  C   C293      1.0  0.04418  0.46517  0.75790  1.0000
  C   C294      1.0  0.00890  0.47419  0.84834  1.0000
  H   H500      1.0  0.05640  0.46464  0.90583  1.0000
  H   H501      1.0  0.07321  0.43183  0.79580  1.0000
  C   C295      1.0  0.29015  0.43645  0.81936  1.0000
  H   H502      1.0  0.13009  0.42042  0.73111  1.0000
  H   H503      1.0  0.08795  0.47730  0.72771  1.0000
  H   H504      1.0  0.31401  0.33288  0.96645  1.0000
  C   C296      1.0  0.11193  0.46990  0.81892  1.0000
  H   H505      1.0  0.27154  0.47171  0.77310  1.0000
  N   N23       1.0  0.06214  0.46927  0.76513  1.0000
  H   H506      1.0  0.16182  0.47633  0.88259  1.0000
  H   H507      1.0  0.31576  0.38960  0.89257  1.0000
  H   H508      1.0  0.01654  0.46682  0.83543  1.0000
  H   H509      1.0  0.31090  0.42061  0.92109  1.0000
  H   H510      1.0  0.07411  0.45764  0.72603  1.0000
  H   H511      1.0  0.29699  0.43066  0.83286  1.0000
  C   C297      1.0  0.17621  0.47706  0.84297  1.0000
  C   C298      1.0  0.02336  0.47307  0.76916  1.0000
  C   C299      1.0  0.31190  0.40260  0.76694  1.0000
  H   H512      1.0  0.04809  0.47376  0.79502  1.0000
  H   H513      1.0  0.29779  0.40466  0.76076  1.0000
  H   H514      1.0  0.32086  0.43120  0.75350  1.0000
  H   H515      1.0  0.11894  0.47941  0.80637  1.0000
  H   H516      1.0  0.18266  0.48093  0.85485  1.0000
  C   C300      1.0  0.19156  0.48034  0.82386  1.0000
  Fe  Fe39      1.0  0.07651  0.50813  0.07272  1.0000
  S   S78       1.0  0.10162  0.52621  0.06211  1.0000
  H   H517      1.0  0.27939  0.66373  0.18147  1.0000
  Fe  Fe40      1.0  0.04489  0.54511  0.07798  1.0000
  S   S79       1.0  0.01116  0.55153  0.08564  1.0000
  Fe  Fe41      1.0  0.08669  0.54403  0.08638  1.0000
  S   S80       1.0  0.10643  0.54947  0.10646  1.0000
  S   S81       1.0  0.05636  0.52786  0.05291  1.0000
  S   S82       1.0  0.06331  0.52390  0.09857  1.0000
  H   H518      1.0  0.24405  0.64749  0.12209  1.0000
  C   C301      1.0  0.29130  0.77590  0.06531  1.0000
  H   H519      1.0  0.08536  0.74730  0.19025  1.0000
  H   H520      1.0  0.20380  0.68373  0.14530  1.0000
  H   H521      1.0  0.19655  0.48873  0.16536  1.0000
  S   S83       1.0  0.27314  0.72076  0.06725  1.0000
  H   H522      1.0  0.11394  0.60534  0.04717  1.0000
  H   H523      1.0  0.02803  0.52667  0.00062  1.0000
  H   H524      1.0  0.30040  0.76066  0.06709  1.0000
  H   H525      1.0  0.16143  0.50877  0.10426  1.0000
  H   H526      1.0  0.25911  0.81078  0.10875  1.0000
  C   C302      1.0  0.27390  0.63263  0.12304  1.0000
  Fe  Fe42      1.0  0.16333  0.62972  0.11409  1.0000
  S   S84       1.0  0.19130  0.60966  0.10256  1.0000
  S   S85       1.0  0.13581  0.63346  0.09977  1.0000
  Fe  Fe43      1.0  0.18127  0.63880  0.14709  1.0000
  S   S86       1.0  0.21050  0.61878  0.13835  1.0000
  S   S87       1.0  0.18098  0.65321  0.17389  1.0000
  Fe  Fe44      1.0  0.20777  0.63338  0.10737  1.0000
  S   S88       1.0  0.23641  0.63917  0.08610  1.0000
  Fe  Fe45      1.0  0.19175  0.59680  0.13429  1.0000
  S   S89       1.0  0.19880  0.56358  0.14665  1.0000
  S   S90       1.0  0.17962  0.65491  0.11616  1.0000
  S   S91       1.0  0.16265  0.61546  0.14575  1.0000
  H   H527      1.0  0.14434  0.60578  0.19738  1.0000
  C   C303      1.0  0.20256  0.54587  0.13040  1.0000
  C   C304      1.0  0.20955  0.52546  0.13692  1.0000
  C   C305      1.0  0.21149  0.51084  0.12463  1.0000
  C   C306      1.0  0.20653  0.51666  0.10574  1.0000
  C   C307      1.0  0.20025  0.53712  0.09902  1.0000
  C   C308      1.0  0.19802  0.55165  0.11137  1.0000
  H   H528      1.0  0.21327  0.52094  0.15157  1.0000
  H   H529      1.0  0.21660  0.49511  0.12983  1.0000
  H   H530      1.0  0.19666  0.54168  0.08436  1.0000
  H   H531      1.0  0.19249  0.56724  0.10625  1.0000
  C   C309      1.0  0.26291  0.69809  0.07240  1.0000
  C   C310      1.0  0.27501  0.67970  0.06920  1.0000
  C   C311      1.0  0.26658  0.66184  0.07335  1.0000
  C   C312      1.0  0.24608  0.66212  0.08110  1.0000
  C   C313      1.0  0.23394  0.68047  0.08446  1.0000
  C   C314      1.0  0.24234  0.69843  0.08003  1.0000
  H   H532      1.0  0.29089  0.67916  0.06361  1.0000
  H   H533      1.0  0.27605  0.64768  0.07073  1.0000
  H   H534      1.0  0.21807  0.68086  0.09023  1.0000
  H   H535      1.0  0.23285  0.71262  0.08252  1.0000
  S   S92       1.0  0.06706  0.56683  0.06785  1.0000
  H   H536      1.0  0.32246  0.76769  0.11049  1.0000
  H   H537      1.0  0.10180  0.59667  0.03075  1.0000
  C   C315      1.0  0.01703  0.51718  0.00954  1.0000
  Fe  Fe46      1.0  0.08029  0.54747  0.04429  1.0000
  C   C316      1.0  0.23321  0.66864  0.15186  1.0000
  C   C317      1.0  0.28215  0.78297  0.08524  1.0000
  C   C318      1.0  0.12583  0.69321  0.20294  1.0000
  H   H538      1.0  0.27634  0.77749  0.12436  1.0000
  C   C319      1.0  0.16033  0.67588  0.20193  1.0000
  C   C320      1.0  0.15974  0.66911  0.18437  1.0000
  C   C321      1.0  0.14226  0.67480  0.17587  1.0000
  C   C322      1.0  0.12544  0.68701  0.18502  1.0000
  H   H539      1.0  0.17054  0.52066  0.13216  1.0000
  N   N24       1.0  0.14915  0.57311  0.04282  1.0000
  H   H540      1.0  0.14169  0.66974  0.16229  1.0000
  H   H541      1.0  0.11191  0.69116  0.17846  1.0000
  H   H542      1.0  0.29506  0.74713  0.12434  1.0000
  C   C323      1.0  0.25384  0.64302  0.13351  1.0000
  H   H543      1.0  0.14998  0.60415  0.04528  1.0000
  H   H544      1.0  0.27184  0.77231  0.09341  1.0000
  C   C324      1.0  0.26628  0.65349  0.15992  1.0000
  H   H545      1.0  0.12460  0.52155  0.17234  1.0000
  C   C325      1.0  0.14021  0.48722  0.15906  1.0000
  C   C326      1.0  0.14253  0.55470  0.05615  1.0000
  C   C327      1.0  0.28567  0.78944  0.11750  1.0000
  H   H546      1.0  0.32231  0.76382  0.08639  1.0000
  H   H547      1.0  0.17242  0.58191  0.01893  1.0000
  H   H548      1.0  0.18151  0.56258  0.03689  1.0000
  C   C328      1.0  0.14339  0.68774  0.21129  1.0000
  H   H549      1.0  0.12936  0.57058  0.02287  1.0000
  C   C329      1.0  0.11414  0.57312  0.10397  1.0000
  C   C330      1.0  0.13179  0.57389  0.11083  1.0000
  C   C331      1.0  0.13832  0.59237  0.10973  1.0000
  C   C332      1.0  0.12732  0.61031  0.10155  1.0000
  C   C333      1.0  0.10974  0.60960  0.09437  1.0000
  C   C334      1.0  0.10315  0.59100  0.09555  1.0000
  H   H550      1.0  0.14062  0.56012  0.11679  1.0000
  H   H551      1.0  0.15197  0.59267  0.11514  1.0000
  H   H552      1.0  0.10119  0.62345  0.08799  1.0000
  H   H553      1.0  0.08947  0.59055  0.09026  1.0000
  C   C335      1.0  0.16256  0.50750  0.13510  1.0000
  H   H554      1.0  0.02617  0.57194  0.04764  1.0000
  C   C336      1.0  0.13477  0.52387  0.15801  1.0000
  H   H555      1.0  0.31232  0.64992  0.97970  1.0000
  H   H556      1.0  0.11433  0.48462  0.08397  1.0000
  H   H557      1.0  0.05709  0.72204  0.21677  1.0000
  C   C337      1.0  0.28004  0.71447  0.01011  1.0000
  C   C338      1.0  0.26297  0.67747  0.12826  1.0000
  C   C339      1.0  0.21830  0.67681  0.13722  1.0000
  H   H558      1.0  0.07770  0.72095  0.18229  1.0000
  H   H559      1.0  0.00798  0.54889  0.97627  1.0000
  C   C340      1.0  0.28618  0.67598  0.12326  1.0000
  N   N25       1.0  0.25461  0.66080  0.14311  1.0000
  H   H560      1.0  0.31778  0.79849  0.07350  1.0000
  H   H561      1.0  0.22364  0.68876  0.12543  1.0000
  C   C341      1.0  0.07206  0.52436  0.98397  1.0000
  H   H562      1.0  0.14808  0.54405  0.17118  1.0000
  H   H563      1.0  0.01792  0.52167  0.03850  1.0000
  H   H564      1.0  0.25733  0.67872  0.11420  1.0000
  H   H565      1.0  0.25723  0.69231  0.13341  1.0000
  H   H566      1.0  0.00180  0.52642  0.01113  1.0000
  C   C342      1.0  0.30345  0.74669  0.10921  1.0000
  C   C343      1.0  0.25387  0.67435  0.02604  1.0000
  H   H567      1.0  0.01755  0.51340  0.07026  1.0000
  H   H568      1.0  0.24361  0.67877  0.01507  1.0000
  C   C344      1.0  0.27650  0.67002  0.01727  1.0000
  C   C345      1.0  0.14255  0.54385  0.15737  1.0000
  H   H569      1.0  0.25955  0.64111  0.17030  1.0000
  H   H570      1.0  0.28029  0.64278  0.11003  1.0000
  H   H571      1.0  0.27558  0.70781  0.02564  1.0000
  H   H572      1.0  0.09211  0.62894  0.21220  1.0000
  H   H573      1.0  0.29143  0.68664  0.13057  1.0000
  H   H574      1.0  0.27891  0.77484  0.05761  1.0000
  H   H575      1.0  0.07205  0.75530  0.16407  1.0000
  C   C346      1.0  0.07523  0.75429  0.20230  1.0000
  C   C347      1.0  0.00203  0.55618  0.06336  1.0000
  C   C348      1.0  0.13299  0.58215  0.03034  1.0000
  C   C349      1.0  0.17062  0.58633  0.06321  1.0000
  H   H576      1.0  0.27898  0.82292  0.11254  1.0000
  S   S93       1.0  0.09148  0.56118  0.01303  1.0000
  H   H577      1.0  0.12896  0.55913  0.06689  1.0000
  C   C350      1.0  0.01614  0.49739  0.07560  1.0000
  H   H578      1.0  0.13848  0.59003  0.06698  1.0000
  H   H579      1.0  0.29636  0.71529  0.00716  1.0000
  C   C351      1.0  0.16859  0.55188  0.01624  1.0000
  H   H580      1.0  0.27090  0.61958  0.11726  1.0000
  H   H581      1.0  0.15778  0.55700  0.00574  1.0000
  H   H582      1.0  0.29737  0.81609  0.08249  1.0000
  H   H583      1.0  0.25755  0.67559  0.98480  1.0000
  C   C352      1.0  0.08052  0.77556  0.20094  1.0000
  C   C353      1.0  0.27108  0.80968  0.11766  1.0000
  C   C354      1.0  0.16851  0.56802  0.02901  1.0000
  C   C355      1.0  0.05831  0.76674  0.16492  1.0000
  C   C356      1.0  0.06123  0.72103  0.18583  1.0000
  H   H584      1.0  0.31613  0.73390  0.11027  1.0000
  H   H585      1.0  0.07588  0.78123  0.21523  1.0000
  H   H586      1.0  0.12464  0.52646  0.14685  1.0000
  H   H587      1.0  0.15466  0.54694  0.14482  1.0000
  H   H588      1.0  0.30517  0.74480  0.97835  1.0000
  Fe  Fe47      1.0  0.30559  0.72004  0.05212  1.0000
  H   H589      1.0  0.27209  0.73031  0.00831  1.0000
  N   N26       1.0  0.15065  0.50547  0.15559  1.0000
  C   C357      1.0  0.08944  0.64376  0.21721  1.0000
  C   C358      1.0  0.04166  0.76002  0.22152  1.0000
  C   C359      1.0  0.15061  0.50965  0.11818  1.0000
  H   H590      1.0  0.31139  0.68399  0.00336  1.0000
  H   H591      1.0  0.10590  0.58083  0.05326  1.0000
  C   C360      1.0  0.30806  0.80244  0.08730  1.0000
  C   C361      1.0  0.26749  0.66966  0.17219  1.0000
  C   C362      1.0  0.07661  0.53292  0.99892  1.0000
  H   H592      1.0  0.01719  0.50519  0.00087  1.0000
  H   H593      1.0  0.03502  0.72979  0.20579  1.0000
  H   H594      1.0  0.09716  0.77461  0.19745  1.0000
  H   H595      1.0  0.28507  0.62650  0.13299  1.0000
  H   H596      1.0  0.18390  0.58842  0.05161  1.0000
  H   H597      1.0  0.13827  0.59411  0.01834  1.0000
  N   N27       1.0  0.29702  0.78529  0.09763  1.0000
  S   S94       1.0  0.31404  0.74508  0.02775  1.0000
  H   H598      1.0  0.16552  0.53731  0.02532  1.0000
  H   H599      1.0  0.29380  0.74305  0.09980  1.0000
  H   H600      1.0  0.15434  0.62380  0.20631  1.0000
  H   H601      1.0  0.28510  0.67382  0.02766  1.0000
  C   C363      1.0  0.11265  0.59174  0.04127  1.0000
  N   N28       1.0  0.05337  0.75324  0.20262  1.0000
  H   H602      1.0  0.29044  0.68107  0.10722  1.0000
  C   C364      1.0  0.15768  0.54110  0.06853  1.0000
  H   H603      1.0  0.17330  0.51670  0.16634  1.0000
  H   H604      1.0  0.23275  0.68140  0.15982  1.0000
  H   H605      1.0  0.11524  0.60598  0.22253  1.0000
  H   H606      1.0  0.05394  0.72756  0.17277  1.0000
  H   H607      1.0  0.05919  0.70491  0.18937  1.0000
  H   H608      1.0  0.04019  0.50781  0.02797  1.0000
  H   H609      1.0  0.03027  0.76225  0.18429  1.0000
  H   H610      1.0  0.14149  0.49749  0.11987  1.0000
  H   H611      1.0  0.08032  0.74508  0.21576  1.0000
  H   H612      1.0  0.17460  0.49424  0.13335  1.0000
  H   H613      1.0  0.04945  0.76420  0.15416  1.0000
  C   C365      1.0  0.31221  0.76631  0.10048  1.0000
  H   H614      1.0  0.14099  0.52456  0.11633  1.0000
  H   H615      1.0  0.01253  0.74987  0.22147  1.0000
  H   H616      1.0  0.26347  0.81080  0.13300  1.0000
  C   C366      1.0  0.16498  0.50359  0.16988  1.0000
  H   H617      1.0  0.07409  0.78670  0.18926  1.0000
  H   H618      1.0  0.25109  0.68593  0.03589  1.0000
  C   C367      1.0  0.05110  0.73146  0.20372  1.0000
  H   H619      1.0  0.18378  0.54889  0.00730  1.0000
  C   C368      1.0  0.00529  0.57047  0.02883  1.0000
  H   H620      1.0  0.17360  0.54046  0.06153  1.0000
  H   H621      1.0  0.01331  0.57889  0.01607  1.0000
  H   H622      1.0  0.24941  0.66050  0.03571  1.0000
  H   H623      1.0  0.27219  0.79757  0.08166  1.0000
  H   H624      1.0  0.29490  0.66074  0.12647  1.0000
  H   H625      1.0  0.21468  0.66462  0.13073  1.0000
  H   H626      1.0  0.06462  0.51122  0.98774  1.0000
  S   S95       1.0  0.20687  0.49878  0.09053  1.0000
  H   H627      1.0  0.17351  0.57182  0.07300  1.0000
  H   H628      1.0  0.01771  0.58173  0.97727  1.0000
  H   H629      1.0  0.15569  0.54571  0.08324  1.0000
  H   H630      1.0  0.07290  0.52617  0.01402  1.0000
  H   H631      1.0  0.15658  0.50443  0.18504  1.0000
  H   H632      1.0  0.12684  0.49062  0.15145  1.0000
  H   H633      1.0  0.13159  0.63119  0.19543  1.0000
  H   H634      1.0  0.15488  0.52526  0.07072  1.0000
  H   H635      1.0  0.08754  0.65497  0.20372  1.0000
  H   H636      1.0  0.13723  0.54492  0.04783  1.0000
  C   C369      1.0  0.32196  0.80889  0.09910  1.0000
  C   C370      1.0  0.08620  0.54993  0.99428  1.0000
  C   C371      1.0  0.01256  0.56657  0.04669  1.0000
  H   H637      1.0  0.16901  0.59835  0.07239  1.0000
  C   C372      1.0  0.02353  0.50912  0.02978  1.0000
  H   H638      1.0  0.12991  0.55664  0.15599  1.0000
  H   H639      1.0  0.17384  0.67164  0.20852  1.0000
  H   H640      1.0  0.28193  0.64648  0.15495  1.0000
  H   H641      1.0  0.06281  0.78187  0.15950  1.0000
  C   C373      1.0  0.15113  0.58891  0.05450  1.0000
  H   H642      1.0  0.04115  0.78247  0.18812  1.0000
  H   H643      1.0  0.29629  0.78887  0.12784  1.0000
  C   C374      1.0  0.04488  0.76648  0.18545  1.0000
  H   H644      1.0  0.27134  0.68385  0.16294  1.0000
  S   S96       1.0  0.10363  0.70644  0.21508  1.0000
  H   H645      1.0  0.31367  0.81476  0.11258  1.0000
  H   H646      1.0  0.24701  0.63116  0.14453  1.0000
  H   H647      1.0  0.28055  0.65338  0.01769  1.0000
  C   C375      1.0  0.30522  0.67845  0.99223  1.0000
  C   C376      1.0  0.14003  0.61917  0.20508  1.0000
  H   H648      1.0  0.04501  0.77480  0.22328  1.0000
  H   H649      1.0  0.31023  0.68786  0.97810  1.0000
  H   H650      1.0  0.22659  0.65670  0.16301  1.0000
  H   H651      1.0  0.11690  0.65584  0.21384  1.0000
  C   C377      1.0  0.30838  0.84816  0.21733  1.0000
  H   H652      1.0  0.01258  0.77654  0.21373  1.0000
  H   H653      1.0  0.30048  0.78666  0.05550  1.0000
  H   H654      1.0  0.30647  0.86178  0.20598  1.0000
  C   C378      1.0  0.01842  0.76307  0.22378  1.0000
  C   C379      1.0  0.27427  0.67227  0.98242  1.0000
  H   H655      1.0  0.02486  0.49238  0.08794  1.0000
  H   H656      1.0  0.00019  0.49616  0.08177  1.0000
  H   H657      1.0  0.25318  0.67301  0.18241  1.0000
  H   H658      1.0  0.03685  0.56172  0.98429  1.0000
  N   N29       1.0  0.28256  0.68100  0.99683  1.0000
  H   H659      1.0  0.14391  0.69256  0.22499  1.0000
  C   C380      1.0  0.31631  0.65666  0.99134  1.0000
  C   C381      1.0  0.27429  0.70325  0.99535  1.0000
  H   H660      1.0  0.27792  0.65548  0.98476  1.0000
  C   C382      1.0  0.02486  0.48399  0.05954  1.0000
  H   H661      1.0  0.04140  0.48407  0.05656  1.0000
  H   H662      1.0  0.12268  0.49073  0.18863  1.0000
  H   H663      1.0  0.25758  0.70598  0.99689  1.0000
  C   C383      1.0  0.18133  0.48448  0.17052  1.0000
  C   C384      1.0  0.99353  0.49392  0.04458  1.0000
  H   H664      1.0  0.28810  0.48651  0.01052  1.0000
  H   H665      1.0  0.04964  0.48247  0.00828  1.0000
  H   H666      1.0  0.31369  0.64675  0.00573  1.0000
  N   N30       1.0  0.01621  0.48998  0.04067  1.0000
  C   C385      1.0  0.12726  0.61331  0.22537  1.0000
  H   H667      1.0  0.27957  0.71135  0.98054  1.0000
  H   H668      1.0  0.31838  0.83617  0.20968  1.0000
  H   H669      1.0  0.29369  0.84299  0.22311  1.0000
  S   S97       1.0  0.14208  0.93190  0.42249  1.0000
  H   H670      1.0  0.04060  0.71096  0.25097  1.0000
  S   S98       1.0  0.05254  0.59836  0.31601  1.0000
  H   H671      1.0  0.00620  0.64581  0.25683  1.0000
  Fe  Fe48      1.0  0.10056  0.69228  0.28926  1.0000
  S   S99       1.0  0.08455  0.72028  0.30151  1.0000
  S   S100      1.0  0.11018  0.66259  0.30766  1.0000
  Fe  Fe49      1.0  0.10028  0.71151  0.24676  1.0000
  S   S101      1.0  0.08434  0.74124  0.25560  1.0000
  Fe  Fe50      1.0  0.10562  0.73632  0.27757  1.0000
  S   S102      1.0  0.11991  0.76367  0.27904  1.0000
  Fe  Fe51      1.0  0.06483  0.72286  0.27860  1.0000
  S   S103      1.0  0.03087  0.73150  0.28507  1.0000
  S   S104      1.0  0.12313  0.70785  0.26671  1.0000
  S   S105      1.0  0.07923  0.69350  0.26849  1.0000
  Fe  Fe52      1.0  0.17050  0.85114  0.35718  1.0000
  S   S106      1.0  0.16041  0.82331  0.37578  1.0000
  S   S107      1.0  0.14684  0.87904  0.35608  1.0000
  Fe  Fe53      1.0  0.21309  0.83024  0.34606  1.0000
  S   S108      1.0  0.20608  0.80059  0.36390  1.0000
  S   S109      1.0  0.24596  0.83109  0.33240  1.0000
  Fe  Fe54      1.0  0.17741  0.80700  0.35099  1.0000
  S   S110      1.0  0.16360  0.78070  0.34581  1.0000
  Fe  Fe55      1.0  0.18951  0.81907  0.38707  1.0000
  S   S111      1.0  0.19066  0.80808  0.41943  1.0000
  S   S112      1.0  0.18558  0.83542  0.33129  1.0000
  S   S113      1.0  0.19844  0.84816  0.37026  1.0000
  C   C386      1.0  0.01580  0.72543  0.26997  1.0000
  C   C387      1.0  0.00510  0.63756  0.29816  1.0000
  S   S114      1.0  0.28210  0.91237  0.29908  1.0000
  C   C388      1.0  0.31775  0.86880  0.26209  1.0000
  H   H672      1.0  0.00176  0.55607  0.40841  1.0000
  C   C389      1.0  0.25574  0.85385  0.32344  1.0000
  C   C390      1.0  0.27669  0.85311  0.31813  1.0000
  C   C391      1.0  0.28505  0.87095  0.31117  1.0000
  C   C392      1.0  0.27246  0.88963  0.30888  1.0000
  C   C393      1.0  0.25152  0.89034  0.31419  1.0000
  C   C394      1.0  0.24318  0.87256  0.32161  1.0000
  H   H673      1.0  0.28651  0.83869  0.31971  1.0000
  H   H674      1.0  0.30120  0.87026  0.30772  1.0000
  H   H675      1.0  0.24167  0.90475  0.31253  1.0000
  H   H676      1.0  0.22703  0.87332  0.32566  1.0000
  C   C395      1.0  0.19632  0.82425  0.43370  1.0000
  C   C396      1.0  0.19730  0.84456  0.42622  1.0000
  H   H677      1.0  0.05873  0.64774  0.26420  1.0000
  C   C397      1.0  0.19964  0.81666  0.45303  1.0000
  H   H678      1.0  0.19426  0.85069  0.41157  1.0000
  H   H679      1.0  0.25936  0.88741  0.36710  1.0000
  Fe  Fe56      1.0  0.07691  0.97667  0.44640  1.0000
  C   C398      1.0  0.13260  0.76770  0.29754  1.0000
  C   C399      1.0  0.14249  0.78464  0.29414  1.0000
  C   C400      1.0  0.15249  0.78862  0.30848  1.0000
  C   C401      1.0  0.15241  0.77587  0.32659  1.0000
  C   C402      1.0  0.14254  0.75893  0.32998  1.0000
  C   C403      1.0  0.13275  0.75482  0.31556  1.0000
  H   H680      1.0  0.14262  0.79461  0.28021  1.0000
  H   H681      1.0  0.16038  0.80142  0.30545  1.0000
  H   H682      1.0  0.14244  0.74891  0.34389  1.0000
  H   H683      1.0  0.12524  0.74174  0.31842  1.0000
  H   H684      1.0  0.30852  0.87842  0.27274  1.0000
  H   H685      1.0  0.00013  0.58582  0.43098  1.0000
  C   C404      1.0  0.06825  0.61640  0.31414  1.0000
  C   C405      1.0  0.06019  0.63633  0.31682  1.0000
  C   C406      1.0  0.07293  0.65087  0.31398  1.0000
  C   C407      1.0  0.09383  0.64517  0.30960  1.0000
  C   C408      1.0  0.10189  0.62511  0.30758  1.0000
  C   C409      1.0  0.08911  0.61087  0.30935  1.0000
  H   H686      1.0  0.04414  0.64063  0.32080  1.0000
  H   H687      1.0  0.06665  0.66634  0.31577  1.0000
  H   H688      1.0  0.11805  0.62061  0.30448  1.0000
  H   H689      1.0  0.09541  0.59544  0.30745  1.0000
  C   C410      1.0  0.03581  0.60702  0.42855  1.0000
  H   H690      1.0  0.11656  0.61459  0.26725  1.0000
  C   C411      1.0  0.99477  0.73087  0.27393  1.0000
  H   H691      1.0  0.08269  0.60533  0.27077  1.0000
  C   C412      1.0  0.02295  0.62557  0.42667  1.0000
  C   C413      1.0  0.02898  0.65977  0.27803  1.0000
  H   H692      1.0  0.01488  0.60515  0.29899  1.0000
  H   H693      1.0  0.99560  0.91911  0.47333  1.0000
  H   H694      1.0  0.00841  0.96405  0.42784  1.0000
  C   C414      1.0  0.02444  0.71533  0.25404  1.0000
  Fe  Fe57      1.0  0.11000  0.94187  0.43571  1.0000
  H   H695      1.0  0.99620  0.68883  0.28315  1.0000
  H   H696      1.0  0.01359  0.51917  0.40703  1.0000
  S   S115      1.0  0.08701  0.96205  0.41924  1.0000
  C   C415      1.0  0.14348  0.91778  0.40361  1.0000
  C   C416      1.0  0.16198  0.90690  0.39621  1.0000
  C   C417      1.0  0.16311  0.89491  0.38168  1.0000
  C   C418      1.0  0.14580  0.89391  0.37435  1.0000
  C   C419      1.0  0.12734  0.90499  0.38162  1.0000
  C   C420      1.0  0.12614  0.91674  0.39636  1.0000
  H   H697      1.0  0.17543  0.90761  0.40181  1.0000
  H   H698      1.0  0.17748  0.88687  0.37584  1.0000
  H   H699      1.0  0.11389  0.90431  0.37601  1.0000
  H   H700      1.0  0.11175  0.92496  0.40208  1.0000
  C   C421      1.0  0.01906  0.92346  0.44825  1.0000
  C   C422      1.0  0.00360  0.67772  0.31206  1.0000
  S   S116      1.0  0.04787  0.93048  0.41557  1.0000
  H   H701      1.0  0.08468  0.68419  0.36791  1.0000
  C   C423      1.0  0.13674  0.63752  0.24182  1.0000
  Fe  Fe58      1.0  0.02170  0.59854  0.38647  1.0000
  C   C424      1.0  0.09232  0.60777  0.25612  1.0000
  H   H702      1.0  0.03588  0.65719  0.37823  1.0000
  H   H703      1.0  0.25928  0.87194  0.42946  1.0000
  H   H704      1.0  0.14608  0.65759  0.25784  1.0000
  H   H705      1.0  0.30339  0.84771  0.35275  1.0000
  H   H706      1.0  0.01110  0.65292  0.43916  1.0000
  H   H707      1.0  0.25143  0.84788  0.43303  1.0000
  Fe  Fe59      1.0  0.02821  0.59890  0.34254  1.0000
  H   H708      1.0  0.28091  0.86201  0.27315  1.0000
  C   C425      1.0  0.00636  0.53197  0.45518  1.0000
  H   H709      1.0  0.01186  0.76575  0.23903  1.0000
  C   C426      1.0  0.20427  0.82924  0.46473  1.0000
  H   H710      1.0  0.01603  0.63491  0.30855  1.0000
  H   H711      1.0  0.23850  0.86938  0.41862  1.0000
  H   H712      1.0  0.07627  0.62476  0.42080  1.0000
  C   C427      1.0  0.10653  0.62265  0.25652  1.0000
  H   H713      1.0  0.05217  0.60929  0.47074  1.0000
  H   H714      1.0  0.03548  0.66086  0.29100  1.0000
  H   H715      1.0  0.12741  0.97392  0.41427  1.0000
  H   H716      1.0  0.03164  0.51865  0.42302  1.0000
  C   C428      1.0  0.04397  0.61394  0.45853  1.0000
  Fe  Fe60      1.0  0.31534  0.91509  0.29025  1.0000
  H   H717      1.0  0.12253  0.66748  0.24996  1.0000
  H   H718      1.0  0.01660  0.61788  0.27453  1.0000
  H   H719      1.0  0.03928  0.64107  0.25429  1.0000
  H   H720      1.0  0.03017  0.67436  0.26803  1.0000
  H   H721      1.0  0.13033  0.96446  0.38285  1.0000
  H   H722      1.0  0.16469  0.84820  0.45985  1.0000
  Fe  Fe61      1.0  0.06656  0.93982  0.43432  1.0000
  S   S117      1.0  0.09046  0.91834  0.44854  1.0000
  H   H723      1.0  0.29757  0.86283  0.37175  1.0000
  N   N31       1.0  0.99463  0.54224  0.43886  1.0000
  H   H724      1.0  0.14984  0.83981  0.42775  1.0000
  H   H725      1.0  0.10012  0.65971  0.23537  1.0000
  H   H726      1.0  0.20265  0.87283  0.43201  1.0000
  H   H727      1.0  0.28210  0.82820  0.28107  1.0000
  C   C429      1.0  0.03150  0.63269  0.45653  1.0000
  H   H728      1.0  0.01763  0.68450  0.30799  1.0000
  C   C430      1.0  0.00722  0.52601  0.36172  1.0000
  H   H729      1.0  0.16897  0.87630  0.47173  1.0000
  H   H730      1.0  0.03355  0.53362  0.39916  1.0000
  H   H731      1.0  0.14354  0.85944  0.40838  1.0000
  H   H732      1.0  0.13295  0.88489  0.42960  1.0000
  N   N32       1.0  0.11892  0.63026  0.23721  1.0000
  Fe  Fe62      1.0  0.08094  0.93636  0.47330  1.0000
  S   S118      1.0  0.05480  0.95576  0.46037  1.0000
  C   C431      1.0  0.28737  0.85501  0.25969  1.0000
  H   H733      1.0  0.14721  0.62459  0.24842  1.0000
  H   H734      1.0  0.04521  0.62871  0.27836  1.0000
  C   C432      1.0  0.13782  0.88481  0.46585  1.0000
  S   S119      1.0  0.04004  0.59100  0.41087  1.0000
  C   C433      1.0  0.02081  0.63843  0.44070  1.0000
  N   N33       1.0  0.08186  0.64089  0.37832  1.0000
  C   C434      1.0  0.09624  0.63095  0.39236  1.0000
  C   C435      1.0  0.09325  0.65313  0.36104  1.0000
  C   C436      1.0  0.07347  0.62547  0.37082  1.0000
  C   C437      1.0  0.06454  0.65395  0.38901  1.0000
  C   C438      1.0  0.08775  0.61650  0.41042  1.0000
  C   C439      1.0  0.08911  0.60873  0.36206  1.0000
  H   H735      1.0  0.11004  0.62241  0.38462  1.0000
  H   H736      1.0  0.10172  0.64253  0.39831  1.0000
  H   H737      1.0  0.16673  0.89237  0.44820  1.0000
  H   H738      1.0  0.10778  0.64408  0.35527  1.0000
  H   H739      1.0  0.06263  0.61804  0.38255  1.0000
  H   H740      1.0  0.06449  0.63296  0.35909  1.0000
  H   H741      1.0  0.05615  0.64458  0.40145  1.0000
  H   H742      1.0  0.08144  0.60434  0.40640  1.0000
  H   H743      1.0  0.10015  0.60899  0.41868  1.0000
  H   H744      1.0  0.09697  0.59851  0.37342  1.0000
  H   H745      1.0  0.10025  0.61498  0.34993  1.0000
  H   H746      1.0  0.08115  0.59929  0.35581  1.0000
  C   C440      1.0  0.00960  0.54686  0.42041  1.0000
  N   N34       1.0  0.10529  0.83468  0.34451  1.0000
  C   C441      1.0  0.12028  0.84916  0.33754  1.0000
  C   C442      1.0  0.09175  0.84128  0.36262  1.0000
  C   C443      1.0  0.09289  0.83667  0.32847  1.0000
  C   C444      1.0  0.11670  0.81347  0.34830  1.0000
  C   C445      1.0  0.13414  0.84678  0.31771  1.0000
  C   C446      1.0  0.10266  0.84381  0.37911  1.0000
  C   C447      1.0  0.07617  0.82353  0.33258  1.0000
  C   C448      1.0  0.10628  0.79803  0.36403  1.0000
  H   H747      1.0  0.11254  0.86516  0.33648  1.0000
  H   H748      1.0  0.13065  0.84735  0.34833  1.0000
  H   H749      1.0  0.08099  0.83068  0.36929  1.0000
  H   H750      1.0  0.08213  0.85607  0.35868  1.0000
  H   H751      1.0  0.08579  0.85272  0.32472  1.0000
  H   H752      1.0  0.10254  0.83245  0.31470  1.0000
  H   H753      1.0  0.12087  0.80684  0.33448  1.0000
  H   H754      1.0  0.13132  0.81349  0.35296  1.0000
  H   H755      1.0  0.14617  0.85619  0.31574  1.0000
  H   H756      1.0  0.14163  0.83096  0.31726  1.0000
  H   H757      1.0  0.12594  0.85235  0.30510  1.0000
  H   H758      1.0  0.10899  0.85814  0.37548  1.0000
  H   H759      1.0  0.09171  0.84465  0.39297  1.0000
  H   H760      1.0  0.06566  0.82540  0.34647  1.0000
  H   H761      1.0  0.08266  0.80740  0.33218  1.0000
  H   H762      1.0  0.06702  0.82809  0.32055  1.0000
  H   H763      1.0  0.10540  0.80131  0.37908  1.0000
  H   H764      1.0  0.11558  0.78283  0.36347  1.0000
  H   H765      1.0  0.09110  0.79687  0.36170  1.0000
  N   N35       1.0  0.26051  0.84709  0.38966  1.0000
  C   C449      1.0  0.25230  0.82862  0.40140  1.0000
  C   C450      1.0  0.26842  0.85687  0.40356  1.0000
  C   C451      1.0  0.27776  0.83984  0.37434  1.0000
  C   C452      1.0  0.24386  0.86087  0.38012  1.0000
  C   C453      1.0  0.24604  0.81476  0.38937  1.0000
  C   C454      1.0  0.25339  0.86173  0.42214  1.0000
  C   C455      1.0  0.29069  0.85553  0.36245  1.0000
  C   C456      1.0  0.24487  0.88373  0.37561  1.0000
  H   H766      1.0  0.26345  0.81907  0.41031  1.0000
  H   H767      1.0  0.23868  0.83297  0.41220  1.0000
  H   H768      1.0  0.27368  0.87121  0.39613  1.0000
  H   H769      1.0  0.28195  0.84698  0.40865  1.0000
  H   H770      1.0  0.28828  0.82723  0.38132  1.0000
  H   H771      1.0  0.27222  0.83350  0.36323  1.0000
  H   H772      1.0  0.00067  0.67208  0.25528  1.0000
  H   H773      1.0  0.22890  0.85964  0.38946  1.0000
  H   H774      1.0  0.23715  0.80387  0.39949  1.0000
  H   H775      1.0  0.23648  0.82333  0.37861  1.0000
  H   H776      1.0  0.25937  0.80575  0.38155  1.0000
  H   H777      1.0  0.11494  0.83107  0.38194  1.0000
  H   H778      1.0  0.24279  0.85614  0.36605  1.0000
  H   H779      1.0  0.00582  0.66364  0.32275  1.0000
  H   H780      1.0  0.27504  0.85817  0.25073  1.0000
  C   C457      1.0  0.02446  0.92428  0.42788  1.0000
  C   C458      1.0  0.04357  0.64318  0.26810  1.0000
  H   H781      1.0  0.99239  0.61403  0.28925  1.0000
  C   C459      1.0  0.04609  0.60114  0.44459  1.0000
  H   H782      1.0  0.12437  0.64730  0.27068  1.0000
  H   H783      1.0  0.23309  0.89134  0.36662  1.0000
  N   N36       1.0  0.13542  0.86646  0.45793  1.0000
  H   H784      1.0  0.06986  0.66458  0.39639  1.0000
  C   C460      1.0  0.14173  0.87048  0.43588  1.0000
  H   H785      1.0  0.15287  0.97291  0.40249  1.0000
  C   C461      1.0  0.99975  0.91973  0.45756  1.0000
  H   H786      1.0  0.30667  0.82479  0.26710  1.0000
  S   S120      1.0  0.02853  0.57378  0.36815  1.0000
  H   H787      1.0  0.09717  0.63552  0.26344  1.0000
  C   C462      1.0  0.11356  0.86359  0.46204  1.0000
  H   H788      1.0  0.12370  0.85112  0.42676  1.0000
  H   H789      1.0  0.01222  0.51587  0.45366  1.0000
  C   C463      1.0  0.00739  0.61793  0.28928  1.0000
  H   H790      1.0  0.11224  0.84794  0.46062  1.0000
  C   C464      1.0  0.00655  0.48987  0.36651  1.0000
  H   H791      1.0  0.04621  0.74927  0.23457  1.0000
  C   C465      1.0  0.01216  0.71096  0.24200  1.0000
  H   H792      1.0  0.24156  0.89065  0.38920  1.0000
  C   C466      1.0  0.09840  0.67290  0.36495  1.0000
  C   C467      1.0  0.99339  0.57843  0.44556  1.0000
  H   H793      1.0  0.04233  0.68054  0.38181  1.0000
  C   C468      1.0  0.15953  0.88893  0.46373  1.0000
  C   C469      1.0  0.20205  0.85708  0.43784  1.0000
  H   H794      1.0  0.10720  0.67033  0.37711  1.0000
  C   C470      1.0  0.01062  0.92111  0.41692  1.0000
  C   C471      1.0  0.28405  0.90040  0.24906  1.0000
  H   H795      1.0  0.19885  0.80095  0.45886  1.0000
  C   C472      1.0  0.20568  0.84944  0.45705  1.0000
  S   S121      1.0  0.21195  0.86564  0.47088  1.0000
  N   N37       1.0  0.00724  0.65683  0.28385  1.0000
  H   H796      1.0  0.28488  0.82419  0.25643  1.0000
  H   H797      1.0  0.05603  0.58677  0.44611  1.0000
  H   H798      1.0  0.08501  0.65718  0.34836  1.0000
  S   S122      1.0  0.10219  0.95862  0.46155  1.0000
  H   H799      1.0  0.02971  0.92567  0.45685  1.0000
  H   H800      1.0  0.00538  0.57256  0.45468  1.0000
  H   H801      1.0  0.27113  0.89442  0.25900  1.0000
  H   H802      1.0  0.15781  0.87244  0.43184  1.0000
  S   S123      1.0  0.02389  0.62344  0.36073  1.0000
  H   H803      1.0  0.01482  0.92149  0.40120  1.0000
  H   H804      1.0  0.14578  0.83422  0.46053  1.0000
  H   H805      1.0  0.08208  0.61335  0.24525  1.0000
  C   C473      1.0  0.04846  0.66582  0.37665  1.0000
  C   C474      1.0  0.01597  0.50658  0.35761  1.0000
  H   H806      1.0  0.14699  0.97031  0.43855  1.0000
  H   H807      1.0  0.29277  0.90645  0.25767  1.0000
  H   H808      1.0  0.02975  0.50458  0.34714  1.0000
  H   H809      1.0  0.05435  0.66947  0.36080  1.0000
  H   H810      1.0  0.12898  0.89864  0.45862  1.0000
  H   H811      1.0  0.01422  0.53893  0.35437  1.0000
  H   H812      1.0  0.01999  0.53903  0.45417  1.0000
  H   H813      1.0  0.01494  0.63013  0.41431  1.0000
  C   C475      1.0  0.13940  0.85408  0.42437  1.0000
  H   H814      1.0  0.10781  0.67971  0.35149  1.0000
  C   C476      1.0  0.02271  0.52830  0.41218  1.0000
  H   H815      1.0  0.10094  0.59274  0.25349  1.0000
  H   H816      1.0  0.10510  0.87364  0.45088  1.0000
  H   H817      1.0  0.27772  0.91353  0.23889  1.0000
  H   H818      1.0  0.02031  0.55613  0.42285  1.0000
  C   C477      1.0  0.13181  0.65335  0.25588  1.0000
  C   C478      1.0  0.29094  0.83182  0.26615  1.0000
  H   H819      1.0  0.01894  0.70325  0.22961  1.0000
  N   N38       1.0  0.30517  0.86460  0.24837  1.0000
  C   C479      1.0  0.29743  0.88468  0.23688  1.0000
  H   H820      1.0  0.28217  0.86693  0.35246  1.0000
  C   C480      1.0  0.99832  0.97878  0.42560  1.0000
  H   H821      1.0  0.03848  0.97351  0.41902  1.0000
  H   H822      1.0  0.01326  0.98153  0.37573  1.0000
  C   C481      1.0  0.99842  0.65781  0.26553  1.0000
  C   C482      1.0  0.10693  0.64792  0.22596  1.0000
  H   H823      1.0  0.14577  0.64447  0.22821  1.0000
  H   H824      1.0  0.15918  0.90250  0.47049  1.0000
  Fe  Fe63      1.0  0.99519  0.57790  0.36951  1.0000
  Fe  Fe64      1.0  0.99092  0.62340  0.36183  1.0000
  C   C483      1.0  0.14860  0.84761  0.46587  1.0000
  S   S124      1.0  0.99542  0.60040  0.34174  1.0000
  H   H825      1.0  0.99399  0.95290  0.38035  1.0000
  H   H826      1.0  0.13675  0.60098  0.23388  1.0000
  C   C484      1.0  0.99126  0.91765  0.42620  1.0000
  C   C485      1.0  0.99603  0.67452  0.29370  1.0000
  H   H827      1.0  0.99580  0.51657  0.32168  1.0000
  H   H828      1.0  0.01905  0.96203  0.39504  1.0000
  H   H829      1.0  0.07512  0.64541  0.22776  1.0000
  H   H830      1.0  0.99213  0.68870  0.31978  1.0000
  H   H831      1.0  0.04883  0.97877  0.39340  1.0000
  C   C486      1.0  0.99115  0.71658  0.24581  1.0000
  C   C487      1.0  0.13160  0.98048  0.38280  1.0000
  C   C488      1.0  0.00707  0.97473  0.39085  1.0000
  S   S125      1.0  0.02957  0.64898  0.47364  1.0000
  H   H832      1.0  0.99388  0.98139  0.45659  1.0000
  C   C489      1.0  0.13756  0.98213  0.40246  1.0000
  H   H833      1.0  0.31195  0.98213  0.27924  1.0000
  C   C490      1.0  0.31850  0.85211  0.23375  1.0000
  H   H834      1.0  0.07609  0.70787  0.47490  1.0000
  H   H835      1.0  0.31739  0.84262  0.28581  1.0000
  H   H836      1.0  0.31022  0.89191  0.22781  1.0000
  H   H837      1.0  0.99022  0.49363  0.30446  1.0000
  H   H838      1.0  0.28807  0.88263  0.22634  1.0000
  H   H839      1.0  0.01356  0.71474  0.65815  1.0000
  C   C491      1.0  0.12937  0.73526  0.66368  1.0000
  H   H840      1.0  0.05299  0.48852  0.58389  1.0000
  H   H841      1.0  0.09706  0.70042  0.52193  1.0000
  H   H842      1.0  0.20817  0.78946  0.51219  1.0000
  S   S126      1.0  0.18998  0.67022  0.71407  1.0000
  H   H843      1.0  0.11379  0.77280  0.67433  1.0000
  N   N39       1.0  0.04675  0.64709  0.62497  1.0000
  S   S127      1.0  0.07687  0.92109  0.50468  1.0000
  H   H844      1.0  0.12093  0.77274  0.64873  1.0000
  H   H845      1.0  0.26727  0.87056  0.70124  1.0000
  C   C492      1.0  0.28938  0.86589  0.65376  1.0000
  H   H846      1.0  0.13846  0.96337  0.55620  1.0000
  Fe  Fe65      1.0  0.07805  0.59723  0.50957  1.0000
  S   S128      1.0  0.08368  0.62390  0.48630  1.0000
  S   S129      1.0  0.08636  0.56512  0.50366  1.0000
  Fe  Fe66      1.0  0.05273  0.62335  0.53858  1.0000
  S   S130      1.0  0.05591  0.65223  0.51790  1.0000
  S   S131      1.0  0.03339  0.62135  0.56839  1.0000
  Fe  Fe67      1.0  0.05101  0.63568  0.49498  1.0000
  Fe  Fe68      1.0  0.08825  0.63824  0.51119  1.0000
  S   S132      1.0  0.11181  0.65855  0.50469  1.0000
  S   S133      1.0  0.04502  0.60807  0.51626  1.0000
  S   S134      1.0  0.08564  0.61037  0.53384  1.0000
  Fe  Fe69      1.0  0.17877  0.87209  0.53969  1.0000
  S   S135      1.0  0.18083  0.84626  0.52344  1.0000
  S   S136      1.0  0.14974  0.89040  0.55188  1.0000
  Fe  Fe70      1.0  0.22407  0.86723  0.53902  1.0000
  S   S137      1.0  0.23000  0.84080  0.52248  1.0000
  S   S138      1.0  0.25019  0.88129  0.54355  1.0000
  Fe  Fe71      1.0  0.20731  0.85870  0.50414  1.0000
  H   H847      1.0  0.24294  0.87894  0.68184  1.0000
  Fe  Fe72      1.0  0.20310  0.83037  0.54321  1.0000
  S   S139      1.0  0.20417  0.79726  0.55627  1.0000
  S   S140      1.0  0.20333  0.88595  0.51895  1.0000
  S   S141      1.0  0.19904  0.85533  0.56117  1.0000
  H   H848      1.0  0.03816  0.73310  0.51833  1.0000
  S   S142      1.0  0.28192  0.95522  0.64149  1.0000
  S   S143      1.0  0.26076  0.92159  0.61514  1.0000
  H   H849      1.0  0.29363  0.88547  0.62496  1.0000
  H   H850      1.0  0.09186  0.72715  0.51667  1.0000
  H   H851      1.0  0.18788  0.91533  0.59467  1.0000
  Fe  Fe73      1.0  0.13182  0.69721  0.59287  1.0000
  S   S144      1.0  0.11191  0.72640  0.58521  1.0000
  S   S145      1.0  0.15250  0.68459  0.56769  1.0000
  Fe  Fe74      1.0  0.11675  0.69521  0.63653  1.0000
  S   S146      1.0  0.09477  0.72419  0.63221  1.0000
  Fe  Fe75      1.0  0.08795  0.71233  0.60688  1.0000
  S   S147      1.0  0.05922  0.71500  0.59464  1.0000
  Fe  Fe76      1.0  0.12063  0.73571  0.61081  1.0000
  S   S148      1.0  0.12591  0.76768  0.60928  1.0000
  S   S149      1.0  0.10752  0.68224  0.61293  1.0000
  S   S150      1.0  0.14297  0.70763  0.61680  1.0000
  H   H852      1.0  0.15594  0.75881  0.63660  1.0000
  C   C493      1.0  0.19239  0.91244  0.56310  1.0000
  Fe  Fe77      1.0  0.28760  0.93589  0.61758  1.0000
  H   H853      1.0  0.11671  0.49917  0.55030  1.0000
  C   C494      1.0  0.03577  0.71526  0.61024  1.0000
  C   C495      1.0  0.03390  0.71534  0.63043  1.0000
  H   H854      1.0  0.10349  0.72009  0.67559  1.0000
  C   C496      1.0  0.01872  0.71468  0.60221  1.0000
  C   C497      1.0  0.06602  0.70425  0.50646  1.0000
  H   H855      1.0  0.02006  0.71462  0.58661  1.0000
  H   H856      1.0  0.19481  0.96344  0.55716  1.0000
  H   H857      1.0  0.29069  0.84913  0.65709  1.0000
  C   C498      1.0  0.25341  0.89138  0.56407  1.0000
  C   C499      1.0  0.24053  0.88902  0.58213  1.0000
  C   C500      1.0  0.24314  0.89816  0.59770  1.0000
  C   C501      1.0  0.25877  0.90954  0.59545  1.0000
  C   C502      1.0  0.27196  0.91145  0.57758  1.0000
  C   C503      1.0  0.26924  0.90245  0.56196  1.0000
  H   H858      1.0  0.22861  0.88015  0.58406  1.0000
  H   H859      1.0  0.23292  0.89651  0.61152  1.0000
  C   C504      1.0  0.26315  0.91066  0.68095  1.0000
  H   H860      1.0  0.27936  0.90424  0.54809  1.0000
  C   C505      1.0  0.18270  0.78941  0.57190  1.0000
  C   C506      1.0  0.18278  0.76876  0.57915  1.0000
  C   C507      1.0  0.16535  0.76187  0.59037  1.0000
  C   C508      1.0  0.14789  0.77567  0.59483  1.0000
  C   C509      1.0  0.14799  0.79636  0.58808  1.0000
  C   C510      1.0  0.16526  0.80320  0.57645  1.0000
  H   H861      1.0  0.19628  0.75803  0.57578  1.0000
  H   H862      1.0  0.16548  0.74592  0.59570  1.0000
  H   H863      1.0  0.13455  0.80713  0.59159  1.0000
  H   H864      1.0  0.16504  0.81914  0.57096  1.0000
  H   H865      1.0  0.07853  0.49921  0.51742  1.0000
  H   H866      1.0  0.19212  0.78720  0.49599  1.0000
  H   H867      1.0  0.21976  0.93605  0.51017  1.0000
  C   C511      1.0  0.06114  0.65888  0.65174  1.0000
  H   H868      1.0  0.20984  0.56559  0.67933  1.0000
  C   C512      1.0  0.05923  0.65909  0.60847  1.0000
  H   H869      1.0  0.12056  0.91773  0.49129  1.0000
  C   C513      1.0  0.14633  0.61844  0.69713  1.0000
  Fe  Fe78      1.0  0.30181  0.97530  0.62086  1.0000
  H   H870      1.0  0.03134  0.69108  0.52970  1.0000
  C   C514      1.0  0.12293  0.66416  0.52321  1.0000
  C   C515      1.0  0.14084  0.67224  0.51746  1.0000
  C   C516      1.0  0.14983  0.67810  0.53131  1.0000
  C   C517      1.0  0.14069  0.67654  0.55102  1.0000
  C   C518      1.0  0.12259  0.66865  0.55693  1.0000
  C   C519      1.0  0.11380  0.66222  0.54303  1.0000
  H   H871      1.0  0.14790  0.67382  0.50217  1.0000
  H   H872      1.0  0.16384  0.68403  0.52668  1.0000
  H   H873      1.0  0.11552  0.66729  0.57218  1.0000
  H   H874      1.0  0.09989  0.65609  0.54754  1.0000
  C   C520      1.0  0.21692  0.93391  0.52651  1.0000
  C   C521      1.0  0.03212  0.53297  0.52827  1.0000
  C   C522      1.0  0.03650  0.54724  0.53810  1.0000
  C   C523      1.0  0.05326  0.55693  0.53063  1.0000
  C   C524      1.0  0.06576  0.55241  0.51326  1.0000
  C   C525      1.0  0.06163  0.53785  0.50355  1.0000
  C   C526      1.0  0.04477  0.52812  0.51105  1.0000
  H   H875      1.0  0.07129  0.53438  0.49007  1.0000
  H   H876      1.0  0.20706  0.82328  0.47953  1.0000
  C   C527      1.0  0.09787  0.91263  0.51680  1.0000
  C   C528      1.0  0.11777  0.91220  0.50688  1.0000
  C   C529      1.0  0.13404  0.90458  0.51726  1.0000
  C   C530      1.0  0.13028  0.89814  0.53766  1.0000
  C   C531      1.0  0.11041  0.89908  0.54746  1.0000
  C   C532      1.0  0.09433  0.90595  0.53705  1.0000
  H   H877      1.0  0.24696  0.91175  0.68023  1.0000
  H   H878      1.0  0.14939  0.90420  0.50966  1.0000
  H   H879      1.0  0.10741  0.89431  0.56320  1.0000
  H   H880      1.0  0.07902  0.90631  0.54480  1.0000
  C   C533      1.0  0.06237  0.61394  0.61126  1.0000
  H   H881      1.0  0.99758  0.57906  0.55855  1.0000
  H   H882      1.0  0.12749  0.76423  0.53071  1.0000
  H   H883      1.0  0.13592  0.62450  0.70967  1.0000
  H   H884      1.0  0.23308  0.85351  0.66776  1.0000
  H   H885      1.0  0.18707  0.73391  0.63826  1.0000
  N   N40       1.0  0.06523  0.71265  0.52512  1.0000
  C   C534      1.0  0.99986  0.58521  0.51967  1.0000
  H   H886      1.0  0.29253  0.89986  0.66544  1.0000
  S   S151      1.0  0.11748  0.67753  0.66731  1.0000
  H   H887      1.0  0.08940  0.70076  0.55757  1.0000
  C   C535      1.0  0.15597  0.77539  0.49387  1.0000
  H   H888      1.0  0.16110  0.83307  0.49211  1.0000
  H   H889      1.0  0.14996  0.72530  0.71220  1.0000
  C   C536      1.0  0.12717  0.77136  0.66253  1.0000
  N   N41       1.0  0.16962  0.75959  0.52654  1.0000
  C   C537      1.0  0.17007  0.73980  0.54054  1.0000
  C   C538      1.0  0.15405  0.77499  0.53635  1.0000
  C   C539      1.0  0.19016  0.76572  0.52369  1.0000
  C   C540      1.0  0.16487  0.75643  0.50730  1.0000
  C   C541      1.0  0.18671  0.72235  0.53449  1.0000
  N   N42       1.0  0.18690  0.93462  0.55552  1.0000
  S   S152      1.0  0.01035  0.52211  0.53776  1.0000
  C   C542      1.0  0.13267  0.76953  0.54259  1.0000
  H   H890      1.0  0.17175  0.74193  0.55548  1.0000
  H   H891      1.0  0.15561  0.73388  0.54258  1.0000
  H   H892      1.0  0.15256  0.79007  0.52717  1.0000
  H   H893      1.0  0.15879  0.77762  0.54980  1.0000
  S   S153      1.0  0.31035  0.92621  0.68325  1.0000
  H   H894      1.0  0.06992  0.65266  0.66388  1.0000
  H   H895      1.0  0.17855  0.74888  0.49844  1.0000
  H   H896      1.0  0.15371  0.74584  0.51017  1.0000
  H   H897      1.0  0.30094  0.97115  0.71220  1.0000
  C   C543      1.0  0.99992  0.71388  0.61429  1.0000
  H   H898      1.0  0.18400  0.70823  0.54470  1.0000
  N   N43       1.0  0.14062  0.75123  0.66641  1.0000
  H   H899      1.0  0.18651  0.90324  0.55467  1.0000
  H   H900      1.0  0.10495  0.52481  0.55080  1.0000
  H   H901      1.0  0.05067  0.63059  0.65393  1.0000
  C   C544      1.0  0.01073  0.63840  0.56860  1.0000
  H   H902      1.0  0.02403  0.71078  0.54500  1.0000
  H   H903      1.0  0.19465  0.76528  0.53821  1.0000
  N   N44       1.0  0.08077  0.48482  0.54730  1.0000
  H   H904      1.0  0.01501  0.56601  0.49798  1.0000
  H   H905      1.0  0.07243  0.60778  0.62230  1.0000
  H   H906      1.0  0.10714  0.71674  0.54563  1.0000
  H   H907      1.0  0.21550  0.93444  0.58709  1.0000
  C   C545      1.0  0.99536  0.53205  0.47654  1.0000
  H   H908      1.0  0.20183  0.72497  0.53587  1.0000
  H   H909      1.0  0.20307  0.59019  0.70913  1.0000
  H   H910      1.0  0.03333  0.63073  0.60825  1.0000
  H   H911      1.0  0.25417  0.84166  0.67955  1.0000
  H   H912      1.0  0.01409  0.58423  0.52540  1.0000
  C   C546      1.0  0.05824  0.64126  0.64205  1.0000
  H   H913      1.0  0.29897  0.88487  0.69617  1.0000
  H   H914      1.0  0.15921  0.68421  0.65440  1.0000
  H   H915      1.0  0.31270  0.86453  0.68328  1.0000
  H   H916      1.0  0.16578  0.58525  0.68026  1.0000
  H   H917      1.0  0.09313  0.71470  0.48767  1.0000
  H   H918      1.0  0.08193  0.72791  0.55373  1.0000
  H   H919      1.0  0.26954  0.87742  0.63087  1.0000
  C   C547      1.0  0.15491  0.96109  0.55054  1.0000
  H   H920      1.0  0.06543  0.68254  0.54172  1.0000
  H   H921      1.0  0.09791  0.74655  0.67597  1.0000
  H   H922      1.0  0.07527  0.65168  0.60602  1.0000
  H   H923      1.0  0.07385  0.68830  0.50775  1.0000
  H   H924      1.0  0.19193  0.89000  0.58958  1.0000
  H   H925      1.0  0.04662  0.66717  0.65835  1.0000
  C   C548      1.0  0.05197  0.66439  0.58843  1.0000
  H   H926      1.0  0.06022  0.67377  0.61255  1.0000
  H   H927      1.0  0.06525  0.66557  0.57663  1.0000
  C   C549      1.0  0.24948  0.85307  0.66714  1.0000
  H   H928      1.0  0.11210  0.72984  0.69373  1.0000
  H   H929      1.0  0.01735  0.65203  0.53833  1.0000
  H   H930      1.0  0.13132  0.75326  0.69757  1.0000
  H   H931      1.0  0.02083  0.65389  0.64740  1.0000
  H   H932      1.0  0.25711  0.84812  0.65299  1.0000
  S   S154      1.0  0.31513  0.91668  0.62816  1.0000
  C   C550      1.0  0.27669  0.89799  0.66591  1.0000
  C   C551      1.0  0.10964  0.73310  0.67822  1.0000
  C   C552      1.0  0.05642  0.69795  0.54197  1.0000
  C   C553      1.0  0.10120  0.86782  0.48215  1.0000
  H   H933      1.0  0.20187  0.75485  0.51606  1.0000
  C   C554      1.0  0.14514  0.74874  0.68703  1.0000
  C   C555      1.0  0.08662  0.71386  0.52676  1.0000
  H   H934      1.0  0.07080  0.62165  0.59771  1.0000
  H   H935      1.0  0.18480  0.95016  0.58017  1.0000
  C   C556      1.0  0.28558  0.87276  0.63231  1.0000
  C   C557      1.0  0.10459  0.51087  0.54492  1.0000
  H   H936      1.0  0.01347  0.66583  0.60447  1.0000
  H   H937      1.0  0.27311  0.90536  0.65123  1.0000
  H   H938      1.0  0.16129  0.97282  0.55521  1.0000
  N   N45       1.0  0.18435  0.60489  0.68713  1.0000
  C   C558      1.0  0.20379  0.60140  0.69532  1.0000
  H   H939      1.0  0.15768  0.92896  0.55232  1.0000
  H   H940      1.0  0.15864  0.61186  0.65973  1.0000
  C   C559      1.0  0.18676  0.61880  0.66766  1.0000
  C   C560      1.0  0.21029  0.62022  0.69989  1.0000
  C   C561      1.0  0.19647  0.57202  0.67212  1.0000
  C   C562      1.0  0.03408  0.69633  0.54280  1.0000
  C   C563      1.0  0.17237  0.61848  0.65324  1.0000
  C   C564      1.0  0.16416  0.93947  0.55881  1.0000
  H   H941      1.0  0.21666  0.59479  0.68491  1.0000
  H   H942      1.0  0.04168  0.67904  0.58745  1.0000
  H   H943      1.0  0.99670  0.67231  0.62591  1.0000
  H   H944      1.0  0.22356  0.91811  0.53139  1.0000
  H   H945      1.0  0.17091  0.62933  0.70359  1.0000
  H   H946      1.0  0.18518  0.63475  0.67010  1.0000
  H   H947      1.0  0.20232  0.61527  0.65947  1.0000
  H   H948      1.0  0.21067  0.63272  0.68728  1.0000
  H   H949      1.0  0.20054  0.62568  0.71297  1.0000
  H   H950      1.0  0.99072  0.59869  0.57323  1.0000
  H   H951      1.0  0.00441  0.61385  0.54076  1.0000
  H   H952      1.0  0.06986  0.66967  0.64137  1.0000
  C   C565      1.0  0.07688  0.71549  0.48735  1.0000
  C   C566      1.0  0.00680  0.65220  0.55184  1.0000
  C   C567      1.0  0.25321  0.87431  0.66852  1.0000
  C   C568      1.0  0.08353  0.50473  0.55198  1.0000
  H   H953      1.0  0.16717  0.63426  0.64655  1.0000
  H   H954      1.0  0.15787  0.93728  0.57478  1.0000
  H   H955      1.0  0.18055  0.61064  0.64080  1.0000
  C   C569      1.0  0.18454  0.90569  0.58504  1.0000
  H   H956      1.0  0.22576  0.61604  0.70355  1.0000
  H   H957      1.0  0.03510  0.61880  0.63241  1.0000
  H   H958      1.0  0.10295  0.48609  0.52050  1.0000
  C   C570      1.0  0.13700  0.79034  0.66070  1.0000
  C   C571      1.0  0.16791  0.61443  0.70179  1.0000
  H   H959      1.0  0.00662  0.62429  0.50681  1.0000
  H   H960      1.0  0.20882  0.90724  0.56071  1.0000
  H   H961      1.0  0.10781  0.51481  0.52866  1.0000
  H   H962      1.0  0.22427  0.95399  0.56912  1.0000
  H   H963      1.0  0.04454  0.65282  0.58498  1.0000
  C   C572      1.0  0.19284  0.78664  0.51171  1.0000
  H   H964      1.0  0.08003  0.50508  0.56805  1.0000
  H   H965      1.0  0.18674  0.92949  0.52605  1.0000
  C   C573      1.0  0.01499  0.71473  0.64252  1.0000
  H   H966      1.0  0.12570  0.73829  0.64851  1.0000
  H   H967      1.0  0.22499  0.94458  0.53082  1.0000
  C   C574      1.0  0.05248  0.73329  0.52352  1.0000
  H   H968      1.0  0.16211  0.77380  0.47826  1.0000
  C   C575      1.0  0.15519  0.72774  0.69605  1.0000
  C   C576      1.0  0.15108  0.66702  0.71101  1.0000
  H   H969      1.0  0.26659  0.92632  0.67734  1.0000
  H   H970      1.0  0.26597  0.90492  0.69618  1.0000
  C   C577      1.0  0.04331  0.62781  0.61948  1.0000
  H   H971      1.0  0.22620  0.92987  0.56240  1.0000
  C   C578      1.0  0.17270  0.67772  0.68077  1.0000
  S   S155      1.0  0.30510  0.95764  0.59596  1.0000
  H   H972      1.0  0.14855  0.79196  0.64726  1.0000
  C   C579      1.0  0.17280  0.73109  0.64816  1.0000
  H   H973      1.0  0.17692  0.72176  0.66184  1.0000
  H   H974      1.0  0.13189  0.75793  0.55599  1.0000
  H   H975      1.0  0.07270  0.51719  0.54531  1.0000
  H   H976      1.0  0.14470  0.63028  0.68411  1.0000
  H   H977      1.0  0.16959  0.76097  0.65503  1.0000
  H   H978      1.0  0.16545  0.72238  0.64059  1.0000
  C   C580      1.0  0.02684  0.65968  0.63184  1.0000
  H   H979      1.0  0.16813  0.90519  0.58759  1.0000
  H   H980      1.0  0.00356  0.64646  0.62332  1.0000
  H   H981      1.0  0.13941  0.77629  0.49530  1.0000
  H   H982      1.0  0.29099  0.85997  0.62388  1.0000
  H   H983      1.0  0.02945  0.68496  0.55561  1.0000
  H   H984      1.0  0.12194  0.78310  0.54657  1.0000
  H   H985      1.0  0.14360  0.79058  0.67385  1.0000
  C   C581      1.0  0.99799  0.71384  0.63451  1.0000
  H   H986      1.0  0.28406  0.92012  0.57566  1.0000
  C   C582      1.0  0.19493  0.94807  0.56597  1.0000
  H   H987      1.0  0.07365  0.63312  0.63751  1.0000
  C   C583      1.0  0.21633  0.94079  0.57123  1.0000
  H   H988      1.0  0.30490  0.86865  0.65362  1.0000
  H   H989      1.0  0.20115  0.58097  0.65762  1.0000
  H   H990      1.0  0.05664  0.56778  0.53846  1.0000
  H   H991      1.0  0.04697  0.71582  0.63673  1.0000
  H   H992      1.0  0.18228  0.79915  0.51796  1.0000
  H   H993      1.0  0.24742  0.88510  0.65610  1.0000
  H   H994      1.0  0.18666  0.71951  0.51946  1.0000
  H   H995      1.0  0.15936  0.78992  0.49600  1.0000
  H   H996      1.0  0.02688  0.55084  0.55156  1.0000
  C   C584      1.0  0.19407  0.93842  0.53362  1.0000
  C   C585      1.0  0.15964  0.75157  0.65137  1.0000
  H   H997      1.0  0.14384  0.85494  0.49629  1.0000
  H   H998      1.0  0.05817  0.75364  0.54203  1.0000
  H   H999      1.0  0.15645  0.96332  0.53427  1.0000
  Fe  Fe79      1.0  0.31053  0.93715  0.65066  1.0000
  C   C586      1.0  0.13790  0.67542  0.67998  1.0000
  C   C587      1.0  0.15681  0.67958  0.67016  1.0000
  H   H1000     1.0  0.04602  0.73309  0.55608  1.0000
  C   C588      1.0  0.13516  0.66905  0.70041  1.0000
  C   C589      1.0  0.04715  0.74362  0.54207  1.0000
  N   N46       1.0  0.27466  0.87599  0.66932  1.0000
  C   C590      1.0  0.16990  0.67146  0.70123  1.0000
  H   H1001     1.0  0.18723  0.68116  0.67311  1.0000
  H   H1002     1.0  0.02886  0.67544  0.63179  1.0000
  C   C591      1.0  0.09110  0.71495  0.54718  1.0000
  H   H1003     1.0  0.17816  0.57495  0.70036  1.0000
  H   H1004     1.0  0.04141  0.51716  0.50336  1.0000
  H   H1005     1.0  0.05774  0.60082  0.60701  1.0000
  H   H1006     1.0  0.14104  0.60461  0.69548  1.0000
  H   H1007     1.0  0.00600  0.52422  0.48668  1.0000
  H   H1008     1.0  0.28014  0.84912  0.69077  1.0000
  H   H1009     1.0  0.05730  0.70165  0.55644  1.0000
  H   H1010     1.0  0.06009  0.74404  0.51186  1.0000
  H   H1011     1.0  0.03198  0.75299  0.54235  1.0000
  C   C592      1.0  0.18015  0.58439  0.68553  1.0000
  C   C593      1.0  0.27946  0.86574  0.68925  1.0000
  H   H1012     1.0  0.05067  0.70393  0.50371  1.0000
  C   C594      1.0  0.31432  0.97860  0.70575  1.0000
  H   H1013     1.0  0.12059  0.66575  0.70812  1.0000
  H   H1014     1.0  0.18963  0.95452  0.52747  1.0000
  H   H1015     1.0  0.12524  0.80395  0.65917  1.0000
  H   H1016     1.0  0.13862  0.72009  0.66465  1.0000
  H   H1017     1.0  0.19039  0.55896  0.66947  1.0000
  H   H1018     1.0  0.15523  0.75944  0.68782  1.0000
  H   H1019     1.0  0.15109  0.71499  0.69095  1.0000
  C   C595      1.0  0.00944  0.66097  0.62045  1.0000
  H   H1020     1.0  0.17185  0.72655  0.69353  1.0000
  H   H1021     1.0  0.99902  0.62700  0.59852  1.0000
  H   H1022     1.0  0.10839  0.85959  0.49476  1.0000
  H   H1023     1.0  0.13455  0.83242  0.49426  1.0000
  H   H1024     1.0  0.01730  0.59192  0.49008  1.0000
  H   H1025     1.0  0.09815  0.88424  0.48300  1.0000
  C   C596      1.0  0.14656  0.84185  0.48840  1.0000
  H   H1026     1.0  0.30193  0.85959  0.70861  1.0000
  C   C597      1.0  0.29945  0.86902  0.69430  1.0000
  C   C598      1.0  0.00665  0.58162  0.49814  1.0000
  C   C599      1.0  0.99640  0.63814  0.58575  1.0000
  Fe  Fe80      1.0  0.00724  0.49297  0.52891  1.0000
  H   H1027     1.0  0.16751  0.60502  0.71654  1.0000
  H   H1028     1.0  0.06963  0.73139  0.48395  1.0000
  C   C600      1.0  0.99093  0.62189  0.50732  1.0000
  C   C601      1.0  0.04613  0.49214  0.57042  1.0000
  H   H1029     1.0  0.99320  0.57178  0.52795  1.0000
  H   H1030     1.0  0.99042  0.54751  0.48022  1.0000
  H   H1031     1.0  0.05042  0.48860  0.54055  1.0000
  H   H1032     1.0  0.31822  0.91192  0.72245  1.0000
  H   H1033     1.0  0.04300  0.50881  0.56630  1.0000
  H   H1034     1.0  0.08626  0.86304  0.48389  1.0000
  H   H1035     1.0  0.13171  0.88399  0.48170  1.0000
  H   H1036     1.0  0.99080  0.61868  0.49245  1.0000
  H   H1037     1.0  0.03125  0.48694  0.57418  1.0000
  H   H1038     1.0  0.99393  0.58318  0.49015  1.0000
  C   C602      1.0  0.08662  0.48536  0.52534  1.0000
  H   H1039     1.0  0.23230  0.64158  0.84587  1.0000
  Fe  Fe81      1.0  0.11674  0.53608  0.87913  1.0000
  S   S156      1.0  0.10142  0.52586  0.85820  1.0000
  S   S157      1.0  0.14739  0.54432  0.86645  1.0000
  H   H1040     1.0  0.16767  0.67994  0.82328  1.0000
  Fe  Fe82      1.0  0.29589  0.72176  0.88985  1.0000
  S   S158      1.0  0.28621  0.69213  0.89010  1.0000
  S   S159      1.0  0.28624  0.73871  0.91584  1.0000
  C   C603      1.0  0.01992  0.55410  0.96424  1.0000
  Fe  Fe83      1.0  0.32150  0.72137  0.84913  1.0000
  Fe  Fe84      1.0  0.28273  0.70320  0.85842  1.0000
  S   S160      1.0  0.25521  0.70165  0.84508  1.0000
  H   H1041     1.0  0.19749  0.66669  0.83666  1.0000
  S   S161      1.0  0.28936  0.73425  0.85927  1.0000
  C   C604      1.0  0.16984  0.66348  0.82893  1.0000
  Fe  Fe85      1.0  0.22077  0.63763  0.77464  1.0000
  S   S162      1.0  0.19092  0.65777  0.77282  1.0000
  S   S163      1.0  0.24738  0.64197  0.78784  1.0000
  Fe  Fe86      1.0  0.20800  0.60458  0.75667  1.0000
  S   S164      1.0  0.17733  0.62231  0.75388  1.0000
  S   S165      1.0  0.21869  0.57300  0.74919  1.0000
  Fe  Fe87      1.0  0.19349  0.64897  0.74281  1.0000
  H   H1042     1.0  0.00914  0.51376  0.93420  1.0000
  Fe  Fe88      1.0  0.17769  0.62908  0.78397  1.0000
  S   S166      1.0  0.15072  0.62709  0.80820  1.0000
  S   S167      1.0  0.22448  0.63074  0.74383  1.0000
  S   S168      1.0  0.20732  0.60958  0.78740  1.0000
  C   C605      1.0  0.20085  0.55800  0.74778  1.0000
  H   H1043     1.0  0.17572  0.65563  0.81604  1.0000
  H   H1044     1.0  0.25150  0.71414  0.77249  1.0000
  C   C606      1.0  0.19224  0.52479  0.74811  1.0000
  C   C607      1.0  0.20613  0.53689  0.74983  1.0000
  S   S169      1.0  0.08892  0.55516  0.89300  1.0000
  C   C608      1.0  0.30383  0.70169  0.79332  1.0000
  H   H1045     1.0  0.32185  0.70873  0.92063  1.0000
  C   C609      1.0  0.25300  0.68441  0.82980  1.0000
  C   C610      1.0  0.23554  0.68733  0.82118  1.0000
  C   C611      1.0  0.23344  0.67442  0.80843  1.0000
  C   C612      1.0  0.24886  0.65847  0.80411  1.0000
  C   C613      1.0  0.26629  0.65556  0.81274  1.0000
  C   C614      1.0  0.26832  0.66837  0.82560  1.0000
  H   H1046     1.0  0.22363  0.69977  0.82427  1.0000
  H   H1047     1.0  0.22004  0.67695  0.80174  1.0000
  H   H1048     1.0  0.27829  0.64324  0.80951  1.0000
  H   H1049     1.0  0.28176  0.66581  0.83223  1.0000
  C   C615      1.0  0.27165  0.72296  0.78866  1.0000
  H   H1050     1.0  0.15472  0.65973  0.83576  1.0000
  C   C616      1.0  0.29656  0.74186  0.95102  1.0000
  C   C617      1.0  0.30128  0.73185  0.93454  1.0000
  H   H1051     1.0  0.17752  0.58307  0.74240  1.0000
  C   C618      1.0  0.02853  0.56692  0.92905  1.0000
  H   H1052     1.0  0.28343  0.75348  0.95235  1.0000
  H   H1053     1.0  0.14872  0.66231  0.72678  1.0000
  S   S170      1.0  0.31469  0.69098  0.84660  1.0000
  H   H1054     1.0  0.02606  0.52531  0.88159  1.0000
  S   S171      1.0  0.04854  0.55967  0.85778  1.0000
  S   S172      1.0  0.07036  0.52158  0.94622  1.0000
  C   C619      1.0  0.03002  0.52452  0.81660  1.0000
  H   H1055     1.0  0.06605  0.52101  0.84487  1.0000
  H   H1056     1.0  0.27649  0.69635  0.95634  1.0000
  S   S173      1.0  0.15532  0.51936  0.74124  1.0000
  H   H1057     1.0  0.00357  0.52041  0.89862  1.0000
  Fe  Fe89      1.0  0.07340  0.54247  0.87373  1.0000
  H   H1058     1.0  0.27411  0.67237  0.95139  1.0000
  C   C620      1.0  0.14800  0.56750  0.85064  1.0000
  C   C621      1.0  0.13091  0.58239  0.85010  1.0000
  C   C622      1.0  0.13191  0.60070  0.83711  1.0000
  C   C623      1.0  0.14988  0.60406  0.82444  1.0000
  C   C624      1.0  0.16687  0.58909  0.82503  1.0000
  C   C625      1.0  0.16601  0.57099  0.83823  1.0000
  H   H1059     1.0  0.11696  0.57984  0.85973  1.0000
  H   H1060     1.0  0.11868  0.61221  0.83680  1.0000
  H   H1061     1.0  0.18074  0.59133  0.81542  1.0000
  H   H1062     1.0  0.17928  0.55953  0.83859  1.0000
  H   H1063     1.0  0.16238  0.52043  0.80524  1.0000
  H   H1064     1.0  0.09598  0.49184  0.75431  1.0000
  N   N47       1.0  0.01163  0.56118  0.94524  1.0000
  C   C626      1.0  0.07739  0.53246  0.96419  1.0000
  C   C627      1.0  0.08728  0.54930  0.95937  1.0000
  H   H1065     1.0  0.29634  0.69380  0.80742  1.0000
  H   H1066     1.0  0.31368  0.77040  0.83701  1.0000
  H   H1067     1.0  0.09138  0.55568  0.94412  1.0000
  H   H1068     1.0  0.11191  0.48970  0.83960  1.0000
  N   N48       1.0  0.19172  0.63673  0.85075  1.0000
  C   C628      1.0  0.20428  0.63585  0.86642  1.0000
  C   C629      1.0  0.17331  0.62703  0.85965  1.0000
  C   C630      1.0  0.20324  0.62727  0.83321  1.0000
  C   C631      1.0  0.22323  0.64610  0.85969  1.0000
  C   C632      1.0  0.17696  0.60463  0.86895  1.0000
  C   C633      1.0  0.21851  0.60768  0.83722  1.0000
  H   H1069     1.0  0.20939  0.62022  0.87320  1.0000
  H   H1070     1.0  0.19502  0.64304  0.87895  1.0000
  H   H1071     1.0  0.16371  0.63551  0.87115  1.0000
  H   H1072     1.0  0.16374  0.62762  0.84837  1.0000
  H   H1073     1.0  0.19254  0.62395  0.82461  1.0000
  H   H1074     1.0  0.21198  0.63821  0.82286  1.0000
  H   H1075     1.0  0.16271  0.48889  0.84130  1.0000
  H   H1076     1.0  0.23304  0.64168  0.87117  1.0000
  H   H1077     1.0  0.18514  0.60196  0.88157  1.0000
  H   H1078     1.0  0.18463  0.59485  0.85791  1.0000
  H   H1079     1.0  0.16212  0.59963  0.87475  1.0000
  H   H1080     1.0  0.21656  0.59654  0.82832  1.0000
  H   H1081     1.0  0.21720  0.59989  0.85254  1.0000
  H   H1082     1.0  0.23418  0.61077  0.83204  1.0000
  N   N49       1.0  0.12652  0.55262  0.79773  1.0000
  C   C634      1.0  0.14595  0.56117  0.79383  1.0000
  C   C635      1.0  0.13001  0.53235  0.81055  1.0000
  C   C636      1.0  0.11064  0.56659  0.80904  1.0000
  C   C637      1.0  0.12078  0.55125  0.77836  1.0000
  C   C638      1.0  0.14546  0.58277  0.78225  1.0000
  C   C639      1.0  0.14801  0.51721  0.80237  1.0000
  C   C640      1.0  0.08919  0.56142  0.81374  1.0000
  C   C641      1.0  0.10820  0.53475  0.77818  1.0000
  H   H1083     1.0  0.15120  0.56108  0.80789  1.0000
  H   H1084     1.0  0.15823  0.55163  0.78521  1.0000
  H   H1085     1.0  0.03327  0.57860  0.89769  1.0000
  H   H1086     1.0  0.13281  0.53430  0.82518  1.0000
  H   H1087     1.0  0.11517  0.56755  0.82321  1.0000
  H   H1088     1.0  0.10889  0.58224  0.80089  1.0000
  H   H1089     1.0  0.11251  0.56601  0.77216  1.0000
  H   H1090     1.0  0.13440  0.54825  0.76725  1.0000
  H   H1091     1.0  0.16110  0.58612  0.77853  1.0000
  H   H1092     1.0  0.13959  0.58448  0.76829  1.0000
  H   H1093     1.0  0.13685  0.59435  0.79115  1.0000
  H   H1094     1.0  0.07982  0.57131  0.82410  1.0000
  H   H1095     1.0  0.26551  0.75533  0.80967  1.0000
  H   H1096     1.0  0.11650  0.52481  0.81376  1.0000
  H   H1097     1.0  0.00589  0.54956  0.81336  1.0000
  C   C642      1.0  0.28202  0.75527  0.80603  1.0000
  C   C643      1.0  0.00868  0.50649  0.87136  1.0000
  C   C644      1.0  0.30884  0.73700  0.96572  1.0000
  H   H1098     1.0  0.04102  0.57602  0.96032  1.0000
  Fe  Fe90      1.0  0.31881  0.68245  0.87830  1.0000
  H   H1099     1.0  0.31037  0.79003  0.86724  1.0000
  C   C645      1.0  0.02594  0.56647  0.90770  1.0000
  H   H1100     1.0  0.26353  0.73853  0.78480  1.0000
  H   H1101     1.0  0.00152  0.59159  0.95207  1.0000
  H   H1102     1.0  0.08056  0.51508  0.75900  1.0000
  H   H1103     1.0  0.09420  0.53526  0.78907  1.0000
  H   H1104     1.0  0.31217  0.79327  0.89175  1.0000
  H   H1105     1.0  0.03098  0.52581  0.93016  1.0000
  S   S174      1.0  0.11384  0.50844  0.90205  1.0000
  C   C646      1.0  0.06306  0.49157  0.75974  1.0000
  H   H1106     1.0  0.05001  0.50043  0.76814  1.0000
  H   H1107     1.0  0.29745  0.77608  0.88864  1.0000
  H   H1108     1.0  0.19635  0.50851  0.74993  1.0000
  H   H1109     1.0  0.09907  0.57120  0.97071  1.0000
  H   H1110     1.0  0.04278  0.55646  0.93132  1.0000
  H   H1111     1.0  0.21927  0.66280  0.85786  1.0000
  C   C647      1.0  0.16816  0.55496  0.74118  1.0000
  H   H1112     1.0  0.03202  0.54085  0.96293  1.0000
  H   H1113     1.0  0.28569  0.76480  0.79164  1.0000
  H   H1114     1.0  0.27660  0.71391  0.75912  1.0000
  H   H1115     1.0  0.28613  0.76243  0.81737  1.0000
  H   H1116     1.0  0.14626  0.50171  0.80998  1.0000
  H   H1117     1.0  0.08854  0.54568  0.82096  1.0000
  S   S175      1.0  0.02115  0.50986  0.80307  1.0000
  H   H1118     1.0  0.32280  0.76497  0.92203  1.0000
  H   H1119     1.0  0.26362  0.71714  0.80337  1.0000
  H   H1120     1.0  0.27056  0.69404  0.77948  1.0000
  C   C648      1.0  0.00230  0.54419  0.94155  1.0000
  H   H1121     1.0  0.29172  0.74686  0.76431  1.0000
  H   H1122     1.0  0.01649  0.56868  0.83526  1.0000
  H   H1123     1.0  0.03035  0.49261  0.90177  1.0000
  C   C649      1.0  0.04743  0.51683  0.82499  1.0000
  H   H1124     1.0  0.99551  0.54815  0.92799  1.0000
  H   H1125     1.0  0.17708  0.66667  0.85660  1.0000
  C   C650      1.0  0.04201  0.54619  0.84152  1.0000
  H   H1126     1.0  0.19798  0.49424  0.82332  1.0000
  H   H1127     1.0  0.03149  0.58225  0.92968  1.0000
  H   H1128     1.0  0.05598  0.50229  0.82228  1.0000
  C   C651      1.0  0.02510  0.55418  0.83250  1.0000
  C   C652      1.0  0.05316  0.52746  0.83778  1.0000
  H   H1129     1.0  0.01029  0.56882  0.90498  1.0000
  C   C653      1.0  0.01904  0.54330  0.82018  1.0000
  Fe  Fe91      1.0  0.08479  0.52661  0.91435  1.0000
  C   C654      1.0  0.18455  0.65882  0.84388  1.0000
  C   C655      1.0  0.26770  0.71051  0.77396  1.0000
  C   C656      1.0  0.18171  0.56692  0.74376  1.0000
  H   H1130     1.0  0.03422  0.55221  0.90273  1.0000
  H   H1131     1.0  0.11711  0.51938  0.78034  1.0000
  H   H1132     1.0  0.01669  0.51123  0.85636  1.0000
  H   H1133     1.0  0.04639  0.49170  0.87873  1.0000
  H   H1134     1.0  0.15361  0.56210  0.73745  1.0000
  H   H1135     1.0  0.08200  0.56470  0.80038  1.0000
  H   H1136     1.0  0.08373  0.49520  0.77909  1.0000
  H   H1137     1.0  0.14926  0.51737  0.78636  1.0000
  H   H1138     1.0  0.10382  0.53690  0.76341  1.0000
  Fe  Fe92      1.0  0.16178  0.48519  0.74869  1.0000
  C   C657      1.0  0.01018  0.52316  0.88293  1.0000
  C   C658      1.0  0.17325  0.53383  0.74362  1.0000
  C   C659      1.0  0.08204  0.49845  0.76336  1.0000
  H   H1139     1.0  0.30707  0.72388  0.75890  1.0000
  S   S176      1.0  0.06679  0.51585  0.89612  1.0000
  H   H1140     1.0  0.22097  0.52987  0.75286  1.0000
  C   C660      1.0  0.29359  0.73350  0.80675  1.0000
  H   H1141     1.0  0.28695  0.72456  0.82065  1.0000
  H   H1142     1.0  0.30262  0.69311  0.78173  1.0000
  C   C661      1.0  0.32169  0.74371  0.77026  1.0000
  N   N50       1.0  0.29347  0.72329  0.78949  1.0000
  Fe  Fe93      1.0  0.09604  0.50004  0.88213  1.0000
  C   C662      1.0  0.30291  0.73418  0.77013  1.0000
  C   C663      1.0  0.31828  0.71691  0.93292  1.0000
  C   C664      1.0  0.31167  0.78215  0.88237  1.0000
  H   H1143     1.0  0.01972  0.51608  0.95477  1.0000
  H   H1144     1.0  0.02097  0.48968  0.76862  1.0000
  H   H1145     1.0  0.30898  0.73396  0.80898  1.0000
  H   H1146     1.0  0.99272  0.50794  0.86950  1.0000
  H   H1147     1.0  0.31479  0.80729  0.83121  1.0000
  H   H1148     1.0  0.06165  0.49700  0.74401  1.0000
  C   C665      1.0  0.01656  0.52392  0.94008  1.0000
  H   H1149     1.0  0.31750  0.76023  0.77046  1.0000
  C   C666      1.0  0.99534  0.57908  0.94843  1.0000
  C   C667      1.0  0.28124  0.67987  0.96039  1.0000
  H   H1150     1.0  0.99425  0.59628  0.91875  1.0000
  H   H1151     1.0  0.00244  0.48978  0.84249  1.0000
  C   C668      1.0  0.02931  0.56954  0.97164  1.0000
  H   H1152     1.0  0.29774  0.67602  0.95581  1.0000
  N   N51       1.0  0.01686  0.48484  0.87912  1.0000
  H   H1153     1.0  0.00201  0.53776  0.87636  1.0000
  C   C669      1.0  0.09158  0.55808  0.97443  1.0000
  H   H1154     1.0  0.18421  0.48261  0.81067  1.0000
  C   C670      1.0  0.03460  0.48413  0.88916  1.0000
  Fe  Fe94      1.0  0.53767  0.13440  0.99361  1.0000
  S   S177      1.0  0.52061  0.10914  0.00753  1.0000
  Fe  Fe95      1.0  0.53300  0.15008  0.03248  1.0000
  S   S178      1.0  0.51562  0.12564  0.04896  1.0000
  S   S179      1.0  0.53497  0.17219  0.05209  1.0000
  Fe  Fe96      1.0  0.53850  0.10508  0.03166  1.0000
  S   S180      1.0  0.55249  0.07401  0.04404  1.0000
  Fe  Fe97      1.0  0.49943  0.13222  0.02317  1.0000
  S   S181      1.0  0.46659  0.13162  0.02487  1.0000
  S   S182      1.0  0.55742  0.12882  0.01696  1.0000
  S   S183      1.0  0.51496  0.15819  0.00765  1.0000
  H   H1155     1.0  0.48535  0.05412  0.05969  1.0000
  C   C671      1.0  0.52969  0.02186  0.05411  1.0000
  H   H1156     1.0  0.50890  0.07916  0.05166  1.0000
  S   S184      1.0  0.37807  0.37383  0.02244  1.0000
  Fe  Fe98      1.0  0.61787  0.19526  0.09724  1.0000
  S   S185      1.0  0.60003  0.18115  0.12481  1.0000
  S   S186      1.0  0.61940  0.18363  0.06877  1.0000
  Fe  Fe99      1.0  0.62971  0.22570  0.11753  1.0000
  S   S187      1.0  0.61207  0.21424  0.14685  1.0000
  C   C672      1.0  0.61195  0.16072  0.22146  1.0000
  Fe  Fe100     1.0  0.62551  0.18330  0.13977  1.0000
  S   S188      1.0  0.63311  0.15622  0.16293  1.0000
  Fe  Fe101     1.0  0.58799  0.21292  0.12969  1.0000
  S   S189      1.0  0.55496  0.22347  0.14033  1.0000
  S   S190      1.0  0.64482  0.19458  0.11154  1.0000
  S   S191      1.0  0.60425  0.22721  0.10103  1.0000
  Fe  Fe102     1.0  0.42327  0.17408  0.11975  1.0000
  S   S192      1.0  0.44733  0.19266  0.10609  1.0000
  S   S193      1.0  0.41346  0.15237  0.10457  1.0000
  Fe  Fe103     1.0  0.41585  0.19053  0.15798  1.0000
  S   S194      1.0  0.43975  0.21056  0.14753  1.0000
  S   S195      1.0  0.39724  0.18913  0.18832  1.0000
  Fe  Fe104     1.0  0.42669  0.21786  0.11941  1.0000
  S   S196      1.0  0.42556  0.24834  0.09987  1.0000
  Fe  Fe105     1.0  0.45830  0.18367  0.13502  1.0000
  S   S197      1.0  0.49107  0.16991  0.13415  1.0000
  S   S198      1.0  0.40143  0.19993  0.13087  1.0000
  S   S199      1.0  0.43558  0.16307  0.14779  1.0000
  C   C673      1.0  0.38158  0.17043  0.19489  1.0000
  C   C674      1.0  0.38395  0.15476  0.18390  1.0000
  H   H1157     1.0  0.64063  0.34842  0.99840  1.0000
  C   C675      1.0  0.36741  0.17049  0.21222  1.0000
  H   H1158     1.0  0.39467  0.15470  0.17039  1.0000
  H   H1159     1.0  0.44679  0.09781  0.12651  1.0000
  H   H1160     1.0  0.57170  0.05607  0.00452  1.0000
  C   C676      1.0  0.53749  0.20788  0.13944  1.0000
  C   C677      1.0  0.51716  0.21324  0.14743  1.0000
  C   C678      1.0  0.50267  0.20183  0.14577  1.0000
  C   C679      1.0  0.50856  0.18475  0.13646  1.0000
  C   C680      1.0  0.52889  0.17918  0.12879  1.0000
  C   C681      1.0  0.54330  0.19076  0.13015  1.0000
  H   H1161     1.0  0.51258  0.22643  0.15470  1.0000
  H   H1162     1.0  0.48701  0.20614  0.15187  1.0000
  H   H1163     1.0  0.53340  0.16613  0.12136  1.0000
  H   H1164     1.0  0.55876  0.18670  0.12364  1.0000
  C   C682      1.0  0.36988  0.27308  0.07038  1.0000
  C   C683      1.0  0.37043  0.25521  0.08403  1.0000
  C   C684      1.0  0.38723  0.24780  0.09346  1.0000
  C   C685      1.0  0.40370  0.25812  0.08923  1.0000
  C   C686      1.0  0.40304  0.27618  0.07580  1.0000
  C   C687      1.0  0.38614  0.28369  0.06639  1.0000
  H   H1165     1.0  0.38749  0.23397  0.10382  1.0000
  H   H1166     1.0  0.41569  0.28431  0.07251  1.0000
  H   H1167     1.0  0.38584  0.29749  0.05588  1.0000
  H   H1168     1.0  0.63758  0.13632  0.08632  1.0000
  H   H1169     1.0  0.64969  0.24829  0.07548  1.0000
  H   H1170     1.0  0.61420  0.32018  0.98929  1.0000
  H   H1171     1.0  0.52096  0.24033  0.04863  1.0000
  H   H1172     1.0  0.43320  0.34671  0.99852  1.0000
  C   C688      1.0  0.39034  0.40522  0.99538  1.0000
  H   H1173     1.0  0.62847  0.46134  0.02320  1.0000
  H   H1174     1.0  0.58782  0.14083  0.13883  1.0000
  H   H1175     1.0  0.41460  0.36688  0.99062  1.0000
  H   H1176     1.0  0.57984  0.07800  0.12973  1.0000
  H   H1177     1.0  0.63115  0.11171  0.08896  1.0000
  H   H1178     1.0  0.60301  0.34071  0.06909  1.0000
  H   H1179     1.0  0.51469  0.41500  0.98517  1.0000
  C   C689      1.0  0.37396  0.39590  0.00536  1.0000
  C   C690      1.0  0.45679  0.46293  0.01508  1.0000
  H   H1180     1.0  0.43762  0.11891  0.13898  1.0000
  H   H1181     1.0  0.45833  0.13209  0.11010  1.0000
  C   C691      1.0  0.62759  0.40302  0.06700  1.0000
  H   H1182     1.0  0.58884  0.01795  0.98914  1.0000
  H   H1183     1.0  0.48214  0.08084  0.12803  1.0000
  C   C692      1.0  0.45232  0.13713  0.04718  1.0000
  C   C693      1.0  0.43418  0.12969  0.05408  1.0000
  C   C694      1.0  0.42249  0.13421  0.07189  1.0000
  C   C695      1.0  0.42880  0.14639  0.08272  1.0000
  C   C696      1.0  0.44694  0.15386  0.07574  1.0000
  C   C697      1.0  0.45868  0.14930  0.05794  1.0000
  H   H1184     1.0  0.42922  0.12033  0.04568  1.0000
  H   H1185     1.0  0.40847  0.12841  0.07719  1.0000
  H   H1186     1.0  0.45204  0.16305  0.08401  1.0000
  H   H1187     1.0  0.47261  0.15525  0.05243  1.0000
  C   C698      1.0  0.55860  0.17572  0.05598  1.0000
  C   C699      1.0  0.55963  0.18369  0.07272  1.0000
  C   C700      1.0  0.57816  0.18669  0.07640  1.0000
  C   C701      1.0  0.59587  0.18156  0.06343  1.0000
  C   C702      1.0  0.59488  0.17371  0.04658  1.0000
  C   C703      1.0  0.57627  0.17072  0.04288  1.0000
  H   H1188     1.0  0.54611  0.18722  0.08309  1.0000
  H   H1189     1.0  0.57876  0.19284  0.08935  1.0000
  H   H1190     1.0  0.60856  0.16969  0.03652  1.0000
  H   H1191     1.0  0.57561  0.16460  0.02990  1.0000
  C   C704      1.0  0.53557  0.05661  0.04938  1.0000
  C   C705      1.0  0.54301  0.03594  0.05024  1.0000
  C   C706      1.0  0.50144  0.04905  0.05714  1.0000
  C   C707      1.0  0.51475  0.06320  0.05259  1.0000
  H   H1192     1.0  0.55909  0.03080  0.04769  1.0000
  N   N52       1.0  0.62751  0.33400  0.08607  1.0000
  H   H1193     1.0  0.42645  0.46579  0.98848  1.0000
  C   C708      1.0  0.61260  0.34011  0.10361  1.0000
  C   C709      1.0  0.63134  0.31132  0.08807  1.0000
  C   C710      1.0  0.60771  0.18006  0.20646  1.0000
  H   H1194     1.0  0.64598  0.34091  0.04500  1.0000
  H   H1195     1.0  0.62163  0.18330  0.19616  1.0000
  C   C711      1.0  0.64734  0.34109  0.08470  1.0000
  H   H1196     1.0  0.61619  0.33050  0.11755  1.0000
  S   S200      1.0  0.58030  0.40693  0.03940  1.0000
  H   H1197     1.0  0.42192  0.12179  0.22185  1.0000
  S   S201      1.0  0.52352  0.99054  0.01675  1.0000
  H   H1198     1.0  0.61857  0.38908  0.01870  1.0000
  H   H1199     1.0  0.58393  0.08619  0.98663  1.0000
  H   H1200     1.0  0.46089  0.46317  0.98387  1.0000
  C   C712      1.0  0.61024  0.36242  0.10627  1.0000
  H   H1201     1.0  0.62440  0.36642  0.10872  1.0000
  H   H1202     1.0  0.59997  0.47119  0.99810  1.0000
  S   S202      1.0  0.55786  0.40627  0.99233  1.0000
  S   S203      1.0  0.33575  0.35975  0.00009  1.0000
  S   S204      1.0  0.34746  0.11705  0.21805  1.0000
  H   H1203     1.0  0.50467  0.99095  0.11042  1.0000
  H   H1204     1.0  0.50261  0.06258  0.00466  1.0000
  H   H1205     1.0  0.41036  0.33502  0.98095  1.0000
  C   C713      1.0  0.57159  0.08161  0.98115  1.0000
  H   H1206     1.0  0.62187  0.13211  0.07062  1.0000
  H   H1207     1.0  0.34193  0.39680  0.00875  1.0000
  H   H1208     1.0  0.40514  0.39981  0.99930  1.0000
  H   H1209     1.0  0.64964  0.47421  0.98543  1.0000
  H   H1210     1.0  0.55753  0.09114  0.98680  1.0000
  H   H1211     1.0  0.60108  0.30396  0.10107  1.0000
  C   C714      1.0  0.35475  0.40344  0.00059  1.0000
  H   H1212     1.0  0.64088  0.42226  0.00498  1.0000
  C   C715      1.0  0.62523  0.12804  0.08585  1.0000
  H   H1213     1.0  0.63061  0.44602  0.99302  1.0000
  H   H1214     1.0  0.32963  0.03150  0.21846  1.0000
  C   C716      1.0  0.48846  0.22133  0.09174  1.0000
  C   C717      1.0  0.49832  0.20252  0.08199  1.0000
  H   H1215     1.0  0.48451  0.21509  0.10761  1.0000
  H   H1216     1.0  0.47377  0.22728  0.08655  1.0000
  H   H1217     1.0  0.48671  0.19333  0.08170  1.0000
  H   H1218     1.0  0.50937  0.19268  0.09072  1.0000
  H   H1219     1.0  0.50597  0.20607  0.06672  1.0000
  C   C718      1.0  0.50156  0.12353  0.10516  1.0000
  N   N53       1.0  0.41952  0.20586  0.04379  1.0000
  C   C719      1.0  0.41777  0.18656  0.03711  1.0000
  C   C720      1.0  0.40871  0.20528  0.06475  1.0000
  C   C721      1.0  0.44158  0.20600  0.04346  1.0000
  C   C722      1.0  0.41081  0.22355  0.02979  1.0000
  C   C723      1.0  0.43048  0.18250  0.01712  1.0000
  C   C724      1.0  0.38687  0.20103  0.06843  1.0000
  C   C725      1.0  0.44689  0.22378  0.05102  1.0000
  C   C726      1.0  0.40144  0.24320  0.03817  1.0000
  H   H1220     1.0  0.42190  0.17329  0.04819  1.0000
  H   H1221     1.0  0.40190  0.18616  0.03589  1.0000
  H   H1222     1.0  0.40828  0.21953  0.07030  1.0000
  H   H1223     1.0  0.41704  0.19343  0.07480  1.0000
  H   H1224     1.0  0.44827  0.19190  0.05226  1.0000
  H   H1225     1.0  0.45019  0.20622  0.02828  1.0000
  H   H1226     1.0  0.42244  0.22750  0.01687  1.0000
  H   H1227     1.0  0.39866  0.21963  0.02339  1.0000
  H   H1228     1.0  0.64945  0.12488  0.19148  1.0000
  H   H1229     1.0  0.42840  0.19566  0.00535  1.0000
  H   H1230     1.0  0.44671  0.17790  0.01820  1.0000
  H   H1231     1.0  0.37817  0.20972  0.05697  1.0000
  H   H1232     1.0  0.38667  0.18464  0.06929  1.0000
  H   H1233     1.0  0.37907  0.20524  0.08287  1.0000
  H   H1234     1.0  0.44415  0.23808  0.04075  1.0000
  H   H1235     1.0  0.46326  0.22083  0.05166  1.0000
  H   H1236     1.0  0.43910  0.22553  0.06611  1.0000
  H   H1237     1.0  0.38693  0.24153  0.04799  1.0000
  H   H1238     1.0  0.39796  0.25551  0.02592  1.0000
  H   H1239     1.0  0.41142  0.24838  0.04612  1.0000
  S   S205      1.0  0.33628  0.34019  0.04707  1.0000
  H   H1240     1.0  0.64597  0.35778  0.08078  1.0000
  C   C727      1.0  0.60481  0.40175  0.04493  1.0000
  H   H1241     1.0  0.49918  0.23908  0.12017  1.0000
  C   C728      1.0  0.48205  0.10539  0.09077  1.0000
  C   C729      1.0  0.49546  0.14514  0.09441  1.0000
  C   C730      1.0  0.46688  0.09109  0.09185  1.0000
  H   H1242     1.0  0.51523  0.11689  0.09566  1.0000
  H   H1243     1.0  0.47634  0.11946  0.08152  1.0000
  H   H1244     1.0  0.49633  0.09964  0.08153  1.0000
  H   H1245     1.0  0.48240  0.15378  0.10285  1.0000
  H   H1246     1.0  0.50825  0.15360  0.09235  1.0000
  H   H1247     1.0  0.49212  0.14527  0.07963  1.0000
  H   H1248     1.0  0.51042  0.07244  0.10057  1.0000
  H   H1249     1.0  0.45125  0.09952  0.09284  1.0000
  H   H1250     1.0  0.46782  0.07819  0.10394  1.0000
  H   H1251     1.0  0.47043  0.08411  0.07823  1.0000
  C   C731      1.0  0.35628  0.15455  0.21898  1.0000
  Fe  Fe106     1.0  0.55081  0.43857  0.97837  1.0000
  C   C732      1.0  0.60693  0.13473  0.10122  1.0000
  H   H1252     1.0  0.60301  0.15140  0.09730  1.0000
  S   S206      1.0  0.56899  0.45010  0.99589  1.0000
  H   H1253     1.0  0.53463  0.24968  0.10300  1.0000
  H   H1254     1.0  0.38329  0.35973  0.98312  1.0000
  H   H1255     1.0  0.53553  0.00592  0.05457  1.0000
  H   H1256     1.0  0.57500  0.11904  0.14542  1.0000
  S   S207      1.0  0.49213  0.01080  0.06323  1.0000
  H   H1257     1.0  0.46493  0.44714  0.01686  1.0000
  H   H1258     1.0  0.63559  0.18938  0.22191  1.0000
  H   H1259     1.0  0.37513  0.12642  0.18244  1.0000
  H   H1260     1.0  0.44049  0.46199  0.01848  1.0000
  H   H1261     1.0  0.59370  0.11481  0.07461  1.0000
  N   N54       1.0  0.58861  0.12471  0.10312  1.0000
  H   H1262     1.0  0.50467  0.26670  0.07080  1.0000
  H   H1263     1.0  0.53653  0.25669  0.07640  1.0000
  H   H1264     1.0  0.46864  0.26400  0.12522  1.0000
  Fe  Fe107     1.0  0.57867  0.41741  0.00739  1.0000
  H   H1265     1.0  0.32801  0.33397  0.09670  1.0000
  C   C733      1.0  0.38783  0.42099  0.97967  1.0000
  C   C734      1.0  0.43314  0.15658  0.22183  1.0000
  H   H1266     1.0  0.63722  0.30453  0.10197  1.0000
  H   H1267     1.0  0.65311  0.38331  0.02656  1.0000
  H   H1268     1.0  0.64991  0.16738  0.21424  1.0000
  S   S208      1.0  0.49249  0.98288  0.97897  1.0000
  C   C735      1.0  0.50888  0.02838  0.05780  1.0000
  H   H1269     1.0  0.59555  0.41312  0.07244  1.0000
  H   H1270     1.0  0.64161  0.43790  0.03498  1.0000
  C   C736      1.0  0.60809  0.40645  0.06248  1.0000
  C   C737      1.0  0.49738  0.25336  0.07123  1.0000
  H   H1271     1.0  0.55704  0.13120  0.11663  1.0000
  H   H1272     1.0  0.52898  0.22151  0.07573  1.0000
  H   H1273     1.0  0.49594  0.23456  0.04942  1.0000
  C   C738      1.0  0.53727  0.24397  0.08875  1.0000
  H   H1274     1.0  0.56101  0.12495  0.06540  1.0000
  H   H1275     1.0  0.43015  0.15281  0.20804  1.0000
  H   H1276     1.0  0.59728  0.33745  0.10276  1.0000
  C   C739      1.0  0.35936  0.13838  0.20855  1.0000
  H   H1277     1.0  0.35797  0.24686  0.08707  1.0000
  S   S209      1.0  0.37065  0.32142  0.01267  1.0000
  H   H1278     1.0  0.56186  0.09863  0.12231  1.0000
  C   C740      1.0  0.62107  0.39312  0.03209  1.0000
  H   H1279     1.0  0.36527  0.18274  0.22060  1.0000
  Fe  Fe108     1.0  0.35785  0.35199  0.02110  1.0000
  C   C741      1.0  0.37285  0.13876  0.19073  1.0000
  N   N55       1.0  0.48563  0.10996  0.10988  1.0000
  H   H1280     1.0  0.53015  0.07656  0.98411  1.0000
  C   C742      1.0  0.63058  0.33706  0.04829  1.0000
  C   C743      1.0  0.42181  0.48194  0.98273  1.0000
  H   H1281     1.0  0.55656  0.11108  0.08952  1.0000
  H   H1282     1.0  0.52463  0.21718  0.10164  1.0000
  N   N56       1.0  0.50088  0.23805  0.08924  1.0000
  C   C744      1.0  0.52286  0.22918  0.08873  1.0000
  C   C745      1.0  0.50458  0.24605  0.05121  1.0000
  C   C746      1.0  0.58357  0.12638  0.08277  1.0000
  H   H1283     1.0  0.48104  0.25931  0.07173  1.0000
  H   H1284     1.0  0.46495  0.26667  0.10037  1.0000
  H   H1285     1.0  0.55109  0.13848  0.08535  1.0000
  H   H1286     1.0  0.58635  0.14117  0.07399  1.0000
  H   H1287     1.0  0.63004  0.40697  0.08049  1.0000
  H   H1288     1.0  0.61744  0.36024  0.06575  1.0000
  H   H1289     1.0  0.60585  0.09485  0.10181  1.0000
  S   S210      1.0  0.34907  0.28096  0.05796  1.0000
  H   H1290     1.0  0.50178  0.25904  0.03937  1.0000
  C   C747      1.0  0.57676  0.09012  0.11720  1.0000
  H   H1291     1.0  0.64336  0.30618  0.07614  1.0000
  H   H1292     1.0  0.32726  0.09495  0.19213  1.0000
  H   H1293     1.0  0.60063  0.19349  0.21338  1.0000
  Fe  Fe109     1.0  0.34677  0.31024  0.03666  1.0000
  H   H1294     1.0  0.33209  0.26718  0.11260  1.0000
  C   C748      1.0  0.51272  0.07807  0.11370  1.0000
  H   H1295     1.0  0.52589  0.08611  0.10993  1.0000
  H   H1296     1.0  0.39652  0.10101  0.22236  1.0000
  C   C749      1.0  0.57167  0.13614  0.11592  1.0000
  H   H1297     1.0  0.46100  0.47042  0.02606  1.0000
  H   H1298     1.0  0.57586  0.08293  0.10450  1.0000
  C   C750      1.0  0.65427  0.15384  0.17456  1.0000
  H   H1299     1.0  0.43726  0.17199  0.21796  1.0000
  C   C751      1.0  0.46676  0.12117  0.12065  1.0000
  H   H1300     1.0  0.50655  0.12530  0.11888  1.0000
  H   H1301     1.0  0.56928  0.15246  0.10943  1.0000
  C   C752      1.0  0.49424  0.24887  0.10690  1.0000
  C   C753      1.0  0.47137  0.25594  0.11235  1.0000
  H   H1302     1.0  0.63247  0.31260  0.00594  1.0000
  H   H1303     1.0  0.60475  0.37281  0.09361  1.0000
  C   C754      1.0  0.57131  0.05882  0.98838  1.0000
  C   C755      1.0  0.63195  0.44475  0.02371  1.0000
  C   C756      1.0  0.63407  0.34263  0.98762  1.0000
  C   C757      1.0  0.49348  0.09109  0.12293  1.0000
  C   C758      1.0  0.45150  0.10852  0.13403  1.0000
  Fe  Fe110     1.0  0.50394  0.98519  0.04603  1.0000
  C   C759      1.0  0.64062  0.38950  0.03672  1.0000
  H   H1304     1.0  0.58597  0.05106  0.98140  1.0000
  C   C760      1.0  0.53461  0.06216  0.99381  1.0000
  C   C761      1.0  0.61872  0.34353  0.06777  1.0000
  C   C762      1.0  0.59388  0.10291  0.11202  1.0000
  C   C763      1.0  0.56176  0.12499  0.08109  1.0000
  H   H1305     1.0  0.60097  0.10143  0.12534  1.0000
  H   H1306     1.0  0.50144  0.26259  0.10486  1.0000
  H   H1307     1.0  0.46286  0.24309  0.11688  1.0000
  H   H1308     1.0  0.55298  0.23569  0.08701  1.0000
  H   H1309     1.0  0.35199  0.06992  0.20514  1.0000
  H   H1310     1.0  0.61103  0.33146  0.01078  1.0000
  H   H1311     1.0  0.51763  0.03931  0.01260  1.0000
  C   C764      1.0  0.57502  0.01467  0.98522  1.0000
  C   C765      1.0  0.62251  0.32551  0.99887  1.0000
  H   H1312     1.0  0.32958  0.30084  0.09188  1.0000
  C   C766      1.0  0.61296  0.30127  0.08824  1.0000
  H   H1313     1.0  0.47070  0.13044  0.13045  1.0000
  H   H1314     1.0  0.51668  0.06451  0.12459  1.0000
  H   H1315     1.0  0.42579  0.16954  0.01264  1.0000
  C   C767      1.0  0.64390  0.39452  0.05417  1.0000
  H   H1316     1.0  0.53682  0.06652  0.00768  1.0000
  C   C768      1.0  0.64124  0.43868  0.00336  1.0000
  H   H1317     1.0  0.45742  0.10034  0.14747  1.0000
  H   H1318     1.0  0.49148  0.39546  0.97648  1.0000
  H   H1319     1.0  0.61730  0.43924  0.02865  1.0000
  H   H1320     1.0  0.47982  0.47243  0.99179  1.0000
  C   C769      1.0  0.46322  0.47316  0.99382  1.0000
  C   C770      1.0  0.51591  0.05147  0.99981  1.0000
  H   H1321     1.0  0.49659  0.09508  0.13664  1.0000
  Fe  Fe111     1.0  0.34673  0.32831  0.99344  1.0000
  H   H1322     1.0  0.61262  0.13224  0.11543  1.0000
  H   H1323     1.0  0.61944  0.14887  0.21224  1.0000
  H   H1324     1.0  0.56116  0.14403  0.14521  1.0000
  C   C771      1.0  0.55596  0.02855  0.99343  1.0000
  H   H1325     1.0  0.59722  0.17760  0.19720  1.0000
  H   H1326     1.0  0.61785  0.28464  0.08962  1.0000
  H   H1327     1.0  0.59880  0.36509  0.11947  1.0000
  H   H1328     1.0  0.54313  0.02162  0.99196  1.0000
  H   H1329     1.0  0.62272  0.34554  0.03611  1.0000
  C   C772      1.0  0.57437  0.13474  0.13749  1.0000
  H   H1330     1.0  0.33097  0.05731  0.19014  1.0000
  H   H1331     1.0  0.39774  0.13609  0.22015  1.0000
  C   C773      1.0  0.42804  0.35634  0.98526  1.0000
  S   S211      1.0  0.60563  0.41322  0.98388  1.0000
  H   H1332     1.0  0.60661  0.30610  0.07443  1.0000
  C   C774      1.0  0.35213  0.41958  0.98517  1.0000
  H   H1333     1.0  0.57378  0.99879  0.99208  1.0000
  H   H1334     1.0  0.44028  0.36494  0.97762  1.0000
  N   N57       1.0  0.55391  0.05051  0.98425  1.0000
  H   H1335     1.0  0.55551  0.02709  0.00960  1.0000
  H   H1336     1.0  0.33734  0.42513  0.98126  1.0000
  H   H1337     1.0  0.51238  0.04526  0.98766  1.0000
  H   H1338     1.0  0.63132  0.32074  0.04801  1.0000
  S   S212      1.0  0.64646  0.25169  0.11687  1.0000
  H   H1339     1.0  0.64752  0.33283  0.11702  1.0000
  H   H1340     1.0  0.32929  0.42525  0.03218  1.0000
  H   H1341     1.0  0.35241  0.04754  0.22369  1.0000
  C   C775      1.0  0.34716  0.06401  0.22083  1.0000
  H   H1342     1.0  0.62240  0.35527  0.98263  1.0000
  S   S213      1.0  0.32362  0.31478  0.01683  1.0000
  N   N58       1.0  0.62454  0.16151  0.23670  1.0000
  S   S214      1.0  0.43853  0.01776  0.38240  1.0000
  C   C776      1.0  0.56691  0.03932  0.45064  1.0000
  H   H1343     1.0  0.63697  0.99818  0.29271  1.0000
  S   S215      1.0  0.43553  0.01194  0.33757  1.0000
  H   H1344     1.0  0.64721  0.13253  0.38928  1.0000
  Fe  Fe112     1.0  0.45976  0.01357  0.35435  1.0000
  S   S216      1.0  0.48436  0.03246  0.34322  1.0000
  Fe  Fe113     1.0  0.41490  0.01283  0.36645  1.0000
  S   S217      1.0  0.38293  0.02897  0.36846  1.0000
  H   H1345     1.0  0.39796  0.14663  0.28564  1.0000
  C   C777      1.0  0.42401  0.12493  0.25893  1.0000
  Fe  Fe114     1.0  0.57638  0.03003  0.38545  1.0000
  S   S218      1.0  0.60520  0.01732  0.39703  1.0000
  S   S219      1.0  0.54817  0.01775  0.40047  1.0000
  Fe  Fe115     1.0  0.59617  0.05854  0.35238  1.0000
  S   S220      1.0  0.62660  0.04853  0.36107  1.0000
  S   S221      1.0  0.59019  0.08193  0.32620  1.0000
  Fe  Fe116     1.0  0.61907  0.01729  0.36542  1.0000
  C   C778      1.0  0.33720  0.03032  0.26682  1.0000
  Fe  Fe117     1.0  0.61016  0.04950  0.39185  1.0000
  S   S222      1.0  0.62501  0.05994  0.41314  1.0000
  S   S223      1.0  0.58978  0.02717  0.35412  1.0000
  S   S224      1.0  0.58010  0.06244  0.38291  1.0000
  C   C779      1.0  0.65554  0.09864  0.37361  1.0000
  H   H1346     1.0  0.35921  0.01397  0.24652  1.0000
  C   C780      1.0  0.60784  0.09842  0.31750  1.0000
  C   C781      1.0  0.58906  0.01337  0.46853  1.0000
  C   C782      1.0  0.61463  0.13240  0.30444  1.0000
  C   C783      1.0  0.60094  0.11885  0.31143  1.0000
  C   C784      1.0  0.48419  0.01202  0.45255  1.0000
  H   H1347     1.0  0.58493  0.12427  0.31252  1.0000
  H   H1348     1.0  0.34232  0.08349  0.33122  1.0000
  H   H1349     1.0  0.63397  0.07577  0.32091  1.0000
  C   C785      1.0  0.41781  0.10736  0.27507  1.0000
  C   C786      1.0  0.41875  0.99226  0.43335  1.0000
  C   C787      1.0  0.60929  0.06947  0.43334  1.0000
  C   C788      1.0  0.59023  0.08078  0.43164  1.0000
  C   C789      1.0  0.57869  0.08959  0.44766  1.0000
  C   C790      1.0  0.39772  0.10618  0.23614  1.0000
  C   C791      1.0  0.61651  0.06655  0.45117  1.0000
  H   H1350     1.0  0.58464  0.08322  0.41787  1.0000
  H   H1351     1.0  0.56411  0.09863  0.44628  1.0000
  S   S225      1.0  0.36949  0.10897  0.30739  1.0000
  C   C792      1.0  0.37961  0.05157  0.35196  1.0000
  C   C793      1.0  0.36017  0.06008  0.34839  1.0000
  C   C794      1.0  0.35719  0.07749  0.33445  1.0000
  C   C795      1.0  0.37345  0.08701  0.32468  1.0000
  C   C796      1.0  0.39286  0.07890  0.32871  1.0000
  C   C797      1.0  0.39599  0.06097  0.34211  1.0000
  H   H1352     1.0  0.34747  0.05286  0.35600  1.0000
  C   C798      1.0  0.64361  0.00954  0.28100  1.0000
  H   H1353     1.0  0.40552  0.08624  0.32124  1.0000
  H   H1354     1.0  0.41103  0.05454  0.34496  1.0000
  C   C799      1.0  0.50133  0.02907  0.35981  1.0000
  C   C800      1.0  0.49951  0.01491  0.37702  1.0000
  C   C801      1.0  0.51408  0.01131  0.38937  1.0000
  C   C802      1.0  0.53025  0.02212  0.38475  1.0000
  C   C803      1.0  0.53190  0.03649  0.36771  1.0000
  C   C804      1.0  0.51744  0.03997  0.35528  1.0000
  C   C805      1.0  0.40193  0.00674  0.30127  1.0000
  H   H1355     1.0  0.33276  0.11859  0.34103  1.0000
  H   H1356     1.0  0.54425  0.04503  0.36415  1.0000
  H   H1357     1.0  0.51884  0.05099  0.34203  1.0000
  C   C806      1.0  0.40626  0.00228  0.44805  1.0000
  N   N59       1.0  0.36722  0.99813  0.32057  1.0000
  H   H1358     1.0  0.61230  0.04259  0.27265  1.0000
  H   H1359     1.0  0.39187  0.01100  0.44531  1.0000
  C   C807      1.0  0.62857  0.09148  0.31610  1.0000
  C   C808      1.0  0.35483  0.01821  0.32428  1.0000
  H   H1360     1.0  0.64578  0.13433  0.23172  1.0000
  Fe  Fe118     1.0  0.33493  0.11294  0.25053  1.0000
  C   C809      1.0  0.48242  0.06108  0.39885  1.0000
  H   H1361     1.0  0.62061  0.00503  0.45633  1.0000
  C   C810      1.0  0.61618  0.03826  0.28773  1.0000
  C   C811      1.0  0.40678  0.12585  0.23060  1.0000
  H   H1362     1.0  0.37484  0.04049  0.31091  1.0000
  C   C812      1.0  0.56357  0.00316  0.45366  1.0000
  H   H1363     1.0  0.40174  0.16698  0.23101  1.0000
  H   H1364     1.0  0.58989  0.11157  0.38484  1.0000
  H   H1365     1.0  0.53926  0.99587  0.44174  1.0000
  H   H1366     1.0  0.42775  0.06535  0.44600  1.0000
  H   H1367     1.0  0.47108  0.00470  0.46011  1.0000
  H   H1368     1.0  0.49096  0.07762  0.43916  1.0000
  Fe  Fe119     1.0  0.34408  0.10838  0.29164  1.0000
  C   C813      1.0  0.38647  0.15315  0.27610  1.0000
  H   H1369     1.0  0.41335  0.04544  0.44978  1.0000
  H   H1370     1.0  0.42220  0.05598  0.42528  1.0000
  C   C814      1.0  0.61983  0.12439  0.25083  1.0000
  H   H1371     1.0  0.64935  0.17954  0.25472  1.0000
  N   N60       1.0  0.46527  0.04235  0.43172  1.0000
  C   C815      1.0  0.44532  0.03544  0.44059  1.0000
  H   H1372     1.0  0.49668  0.05037  0.39865  1.0000
  H   H1373     1.0  0.48018  0.06569  0.38327  1.0000
  H   H1374     1.0  0.49601  0.02685  0.42422  1.0000
  H   H1375     1.0  0.59712  0.15630  0.22863  1.0000
  H   H1376     1.0  0.35629  0.02159  0.33876  1.0000
  N   N61       1.0  0.40815  0.13663  0.24710  1.0000
  H   H1377     1.0  0.44509  0.02879  0.45635  1.0000
  N   N62       1.0  0.56790  0.01913  0.46384  1.0000
  C   C816      1.0  0.58587  0.08642  0.46558  1.0000
  H   H1378     1.0  0.64226  0.99191  0.25877  1.0000
  H   H1379     1.0  0.52769  0.01367  0.32824  1.0000
  H   H1380     1.0  0.62893  0.10953  0.25536  1.0000
  H   H1381     1.0  0.63678  0.15780  0.33319  1.0000
  H   H1382     1.0  0.36717  0.00467  0.28894  1.0000
  H   H1383     1.0  0.46129  0.04049  0.40230  1.0000
  H   H1384     1.0  0.57114  0.98801  0.45981  1.0000
  H   H1385     1.0  0.62084  0.01106  0.26194  1.0000
  H   H1386     1.0  0.58667  0.19316  0.24628  1.0000
  S   S226      1.0  0.33198  0.13533  0.27105  1.0000
  H   H1387     1.0  0.61207  0.05242  0.29433  1.0000
  C   C817      1.0  0.53686  0.01142  0.29760  1.0000
  C   C818      1.0  0.54638  0.04903  0.44467  1.0000
  H   H1388     1.0  0.57009  0.00562  0.43771  1.0000
  H   H1389     1.0  0.60426  0.01928  0.31502  1.0000
  H   H1390     1.0  0.38771  0.16919  0.27018  1.0000
  H   H1391     1.0  0.34443  0.04359  0.26356  1.0000
  H   H1392     1.0  0.53025  0.01505  0.45662  1.0000
  H   H1393     1.0  0.62286  0.10175  0.35327  1.0000
  H   H1394     1.0  0.60388  0.00070  0.44150  1.0000
  H   H1395     1.0  0.61973  0.09156  0.37848  1.0000
  H   H1396     1.0  0.60914  0.14828  0.30040  1.0000
  H   H1397     1.0  0.43029  0.09432  0.27492  1.0000
  C   C819      1.0  0.60168  0.02393  0.29966  1.0000
  C   C820      1.0  0.62047  0.10605  0.36815  1.0000
  H   H1398     1.0  0.37645  0.14899  0.25015  1.0000
  C   C821      1.0  0.36012  0.03688  0.30948  1.0000
  H   H1399     1.0  0.48713  0.00642  0.38063  1.0000
  S   S227      1.0  0.34952  0.08662  0.27018  1.0000
  C   C822      1.0  0.61171  0.16969  0.25438  1.0000
  C   C823      1.0  0.38925  0.99801  0.32068  1.0000
  C   C824      1.0  0.38768  0.14076  0.25953  1.0000
  H   H1400     1.0  0.49648  0.05514  0.45575  1.0000
  C   C825      1.0  0.59915  0.11868  0.37146  1.0000
  C   C826      1.0  0.65007  0.04439  0.27205  1.0000
  H   H1401     1.0  0.34545  0.15475  0.23235  1.0000
  H   H1402     1.0  0.50169  0.05485  0.42975  1.0000
  H   H1403     1.0  0.63575  0.01754  0.31782  1.0000
  H   H1404     1.0  0.59851  0.19772  0.26551  1.0000
  C   C827      1.0  0.63365  0.12638  0.38799  1.0000
  H   H1405     1.0  0.55631  0.99990  0.35300  1.0000
  H   H1406     1.0  0.62022  0.16744  0.26683  1.0000
  C   C828      1.0  0.42633  0.05176  0.44021  1.0000
  C   C829      1.0  0.49075  0.06110  0.44169  1.0000
  H   H1407     1.0  0.59135  0.11849  0.35901  1.0000
  H   H1408     1.0  0.48383  0.07495  0.40423  1.0000
  H   H1409     1.0  0.45127  0.06441  0.40975  1.0000
  H   H1410     1.0  0.58595  0.03201  0.30017  1.0000
  H   H1411     1.0  0.60832  0.02603  0.44174  1.0000
  H   H1412     1.0  0.52092  0.01318  0.29555  1.0000
  C   C830      1.0  0.32425  0.06968  0.22748  1.0000
  H   H1413     1.0  0.42936  0.13529  0.26662  1.0000
  H   H1414     1.0  0.40760  0.09386  0.24401  1.0000
  C   C831      1.0  0.60133  0.19188  0.25131  1.0000
  N   N63       1.0  0.63834  0.03024  0.28698  1.0000
  H   H1415     1.0  0.62187  0.13982  0.38646  1.0000
  C   C832      1.0  0.62940  0.14848  0.34636  1.0000
  H   H1416     1.0  0.47733  0.01273  0.42371  1.0000
  C   C833      1.0  0.34557  0.01357  0.25723  1.0000
  H   H1417     1.0  0.57744  0.03832  0.43651  1.0000
  H   H1418     1.0  0.38219  0.10832  0.24440  1.0000
  C   C834      1.0  0.63416  0.14018  0.24362  1.0000
  H   H1419     1.0  0.63129  0.05793  0.45250  1.0000
  H   H1420     1.0  0.41218  0.01588  0.30473  1.0000
  H   H1421     1.0  0.49723  0.99967  0.45084  1.0000
  H   H1422     1.0  0.61062  0.20218  0.24111  1.0000
  C   C835      1.0  0.60619  0.01124  0.45082  1.0000
  H   H1423     1.0  0.50504  0.98949  0.33054  1.0000
  H   H1424     1.0  0.54120  0.02672  0.29326  1.0000
  H   H1425     1.0  0.61629  0.14434  0.34188  1.0000
  H   H1426     1.0  0.54189  0.04029  0.43488  1.0000
  H   H1427     1.0  0.63798  0.04326  0.31302  1.0000
  H   H1428     1.0  0.38168  0.12677  0.26658  1.0000
  H   H1429     1.0  0.61199  0.12238  0.23907  1.0000
  C   C836      1.0  0.64356  0.02883  0.30715  1.0000
  H   H1430     1.0  0.40423  0.10158  0.27378  1.0000
  H   H1431     1.0  0.60270  0.01021  0.29299  1.0000
  H   H1432     1.0  0.65116  0.08698  0.38630  1.0000
  H   H1433     1.0  0.46359  0.05246  0.45952  1.0000
  H   H1434     1.0  0.64860  0.12183  0.33914  1.0000
  H   H1435     1.0  0.41194  0.99433  0.29425  1.0000
  C   C837      1.0  0.48107  0.02362  0.43200  1.0000
  C   C838      1.0  0.46879  0.05732  0.44354  1.0000
  H   H1436     1.0  0.64496  0.04682  0.25756  1.0000
  H   H1437     1.0  0.45939  0.07225  0.43976  1.0000
  H   H1438     1.0  0.33852  0.01783  0.32488  1.0000
  H   H1439     1.0  0.61367  0.10691  0.40773  1.0000
  C   C839      1.0  0.41420  0.15692  0.23785  1.0000
  H   H1440     1.0  0.44290  0.02327  0.43311  1.0000
  H   H1441     1.0  0.37149  0.15308  0.28561  1.0000
  C   C840      1.0  0.63535  0.12545  0.30262  1.0000
  C   C841      1.0  0.53920  0.00377  0.31930  1.0000
  H   H1442     1.0  0.62452  0.15835  0.35781  1.0000
  H   H1443     1.0  0.41567  0.11179  0.28989  1.0000
  C   C842      1.0  0.46410  0.05179  0.41065  1.0000
  H   H1444     1.0  0.44627  0.14613  0.22683  1.0000
  H   H1445     1.0  0.64470  0.01747  0.24880  1.0000
  C   C843      1.0  0.64237  0.10491  0.30819  1.0000
  H   H1446     1.0  0.63924  0.10179  0.41273  1.0000
  H   H1447     1.0  0.39099  0.00625  0.33240  1.0000
  H   H1448     1.0  0.59856  0.13468  0.37261  1.0000
  H   H1449     1.0  0.35152  0.99730  0.36347  1.0000
  H   H1450     1.0  0.48754  0.02173  0.46209  1.0000
  H   H1451     1.0  0.64220  0.13968  0.25607  1.0000
  C   C844      1.0  0.41262  0.00156  0.46597  1.0000
  C   C845      1.0  0.60470  0.07472  0.46735  1.0000
  C   C846      1.0  0.63733  0.00772  0.26153  1.0000
  C   C847      1.0  0.62697  0.11374  0.40799  1.0000
  N   N64       1.0  0.63799  0.11540  0.37048  1.0000
  H   H1452     1.0  0.59926  0.16083  0.26047  1.0000
  H   H1453     1.0  0.35519  0.07105  0.22941  1.0000
  H   H1454     1.0  0.55405  0.00713  0.32078  1.0000
  H   H1455     1.0  0.54782  0.06420  0.43595  1.0000
  H   H1456     1.0  0.37764  0.98528  0.35914  1.0000
  H   H1457     1.0  0.54669  0.00160  0.28748  1.0000
  H   H1458     1.0  0.60873  0.12792  0.26395  1.0000
  C   C848      1.0  0.64466  0.12965  0.35220  1.0000
  H   H1459     1.0  0.51289  0.00001  0.40242  1.0000
  H   H1460     1.0  0.39334  0.01673  0.29045  1.0000
  C   C849      1.0  0.64911  0.06558  0.27718  1.0000
  C   C850      1.0  0.55688  0.98333  0.35451  1.0000
  C   C851      1.0  0.33655  0.99609  0.26175  1.0000
  C   C852      1.0  0.54118  0.00104  0.45527  1.0000
  H   H1461     1.0  0.65294  0.08169  0.35036  1.0000
  H   H1462     1.0  0.35988  0.03556  0.29411  1.0000
  H   H1463     1.0  0.62256  0.12368  0.41948  1.0000
  H   H1464     1.0  0.41709  0.16502  0.24914  1.0000
  H   H1465     1.0  0.43758  0.11866  0.24904  1.0000
  H   H1466     1.0  0.53440  0.05147  0.45746  1.0000
  H   H1467     1.0  0.60793  0.98673  0.34351  1.0000
  S   S228      1.0  0.64424  0.99302  0.35592  1.0000
  S   S229      1.0  0.65206  0.14293  0.29444  1.0000
  H   H1468     1.0  0.57177  0.05039  0.45782  1.0000
  H   H1469     1.0  0.63347  0.07376  0.27967  1.0000
  H   H1470     1.0  0.33157  0.14492  0.34053  1.0000
  H   H1471     1.0  0.41396  0.99323  0.41934  1.0000
  C   C853      1.0  0.43117  0.99019  0.46950  1.0000
  C   C854      1.0  0.64130  0.17348  0.22753  1.0000
  C   C855      1.0  0.36316  0.99323  0.30174  1.0000
  H   H1472     1.0  0.34672  0.99352  0.30257  1.0000
  H   H1473     1.0  0.34854  0.05009  0.31282  1.0000
  H   H1474     1.0  0.52469  0.98735  0.35629  1.0000
  H   H1475     1.0  0.65648  0.06500  0.29004  1.0000
  C   C856      1.0  0.36196  0.98429  0.35798  1.0000
  Fe  Fe120     1.0  0.44495  0.98396  0.38889  1.0000
  C   C857      1.0  0.65664  0.17401  0.24077  1.0000
  H   H1476     1.0  0.53692  0.98894  0.46749  1.0000
  Fe  Fe121     1.0  0.45135  0.03553  0.51228  1.0000
  S   S230      1.0  0.42558  0.05276  0.49771  1.0000
  S   S231      1.0  0.48220  0.04191  0.49774  1.0000
  Fe  Fe122     1.0  0.42393  0.01444  0.54579  1.0000
  S   S232      1.0  0.39585  0.03003  0.53422  1.0000
  H   H1477     1.0  0.33318  0.18617  0.66247  1.0000
  Fe  Fe123     1.0  0.41339  0.02364  0.50501  1.0000
  C   C858      1.0  0.64509  0.01848  0.59911  1.0000
  Fe  Fe124     1.0  0.41054  0.05775  0.52806  1.0000
  S   S233      1.0  0.39232  0.08813  0.53229  1.0000
  S   S234      1.0  0.44059  0.00569  0.51695  1.0000
  S   S235      1.0  0.43731  0.04274  0.54227  1.0000
  Fe  Fe125     1.0  0.56732  0.04766  0.54595  1.0000
  S   S236      1.0  0.58734  0.04649  0.51678  1.0000
  S   S237      1.0  0.54348  0.02804  0.55736  1.0000
  Fe  Fe126     1.0  0.58656  0.08052  0.55602  1.0000
  S   S238      1.0  0.60772  0.08301  0.52721  1.0000
  S   S239      1.0  0.58682  0.09298  0.58359  1.0000
  Fe  Fe127     1.0  0.58101  0.08030  0.51404  1.0000
  H   H1478     1.0  0.43934  0.13491  0.71455  1.0000
  Fe  Fe128     1.0  0.61206  0.04915  0.53243  1.0000
  S   S240      1.0  0.55921  0.08128  0.54241  1.0000
  S   S241      1.0  0.59267  0.04680  0.56192  1.0000
  H   H1479     1.0  0.57147  0.21441  0.66173  1.0000
  S   S242      1.0  0.35090  0.10322  0.66313  1.0000
  S   S243      1.0  0.34290  0.14841  0.63738  1.0000
  C   C859      1.0  0.62347  0.12242  0.60249  1.0000
  H   H1480     1.0  0.33601  0.03066  0.60199  1.0000
  S   S244      1.0  0.40572  0.19285  0.70440  1.0000
  H   H1481     1.0  0.62077  0.20969  0.61389  1.0000
  H   H1482     1.0  0.35267  0.01788  0.67561  1.0000
  C   C860      1.0  0.61588  0.17114  0.65296  1.0000
  C   C861      1.0  0.38554  0.18110  0.70190  1.0000
  C   C862      1.0  0.38685  0.17248  0.68489  1.0000
  C   C863      1.0  0.37158  0.16226  0.68266  1.0000
  C   C864      1.0  0.35482  0.16054  0.69745  1.0000
  H   H1483     1.0  0.60300  0.17004  0.59130  1.0000
  H   H1484     1.0  0.39984  0.17357  0.67343  1.0000
  H   H1485     1.0  0.37289  0.15557  0.66955  1.0000
  S   S245      1.0  0.38930  0.10914  0.61653  1.0000
  H   H1486     1.0  0.48587  0.12835  0.56062  1.0000
  H   H1487     1.0  0.34586  0.03533  0.63324  1.0000
  H   H1488     1.0  0.43043  0.15886  0.72362  1.0000
  H   H1489     1.0  0.62678  0.12385  0.61653  1.0000
  H   H1490     1.0  0.59247  0.22643  0.64872  1.0000
  H   H1491     1.0  0.62516  0.01909  0.63917  1.0000
  H   H1492     1.0  0.61091  0.11699  0.55227  1.0000
  H   H1493     1.0  0.65204  0.03497  0.66159  1.0000
  C   C865      1.0  0.63307  0.13273  0.58514  1.0000
  C   C866      1.0  0.39238  0.09550  0.55489  1.0000
  C   C867      1.0  0.40856  0.08815  0.56504  1.0000
  C   C868      1.0  0.40799  0.09334  0.58356  1.0000
  C   C869      1.0  0.39081  0.10514  0.59235  1.0000
  C   C870      1.0  0.37477  0.11286  0.58205  1.0000
  C   C871      1.0  0.37574  0.10835  0.56316  1.0000
  H   H1494     1.0  0.42142  0.07840  0.55864  1.0000
  H   H1495     1.0  0.42038  0.08737  0.59155  1.0000
  H   H1496     1.0  0.36165  0.12233  0.58863  1.0000
  H   H1497     1.0  0.36326  0.11423  0.55525  1.0000
  H   H1498     1.0  0.46113  0.13435  0.55295  1.0000
  N   N65       1.0  0.36501  0.03721  0.60480  1.0000
  C   C872      1.0  0.65230  0.17464  0.68528  1.0000
  C   C873      1.0  0.64649  0.19275  0.69321  1.0000
  H   H1499     1.0  0.65238  0.00298  0.59671  1.0000
  C   C874      1.0  0.35211  0.02351  0.60035  1.0000
  C   C875      1.0  0.35150  0.00538  0.68825  1.0000
  H   H1500     1.0  0.59499  0.16281  0.62659  1.0000
  C   C876      1.0  0.49904  0.03791  0.51446  1.0000
  C   C877      1.0  0.49618  0.02455  0.53211  1.0000
  C   C878      1.0  0.50995  0.02144  0.54525  1.0000
  C   C879      1.0  0.52641  0.03185  0.54085  1.0000
  C   C880      1.0  0.52909  0.04537  0.52329  1.0000
  C   C881      1.0  0.51547  0.04834  0.51008  1.0000
  H   H1501     1.0  0.48350  0.01645  0.53556  1.0000
  H   H1502     1.0  0.50783  0.01096  0.55882  1.0000
  H   H1503     1.0  0.54165  0.05362  0.51987  1.0000
  H   H1504     1.0  0.51760  0.05885  0.49653  1.0000
  C   C882      1.0  0.60789  0.17116  0.62074  1.0000
  S   S246      1.0  0.33544  0.14741  0.69554  1.0000
  H   H1505     1.0  0.57723  0.18973  0.64224  1.0000
  C   C883      1.0  0.35285  0.00235  0.61295  1.0000
  H   H1506     1.0  0.62152  0.15939  0.61901  1.0000
  H   H1507     1.0  0.36676  0.06944  0.59739  1.0000
  H   H1508     1.0  0.59086  0.19302  0.59983  1.0000
  C   C884      1.0  0.55390  0.02144  0.48300  1.0000
  C   C885      1.0  0.36182  0.03655  0.62683  1.0000
  C   C886      1.0  0.59008  0.19834  0.63884  1.0000
  H   H1509     1.0  0.35361  0.07687  0.56685  1.0000
  C   C887      1.0  0.64229  0.15820  0.69322  1.0000
  C   C888      1.0  0.64284  0.00761  0.54491  1.0000
  C   C889      1.0  0.58752  0.01868  0.61349  1.0000
  H   H1510     1.0  0.33939  0.19954  0.63841  1.0000
  H   H1511     1.0  0.60571  0.14969  0.67829  1.0000
  S   S247      1.0  0.64877  0.13532  0.68342  1.0000
  H   H1512     1.0  0.64735  0.08289  0.61558  1.0000
  H   H1513     1.0  0.33604  0.00813  0.69647  1.0000
  H   H1514     1.0  0.34557  0.00303  0.62841  1.0000
  S   S248      1.0  0.57119  0.09688  0.48578  1.0000
  H   H1515     1.0  0.36830  0.99377  0.61258  1.0000
  C   C890      1.0  0.60786  0.04782  0.62922  1.0000
  C   C891      1.0  0.62662  0.15993  0.70932  1.0000
  H   H1516     1.0  0.54118  0.00423  0.51050  1.0000
  C   C892      1.0  0.36862  0.17965  0.71656  1.0000
  C   C893      1.0  0.35909  0.06084  0.57239  1.0000
  C   C894      1.0  0.58183  0.00562  0.60027  1.0000
  H   H1517     1.0  0.64671  0.19366  0.64635  1.0000
  H   H1518     1.0  0.34409  0.99359  0.60686  1.0000
  H   H1519     1.0  0.38875  0.02788  0.58115  1.0000
  S   S249      1.0  0.39720  0.01507  0.48369  1.0000
  H   H1520     1.0  0.35622  0.02096  0.58477  1.0000
  C   C895      1.0  0.63685  0.20572  0.63814  1.0000
  C   C896      1.0  0.32777  0.19937  0.65188  1.0000
  H   H1521     1.0  0.64086  0.07410  0.59563  1.0000
  H   H1522     1.0  0.59161  0.00610  0.58573  1.0000
  H   H1523     1.0  0.41599  0.03875  0.58793  1.0000
  H   H1524     1.0  0.63892  0.18742  0.61614  1.0000
  H   H1525     1.0  0.63563  0.13891  0.55357  1.0000
  H   H1526     1.0  0.64682  0.21609  0.62881  1.0000
  H   H1527     1.0  0.37475  0.05720  0.56476  1.0000
  H   H1528     1.0  0.56796  0.00144  0.50673  1.0000
  H   H1529     1.0  0.59551  0.20451  0.66748  1.0000
  C   C897      1.0  0.38660  0.02935  0.59697  1.0000
  N   N66       1.0  0.47585  0.09190  0.55037  1.0000
  C   C898      1.0  0.47242  0.07029  0.55724  1.0000
  C   C899      1.0  0.46275  0.10088  0.53490  1.0000
  C   C900      1.0  0.46889  0.10290  0.56785  1.0000
  C   C901      1.0  0.49804  0.09193  0.54280  1.0000
  C   C902      1.0  0.48350  0.05832  0.57405  1.0000
  C   C903      1.0  0.46668  0.08999  0.51681  1.0000
  C   C904      1.0  0.47004  0.12562  0.56423  1.0000
  C   C905      1.0  0.50406  0.11043  0.52787  1.0000
  H   H1530     1.0  0.45608  0.06961  0.56217  1.0000
  H   H1531     1.0  0.47729  0.06132  0.54498  1.0000
  H   H1532     1.0  0.44653  0.10116  0.54140  1.0000
  H   H1533     1.0  0.45297  0.10122  0.57432  1.0000
  H   H1534     1.0  0.47796  0.09630  0.57970  1.0000
  H   H1535     1.0  0.50651  0.09004  0.55524  1.0000
  H   H1536     1.0  0.50435  0.07864  0.53522  1.0000
  H   H1537     1.0  0.48150  0.04224  0.57608  1.0000
  H   H1538     1.0  0.49996  0.05854  0.57067  1.0000
  H   H1539     1.0  0.47705  0.06362  0.58830  1.0000
  H   H1540     1.0  0.62620  0.21446  0.64859  1.0000
  H   H1541     1.0  0.45996  0.07594  0.52027  1.0000
  H   H1542     1.0  0.37099  0.02284  0.63387  1.0000
  C   C906      1.0  0.60478  0.10825  0.58368  1.0000
  H   H1543     1.0  0.57675  0.01733  0.62756  1.0000
  H   H1544     1.0  0.49326  0.12460  0.52855  1.0000
  H   H1545     1.0  0.45923  0.09982  0.50491  1.0000
  C   C907      1.0  0.60033  0.15782  0.66455  1.0000
  H   H1546     1.0  0.48292  0.08635  0.51090  1.0000
  H   H1547     1.0  0.65210  0.02945  0.58731  1.0000
  C   C908      1.0  0.62498  0.99941  0.55053  1.0000
  N   N67       1.0  0.60907  0.01410  0.61707  1.0000
  H   H1548     1.0  0.59874  0.14601  0.65630  1.0000
  S   S250      1.0  0.42390  0.99247  0.57396  1.0000
  C   C909      1.0  0.55489  0.00266  0.49912  1.0000
  H   H1549     1.0  0.38225  0.99783  0.56797  1.0000
  C   C910      1.0  0.62236  0.02154  0.59839  1.0000
  H   H1550     1.0  0.40768  0.03536  0.61424  1.0000
  Fe  Fe129     1.0  0.33427  0.13378  0.66848  1.0000
  H   H1551     1.0  0.61040  0.07235  0.48108  1.0000
  H   H1552     1.0  0.34918  0.05189  0.56815  1.0000
  H   H1553     1.0  0.61911  0.17972  0.66358  1.0000
  H   H1554     1.0  0.58381  0.03469  0.60652  1.0000
  H   H1555     1.0  0.59082  0.99857  0.47837  1.0000
  H   H1556     1.0  0.55704  0.03414  0.48930  1.0000
  H   H1557     1.0  0.39104  0.01359  0.60409  1.0000
  C   C911      1.0  0.40276  0.04090  0.59974  1.0000
  C   C912      1.0  0.35810  0.05829  0.59483  1.0000
  S   S251      1.0  0.64320  0.03126  0.53014  1.0000
  H   H1558     1.0  0.43607  0.98939  0.48336  1.0000
  H   H1559     1.0  0.39776  0.05731  0.59820  1.0000
  H   H1560     1.0  0.40511  0.11751  0.70939  1.0000
  N   N68       1.0  0.60998  0.18472  0.63471  1.0000
  H   H1561     1.0  0.61729  0.03768  0.59270  1.0000
  C   C913      1.0  0.60472  0.18164  0.59981  1.0000
  C   C914      1.0  0.62105  0.17793  0.71750  1.0000
  H   H1562     1.0  0.51855  0.11356  0.53056  1.0000
  C   C915      1.0  0.36583  0.05493  0.63456  1.0000
  H   H1563     1.0  0.61795  0.18852  0.59165  1.0000
  H   H1564     1.0  0.58699  0.20909  0.62536  1.0000
  H   H1565     1.0  0.61143  0.00729  0.54505  1.0000
  H   H1566     1.0  0.36386  0.05171  0.65087  1.0000
  H   H1567     1.0  0.45565  0.14675  0.72393  1.0000
  H   H1568     1.0  0.59331  0.05455  0.62421  1.0000
  H   H1569     1.0  0.50729  0.10688  0.51264  1.0000
  H   H1570     1.0  0.60169  0.10269  0.61527  1.0000
  C   C916      1.0  0.61058  0.02457  0.63373  1.0000
  H   H1571     1.0  0.46401  0.11689  0.52920  1.0000
  H   H1572     1.0  0.46347  0.13179  0.57808  1.0000
  H   H1573     1.0  0.60808  0.05385  0.64281  1.0000
  C   C917      1.0  0.62836  0.13087  0.56704  1.0000
  H   H1574     1.0  0.38119  0.05852  0.62929  1.0000
  H   H1575     1.0  0.64846  0.02141  0.61301  1.0000
  H   H1576     1.0  0.58546  0.16686  0.66901  1.0000
  H   H1577     1.0  0.35464  0.06853  0.63095  1.0000
  C   C918      1.0  0.61444  0.11842  0.56628  1.0000
  C   C919      1.0  0.60921  0.11044  0.60177  1.0000
  C   C920      1.0  0.38655  0.98247  0.57477  1.0000
  S   S252      1.0  0.33025  0.10971  0.62298  1.0000
  H   H1578     1.0  0.34846  0.98665  0.66783  1.0000
  Fe  Fe130     1.0  0.35747  0.11733  0.63161  1.0000
  C   C921      1.0  0.62648  0.19686  0.62479  1.0000
  H   H1579     1.0  0.56621  0.01158  0.59744  1.0000
  H   H1580     1.0  0.62115  0.01361  0.58634  1.0000
  C   C922      1.0  0.35340  0.16934  0.71437  1.0000
  H   H1581     1.0  0.32725  0.21351  0.65768  1.0000
  H   H1582     1.0  0.36239  0.00660  0.69764  1.0000
  H   H1583     1.0  0.63031  0.16090  0.64914  1.0000
  C   C923      1.0  0.65358  0.07433  0.60318  1.0000
  C   C924      1.0  0.58761  0.21160  0.65500  1.0000
  C   C925      1.0  0.63097  0.19444  0.70944  1.0000
  H   H1584     1.0  0.53795  0.02573  0.48098  1.0000
  H   H1585     1.0  0.34219  0.06362  0.60128  1.0000
  C   C926      1.0  0.35665  0.98498  0.68046  1.0000
  H   H1586     1.0  0.59899  0.02076  0.64673  1.0000
  S   S253      1.0  0.62397  0.21763  0.71866  1.0000
  H   H1587     1.0  0.62036  0.05304  0.61813  1.0000
  H   H1588     1.0  0.61870  0.14732  0.71543  1.0000
  H   H1589     1.0  0.65077  0.09001  0.56132  1.0000
  H   H1590     1.0  0.35423  0.00558  0.51867  1.0000
  C   C927      1.0  0.61579  0.99176  0.62253  1.0000
  H   H1591     1.0  0.40566  0.14167  0.71487  1.0000
  H   H1592     1.0  0.55561  0.98848  0.49333  1.0000
  H   H1593     1.0  0.63163  0.98869  0.62529  1.0000
  S   S254      1.0  0.65111  0.14779  0.58578  1.0000
  H   H1594     1.0  0.65467  0.06317  0.56553  1.0000
  H   H1595     1.0  0.37295  0.98368  0.67395  1.0000
  H   H1596     1.0  0.38332  0.12997  0.72282  1.0000
  C   C928      1.0  0.40004  0.12731  0.72098  1.0000
  H   H1597     1.0  0.65421  0.20548  0.68689  1.0000
  C   C929      1.0  0.35823  0.99026  0.51439  1.0000
  H   H1598     1.0  0.36243  0.99271  0.49816  1.0000
  H   H1599     1.0  0.38826  0.98796  0.51907  1.0000
  H   H1600     1.0  0.58201  0.98967  0.60737  1.0000
  H   H1601     1.0  0.60633  0.98585  0.65460  1.0000
  H   H1602     1.0  0.58691  0.98469  0.64078  1.0000
  H   H1603     1.0  0.61610  0.98360  0.61010  1.0000
  H   H1604     1.0  0.59240  0.02457  0.47672  1.0000
  H   H1605     1.0  0.34451  0.98311  0.51909  1.0000
  H   H1606     1.0  0.51540  0.02768  0.93107  1.0000
  Fe  Fe131     1.0  0.51396  0.12151  0.84754  1.0000
  S   S255      1.0  0.53323  0.10295  0.82567  1.0000
  S   S256      1.0  0.50021  0.15353  0.83769  1.0000
  Fe  Fe132     1.0  0.52301  0.08993  0.88249  1.0000
  S   S257      1.0  0.54304  0.06867  0.86363  1.0000
  S   S258      1.0  0.51732  0.08151  0.91542  1.0000
  Fe  Fe133     1.0  0.55526  0.09611  0.84658  1.0000
  S   S259      1.0  0.58872  0.09445  0.83766  1.0000
  Fe  Fe134     1.0  0.51915  0.07723  0.84446  1.0000
  S   S260      1.0  0.51207  0.05344  0.82972  1.0000
  S   S261      1.0  0.53725  0.11672  0.86711  1.0000
  S   S262      1.0  0.49782  0.09640  0.86474  1.0000
  H   H1607     1.0  0.52370  0.43009  0.88356  1.0000
  Fe  Fe135     1.0  0.41983  0.43180  0.89721  1.0000
  S   S263      1.0  0.41299  0.41666  0.92826  1.0000
  S   S264      1.0  0.41965  0.41125  0.87559  1.0000
  Fe  Fe136     1.0  0.39618  0.44671  0.93441  1.0000
  Fe  Fe137     1.0  0.44013  0.42734  0.93310  1.0000
  S   S265      1.0  0.46220  0.40647  0.95042  1.0000
  S   S266      1.0  0.40077  0.46150  0.90281  1.0000
  S   S267      1.0  0.44859  0.44033  0.90155  1.0000
  H   H1608     1.0  0.43476  0.26994  0.73850  1.0000
  H   H1609     1.0  0.39974  0.00919  0.83182  1.0000
  H   H1610     1.0  0.56724  0.42710  0.90916  1.0000
  Fe  Fe138     1.0  0.58423  0.40436  0.96785  1.0000
  C   C930      1.0  0.46445  0.01543  0.86330  1.0000
  H   H1611     1.0  0.63696  0.38107  0.96519  1.0000
  S   S268      1.0  0.57544  0.43579  0.95247  1.0000
  C   C931      1.0  0.35812  0.43050  0.90996  1.0000
  Fe  Fe139     1.0  0.60947  0.20124  0.79238  1.0000
  S   S269      1.0  0.59191  0.19702  0.77010  1.0000
  S   S270      1.0  0.62518  0.17540  0.81143  1.0000
  Fe  Fe140     1.0  0.60393  0.24708  0.78215  1.0000
  S   S271      1.0  0.60999  0.27691  0.78848  1.0000
  Fe  Fe141     1.0  0.57016  0.22356  0.78046  1.0000
  C   C932      1.0  0.61665  0.39975  0.90004  1.0000
  S   S272      1.0  0.58673  0.22581  0.80455  1.0000
  S   S273      1.0  0.62809  0.22249  0.77176  1.0000
  S   S274      1.0  0.42405  0.22181  0.77707  1.0000
  S   S275      1.0  0.39121  0.20090  0.76150  1.0000
  C   C933      1.0  0.34896  0.32960  0.92505  1.0000
  S   S276      1.0  0.55068  0.13646  0.96121  1.0000
  Fe  Fe142     1.0  0.42062  0.19086  0.77281  1.0000
  S   S277      1.0  0.42687  0.16129  0.79276  1.0000
  C   C934      1.0  0.42209  0.98457  0.82298  1.0000
  S   S278      1.0  0.34438  0.35987  0.85798  1.0000
  S   S279      1.0  0.34133  0.41811  0.83790  1.0000
  H   H1612     1.0  0.63331  0.31866  0.95988  1.0000
  C   C935      1.0  0.54065  0.14307  0.75838  1.0000
  H   H1613     1.0  0.37033  0.00861  0.85562  1.0000
  C   C936      1.0  0.53726  0.01737  0.87250  1.0000
  S   S280      1.0  0.37126  0.31956  0.82645  1.0000
  C   C937      1.0  0.48145  0.00685  0.85131  1.0000
  S   S281      1.0  0.47012  0.23647  0.73598  1.0000
  H   H1614     1.0  0.52766  0.03040  0.86522  1.0000
  C   C938      1.0  0.37057  0.27355  0.78676  1.0000
  C   C939      1.0  0.38615  0.27121  0.79762  1.0000
  C   C940      1.0  0.38635  0.28560  0.80952  1.0000
  C   C941      1.0  0.37084  0.30228  0.81081  1.0000
  C   C942      1.0  0.35515  0.30451  0.80011  1.0000
  C   C943      1.0  0.35504  0.29017  0.78813  1.0000
  H   H1615     1.0  0.39784  0.25814  0.79706  1.0000
  H   H1616     1.0  0.39841  0.28369  0.81794  1.0000
  H   H1617     1.0  0.34309  0.31726  0.80107  1.0000
  H   H1618     1.0  0.34285  0.29196  0.77986  1.0000
  H   H1619     1.0  0.39980  0.15829  0.73936  1.0000
  H   H1620     1.0  0.42120  0.08909  0.79232  1.0000
  H   H1621     1.0  0.44875  0.04268  0.87412  1.0000
  H   H1622     1.0  0.49671  0.21281  0.79807  1.0000
  H   H1623     1.0  0.37696  0.01782  0.88684  1.0000
  C   C944      1.0  0.62652  0.29903  0.80847  1.0000
  H   H1624     1.0  0.61681  0.31188  0.80191  1.0000
  H   H1625     1.0  0.64561  0.12070  0.73273  1.0000
  C   C945      1.0  0.60328  0.37883  0.92979  1.0000
  C   C946      1.0  0.60739  0.39770  0.91982  1.0000
  H   H1626     1.0  0.61994  0.41434  0.89235  1.0000
  H   H1627     1.0  0.60373  0.41067  0.92734  1.0000
  C   C947      1.0  0.39817  0.41385  0.86450  1.0000
  C   C948      1.0  0.38436  0.43180  0.86328  1.0000
  C   C949      1.0  0.36717  0.43321  0.85462  1.0000
  C   C950      1.0  0.36357  0.41658  0.84749  1.0000
  C   C951      1.0  0.37754  0.39875  0.84848  1.0000
  C   C952      1.0  0.39488  0.39747  0.85678  1.0000
  H   H1628     1.0  0.38698  0.44461  0.86892  1.0000
  H   H1629     1.0  0.35649  0.44710  0.85375  1.0000
  H   H1630     1.0  0.37516  0.38601  0.84260  1.0000
  H   H1631     1.0  0.40567  0.38365  0.85742  1.0000
  C   C953      1.0  0.47844  0.42034  0.95666  1.0000
  H   H1632     1.0  0.44513  0.11772  0.74698  1.0000
  S   S282      1.0  0.63463  0.38538  0.86598  1.0000
  H   H1633     1.0  0.50272  0.99797  0.88762  1.0000
  H   H1634     1.0  0.62680  0.34476  0.95214  1.0000
  C   C954      1.0  0.47858  0.44057  0.94819  1.0000
  C   C955      1.0  0.51530  0.41838  0.89265  1.0000
  C   C956      1.0  0.41780  0.31621  0.77766  1.0000
  H   H1635     1.0  0.46868  0.44772  0.93774  1.0000
  C   C957      1.0  0.47972  0.15550  0.82544  1.0000
  C   C958      1.0  0.47322  0.13822  0.82255  1.0000
  C   C959      1.0  0.45685  0.14011  0.81264  1.0000
  C   C960      1.0  0.44716  0.15927  0.80534  1.0000
  C   C961      1.0  0.45384  0.17652  0.80805  1.0000
  C   C962      1.0  0.47006  0.17464  0.81813  1.0000
  H   H1636     1.0  0.48066  0.12339  0.82812  1.0000
  H   H1637     1.0  0.45172  0.12671  0.81064  1.0000
  H   H1638     1.0  0.44640  0.19133  0.80259  1.0000
  H   H1639     1.0  0.47509  0.18803  0.82031  1.0000
  C   C963      1.0  0.59779  0.11752  0.83072  1.0000
  C   C964      1.0  0.61701  0.11839  0.83409  1.0000
  C   C965      1.0  0.62499  0.13637  0.82837  1.0000
  C   C966      1.0  0.61408  0.15348  0.81869  1.0000
  C   C967      1.0  0.59491  0.15265  0.81495  1.0000
  C   C968      1.0  0.58663  0.13468  0.82126  1.0000
  H   H1640     1.0  0.62566  0.10514  0.84138  1.0000
  H   H1641     1.0  0.51150  0.42087  0.92351  1.0000
  H   H1642     1.0  0.58640  0.16586  0.80751  1.0000
  H   H1643     1.0  0.57184  0.13390  0.81856  1.0000
  C   C969      1.0  0.49356  0.03914  0.84280  1.0000
  C   C970      1.0  0.47655  0.04779  0.85479  1.0000
  C   C971      1.0  0.46191  0.03596  0.86490  1.0000
  C   C972      1.0  0.49585  0.01872  0.84095  1.0000
  H   H1644     1.0  0.47460  0.06361  0.85614  1.0000
  H   H1645     1.0  0.33777  0.42277  0.93662  1.0000
  N   N69       1.0  0.39430  0.98298  0.85394  1.0000
  C   C973      1.0  0.52639  0.09737  0.92761  1.0000
  C   C974      1.0  0.54437  0.10490  0.91973  1.0000
  C   C975      1.0  0.55173  0.11692  0.93011  1.0000
  C   C976      1.0  0.54101  0.12168  0.94825  1.0000
  C   C977      1.0  0.52282  0.11452  0.95582  1.0000
  C   C978      1.0  0.51573  0.10210  0.94574  1.0000
  H   H1646     1.0  0.55287  0.10105  0.90589  1.0000
  H   H1647     1.0  0.56586  0.12232  0.92420  1.0000
  C   C979      1.0  0.36337  0.26452  0.86046  1.0000
  H   H1648     1.0  0.50169  0.09652  0.95180  1.0000
  S   S283      1.0  0.42275  0.45620  0.94228  1.0000
  H   H1649     1.0  0.65359  0.11052  0.79718  1.0000
  C   C980      1.0  0.52126  0.41111  0.91319  1.0000
  H   H1650     1.0  0.41338  0.12703  0.78442  1.0000
  H   H1651     1.0  0.53793  0.03176  0.89730  1.0000
  S   S284      1.0  0.53704  0.22105  0.79072  1.0000
  H   H1652     1.0  0.54548  0.99925  0.93140  1.0000
  H   H1653     1.0  0.44630  0.28867  0.79809  1.0000
  C   C981      1.0  0.50780  0.99491  0.90222  1.0000
  H   H1654     1.0  0.42165  0.37676  0.91449  1.0000
  C   C982      1.0  0.49187  0.45150  0.95290  1.0000
  H   H1655     1.0  0.56947  0.38591  0.91134  1.0000
  H   H1656     1.0  0.37481  0.42706  0.90780  1.0000
  H   H1657     1.0  0.46484  0.25501  0.79188  1.0000
  H   H1658     1.0  0.51051  0.24502  0.72854  1.0000
  H   H1659     1.0  0.50409  0.04598  0.90137  1.0000
  H   H1660     1.0  0.54696  0.00580  0.90005  1.0000
  H   H1661     1.0  0.60891  0.17916  0.72983  1.0000
  H   H1662     1.0  0.41133  0.33253  0.77559  1.0000
  N   N70       1.0  0.41773  0.35346  0.95257  1.0000
  H   H1663     1.0  0.52342  0.38301  0.94778  1.0000
  H   H1664     1.0  0.39663  0.02161  0.86643  1.0000
  H   H1665     1.0  0.39191  0.24441  0.85548  1.0000
  H   H1666     1.0  0.42017  0.10403  0.73624  1.0000
  H   H1667     1.0  0.40619  0.38314  0.96083  1.0000
  H   H1668     1.0  0.54918  0.37083  0.94070  1.0000
  H   H1669     1.0  0.47082  0.01896  0.90957  1.0000
  H   H1670     1.0  0.54644  0.46101  0.90753  1.0000
  C   C983      1.0  0.62495  0.12188  0.77501  1.0000
  C   C984      1.0  0.40734  0.11602  0.74026  1.0000
  C   C985      1.0  0.43827  0.31295  0.76393  1.0000
  H   H1671     1.0  0.39717  0.37866  0.94035  1.0000
  C   C986      1.0  0.47728  0.03232  0.91075  1.0000
  H   H1672     1.0  0.52355  0.45083  0.91234  1.0000
  H   H1673     1.0  0.39753  0.33272  0.95251  1.0000
  N   N71       1.0  0.34102  0.26739  0.86012  1.0000
  Fe  Fe143     1.0  0.41010  0.20439  0.73157  1.0000
  H   H1674     1.0  0.49150  0.29922  0.75847  1.0000
  H   H1675     1.0  0.35306  0.43246  0.89564  1.0000
  H   H1676     1.0  0.61042  0.12235  0.77002  1.0000
  H   H1677     1.0  0.37116  0.23112  0.86462  1.0000
  H   H1678     1.0  0.37468  0.14283  0.77851  1.0000
  H   H1679     1.0  0.45014  0.35046  0.94219  1.0000
  H   H1680     1.0  0.37080  0.38121  0.96895  1.0000
  C   C987      1.0  0.52810  0.17953  0.75103  1.0000
  H   H1681     1.0  0.49220  0.46699  0.94597  1.0000
  H   H1682     1.0  0.64211  0.37275  0.94145  1.0000
  H   H1683     1.0  0.36631  0.26517  0.87536  1.0000
  Fe  Fe144     1.0  0.33235  0.38781  0.83884  1.0000
  H   H1684     1.0  0.32860  0.37143  0.93025  1.0000
  H   H1685     1.0  0.33685  0.25254  0.89064  1.0000
  H   H1686     1.0  0.41370  0.98400  0.81110  1.0000
  C   C988      1.0  0.50478  0.42211  0.97473  1.0000
  C   C989      1.0  0.65332  0.33041  0.93478  1.0000
  N   N72       1.0  0.51416  0.01350  0.90631  1.0000
  H   H1687     1.0  0.42640  0.08733  0.76664  1.0000
  N   N73       1.0  0.55195  0.17186  0.87306  1.0000
  C   C990      1.0  0.54450  0.15998  0.89272  1.0000
  C   C991      1.0  0.57021  0.15894  0.86344  1.0000
  C   C992      1.0  0.53553  0.17541  0.86065  1.0000
  C   C993      1.0  0.55650  0.19167  0.87642  1.0000
  C   C994      1.0  0.52426  0.16927  0.90398  1.0000
  C   C995      1.0  0.58692  0.15055  0.87608  1.0000
  C   C996      1.0  0.54017  0.18648  0.83946  1.0000
  C   C997      1.0  0.57290  0.20136  0.86123  1.0000
  H   H1688     1.0  0.54292  0.14449  0.89105  1.0000
  H   H1689     1.0  0.55556  0.15784  0.90294  1.0000
  H   H1690     1.0  0.57732  0.16718  0.84948  1.0000
  H   H1691     1.0  0.56581  0.14571  0.85912  1.0000
  H   H1692     1.0  0.53110  0.16079  0.85970  1.0000
  H   H1693     1.0  0.52162  0.18456  0.86746  1.0000
  H   H1694     1.0  0.54258  0.20318  0.87723  1.0000
  H   H1695     1.0  0.56144  0.19007  0.89094  1.0000
  H   H1696     1.0  0.52378  0.18539  0.90489  1.0000
  H   H1697     1.0  0.51139  0.16746  0.89735  1.0000
  H   H1698     1.0  0.60110  0.14525  0.86647  1.0000
  H   H1699     1.0  0.58994  0.16206  0.88389  1.0000
  H   H1700     1.0  0.58293  0.13726  0.88696  1.0000
  H   H1701     1.0  0.54047  0.20271  0.83919  1.0000
  H   H1702     1.0  0.52769  0.18606  0.83160  1.0000
  H   H1703     1.0  0.55412  0.17932  0.83089  1.0000
  H   H1704     1.0  0.58818  0.19272  0.86236  1.0000
  H   H1705     1.0  0.57298  0.21675  0.86425  1.0000
  H   H1706     1.0  0.57042  0.20305  0.84588  1.0000
  C   C998      1.0  0.33070  0.45468  0.78635  1.0000
  C   C999      1.0  0.42607  0.09738  0.77745  1.0000
  H   H1707     1.0  0.40494  0.34601  0.92921  1.0000
  H   H1708     1.0  0.39994  0.00020  0.88559  1.0000
  C   C1000     1.0  0.63420  0.14072  0.76442  1.0000
  S   S285      1.0  0.35770  0.32200  0.96230  1.0000
  N   N74       1.0  0.33920  0.39981  0.91859  1.0000
  C   C1001     1.0  0.37698  0.14761  0.76234  1.0000
  H   H1709     1.0  0.64737  0.27371  0.88791  1.0000
  H   H1710     1.0  0.51479  0.15012  0.79550  1.0000
  H   H1711     1.0  0.47177  0.98422  0.94696  1.0000
  C   C1002     1.0  0.37587  0.24456  0.85456  1.0000
  H   H1712     1.0  0.55308  0.01897  0.86587  1.0000
  H   H1713     1.0  0.48614  0.26629  0.77763  1.0000
  H   H1714     1.0  0.42091  0.29403  0.74344  1.0000
  H   H1715     1.0  0.32760  0.28531  0.89541  1.0000
  C   C1003     1.0  0.33618  0.33524  0.91088  1.0000
  H   H1716     1.0  0.47249  0.16616  0.76363  1.0000
  C   C1004     1.0  0.39935  0.14870  0.75395  1.0000
  S   S286      1.0  0.52100  0.45653  0.97224  1.0000
  H   H1717     1.0  0.34248  0.33569  0.89551  1.0000
  H   H1718     1.0  0.35032  0.26899  0.82860  1.0000
  H   H1719     1.0  0.64436  0.32623  0.92500  1.0000
  C   C1005     1.0  0.52251  0.16222  0.78579  1.0000
  C   C1006     1.0  0.62595  0.27961  0.80471  1.0000
  H   H1720     1.0  0.37366  0.35731  0.96151  1.0000
  C   C1007     1.0  0.33384  0.38354  0.93550  1.0000
  C   C1008     1.0  0.34105  0.32880  0.94511  1.0000
  H   H1721     1.0  0.36504  0.32588  0.92044  1.0000
  H   H1722     1.0  0.51597  0.39630  0.91833  1.0000
  H   H1723     1.0  0.63977  0.31700  0.82337  1.0000
  H   H1724     1.0  0.53672  0.02952  0.96263  1.0000
  H   H1725     1.0  0.56090  0.40439  0.93800  1.0000
  H   H1726     1.0  0.55594  0.14598  0.75849  1.0000
  H   H1727     1.0  0.52214  0.16097  0.91928  1.0000
  H   H1728     1.0  0.57665  0.01525  0.96911  1.0000
  C   C1009     1.0  0.49978  0.21978  0.78286  1.0000
  C   C1010     1.0  0.42285  0.34286  0.97224  1.0000
  H   H1729     1.0  0.33012  0.44825  0.80215  1.0000
  H   H1730     1.0  0.44210  0.32220  0.93648  1.0000
  C   C1011     1.0  0.55138  0.42875  0.90664  1.0000
  H   H1731     1.0  0.42417  0.31497  0.92516  1.0000
  C   C1012     1.0  0.43990  0.14388  0.72602  1.0000
  C   C1013     1.0  0.55572  0.39215  0.90458  1.0000
  H   H1732     1.0  0.52590  0.17885  0.73585  1.0000
  S   S287      1.0  0.59198  0.37575  0.95458  1.0000
  H   H1733     1.0  0.47040  0.21808  0.77695  1.0000
  H   H1734     1.0  0.63402  0.10739  0.77166  1.0000
  C   C1014     1.0  0.48487  0.22272  0.77091  1.0000
  C   C1015     1.0  0.51870  0.22561  0.77522  1.0000
  H   H1735     1.0  0.53957  0.12260  0.78654  1.0000
  S   S288      1.0  0.36956  0.25566  0.77195  1.0000
  H   H1736     1.0  0.35546  0.40091  0.88867  1.0000
  S   S289      1.0  0.58549  0.24684  0.75867  1.0000
  H   H1737     1.0  0.43881  0.14049  0.75731  1.0000
  C   C1016     1.0  0.54518  0.40429  0.93615  1.0000
  Fe  Fe145     1.0  0.60865  0.22027  0.75010  1.0000
  Fe  Fe146     1.0  0.39633  0.23224  0.76289  1.0000
  H   H1738     1.0  0.39597  0.11331  0.77930  1.0000
  C   C1017     1.0  0.52252  0.23470  0.75559  1.0000
  H   H1739     1.0  0.46687  0.30069  0.78568  1.0000
  S   S290      1.0  0.43928  0.19214  0.74285  1.0000
  H   H1740     1.0  0.53567  0.41589  0.94454  1.0000
  N   N75       1.0  0.45000  0.29179  0.76635  1.0000
  H   H1741     1.0  0.42585  0.27525  0.78156  1.0000
  C   C1018     1.0  0.40836  0.99534  0.83935  1.0000
  C   C1019     1.0  0.49920  0.03171  0.89990  1.0000
  S   S291      1.0  0.36599  0.44652  0.95370  1.0000
  H   H1742     1.0  0.33993  0.29944  0.85073  1.0000
  C   C1020     1.0  0.53938  0.04455  0.95462  1.0000
  Fe  Fe147     1.0  0.44087  0.22376  0.74612  1.0000
  C   C1021     1.0  0.45860  0.28830  0.78517  1.0000
  C   C1022     1.0  0.48868  0.23181  0.75127  1.0000
  C   C1023     1.0  0.53955  0.38378  0.94708  1.0000
  C   C1024     1.0  0.50490  0.44233  0.96624  1.0000
  H   H1743     1.0  0.63972  0.13701  0.83140  1.0000
  C   C1025     1.0  0.52984  0.99695  0.93768  1.0000
  H   H1744     1.0  0.49916  0.00918  0.93664  1.0000
  H   H1745     1.0  0.62182  0.12162  0.79114  1.0000
  H   H1746     1.0  0.35406  0.44546  0.91501  1.0000
  H   H1747     1.0  0.55167  0.18885  0.76321  1.0000
  C   C1026     1.0  0.40115  0.37127  0.95487  1.0000
  C   C1027     1.0  0.50751  0.23787  0.74369  1.0000
  H   H1748     1.0  0.53700  0.23935  0.74961  1.0000
  N   N76       1.0  0.64995  0.33726  0.97047  1.0000
  H   H1749     1.0  0.37511  0.98526  0.83222  1.0000
  C   C1028     1.0  0.55485  0.05346  0.96227  1.0000
  C   C1029     1.0  0.50469  0.15527  0.76143  1.0000
  H   H1750     1.0  0.36803  0.16295  0.75974  1.0000
  H   H1751     1.0  0.43850  0.37516  0.94514  1.0000
  N   N77       1.0  0.41302  0.12865  0.75324  1.0000
  C   C1030     1.0  0.46638  0.28974  0.74878  1.0000
  S   S292      1.0  0.33493  0.37231  0.81269  1.0000
  H   H1752     1.0  0.43547  0.31816  0.74855  1.0000
  H   H1753     1.0  0.41922  0.31172  0.79340  1.0000
  C   C1031     1.0  0.36878  0.42801  0.97438  1.0000
  H   H1754     1.0  0.51689  0.19237  0.75592  1.0000
  H   H1755     1.0  0.43780  0.35314  0.91087  1.0000
  H   H1756     1.0  0.49425  0.99119  0.91284  1.0000
  H   H1757     1.0  0.33271  0.41868  0.77391  1.0000
  H   H1758     1.0  0.50006  0.14228  0.77246  1.0000
  S   S293      1.0  0.61424  0.46806  0.95690  1.0000
  C   C1032     1.0  0.38900  0.00985  0.87666  1.0000
  H   H1759     1.0  0.44591  0.26076  0.76847  1.0000
  S   S294      1.0  0.41337  0.23652  0.73196  1.0000
  Fe  Fe148     1.0  0.42896  0.46871  0.91019  1.0000
  C   C1033     1.0  0.43680  0.27616  0.76764  1.0000
  H   H1760     1.0  0.37073  0.13756  0.75522  1.0000
  C   C1034     1.0  0.60831  0.36206  0.91994  1.0000
  C   C1035     1.0  0.53454  0.01713  0.89491  1.0000
  H   H1761     1.0  0.49834  0.03292  0.88411  1.0000
  C   C1036     1.0  0.41076  0.33864  0.94299  1.0000
  N   N78       1.0  0.54321  0.40926  0.91465  1.0000
  C   C1037     1.0  0.42628  0.31968  0.93886  1.0000
  S   S295      1.0  0.44644  0.00052  0.87639  1.0000
  C   C1038     1.0  0.43610  0.36132  0.94022  1.0000
  C   C1039     1.0  0.53902  0.12223  0.77098  1.0000
  H   H1762     1.0  0.51695  0.40548  0.88457  1.0000
  H   H1763     1.0  0.37549  0.24314  0.83915  1.0000
  C   C1040     1.0  0.48273  0.30315  0.74619  1.0000
  H   H1764     1.0  0.48472  0.17942  0.77618  1.0000
  C   C1041     1.0  0.65412  0.17808  0.75495  1.0000
  Fe  Fe149     1.0  0.59426  0.44500  0.97100  1.0000
  H   H1765     1.0  0.37022  0.27706  0.85050  1.0000
  H   H1766     1.0  0.41117  0.27203  0.75543  1.0000
  C   C1042     1.0  0.33466  0.29497  0.88240  1.0000
  H   H1767     1.0  0.63746  0.18136  0.75671  1.0000
  C   C1043     1.0  0.54195  0.16212  0.79392  1.0000
  H   H1768     1.0  0.41859  0.00089  0.84698  1.0000
  H   H1769     1.0  0.54081  0.14154  0.74280  1.0000
  H   H1770     1.0  0.51232  0.17639  0.78898  1.0000
  H   H1771     1.0  0.43601  0.33062  0.97029  1.0000
  H   H1772     1.0  0.34346  0.44610  0.77746  1.0000
  H   H1773     1.0  0.54211  0.38196  0.96253  1.0000
  H   H1774     1.0  0.50891  0.01200  0.83159  1.0000
  H   H1775     1.0  0.54256  0.17744  0.79671  1.0000
  C   C1044     1.0  0.63957  0.30197  0.82060  1.0000
  C   C1045     1.0  0.54885  0.18597  0.74909  1.0000
  H   H1776     1.0  0.44719  0.32397  0.76650  1.0000
  C   C1046     1.0  0.38126  0.36675  0.96794  1.0000
  C   C1047     1.0  0.63983  0.33284  0.95485  1.0000
  H   H1777     1.0  0.34681  0.37780  0.89860  1.0000
  C   C1048     1.0  0.34886  0.41442  0.92593  1.0000
  C   C1049     1.0  0.62237  0.38282  0.89043  1.0000
  H   H1778     1.0  0.54163  0.15203  0.80832  1.0000
  H   H1779     1.0  0.62206  0.35099  0.89284  1.0000
  H   H1780     1.0  0.55234  0.43264  0.89048  1.0000
  H   H1781     1.0  0.44149  0.10026  0.77737  1.0000
  H   H1782     1.0  0.39480  0.10798  0.74849  1.0000
  C   C1050     1.0  0.43571  0.36683  0.91790  1.0000
  C   C1051     1.0  0.47285  0.26816  0.78936  1.0000
  H   H1783     1.0  0.40465  0.15769  0.76305  1.0000
  H   H1784     1.0  0.49928  0.42578  0.89438  1.0000
  H   H1785     1.0  0.37367  0.36809  0.92005  1.0000
  H   H1786     1.0  0.38321  0.39148  0.90905  1.0000
  H   H1787     1.0  0.55166  0.40446  0.87373  1.0000
  H   H1788     1.0  0.40670  0.30811  0.77413  1.0000
  H   H1789     1.0  0.62827  0.14588  0.75034  1.0000
  C   C1052     1.0  0.48648  0.17244  0.76283  1.0000
  Fe  Fe150     1.0  0.34414  0.34372  0.83286  1.0000
  H   H1790     1.0  0.55621  0.15693  0.78464  1.0000
  H   H1791     1.0  0.44835  0.37516  0.91083  1.0000
  C   C1053     1.0  0.41131  0.11733  0.77405  1.0000
  H   H1792     1.0  0.52782  0.99861  0.95343  1.0000
  H   H1793     1.0  0.47876  0.26782  0.80311  1.0000
  H   H1794     1.0  0.49360  0.30058  0.73258  1.0000
  H   H1795     1.0  0.48342  0.99109  0.84976  1.0000
  C   C1054     1.0  0.51387  0.01263  0.92802  1.0000
  H   H1796     1.0  0.34042  0.16822  0.72584  1.0000
  C   C1055     1.0  0.33202  0.25236  0.87642  1.0000
  H   H1797     1.0  0.62692  0.15291  0.77326  1.0000
  C   C1056     1.0  0.63854  0.26311  0.81334  1.0000
  C   C1057     1.0  0.37442  0.38017  0.90711  1.0000
  H   H1798     1.0  0.57055  0.38265  0.87672  1.0000
  H   H1799     1.0  0.54531  0.04218  0.93918  1.0000
  H   H1800     1.0  0.53434  0.00325  0.86875  1.0000
  H   H1801     1.0  0.55210  0.11109  0.76575  1.0000
  C   C1058     1.0  0.56364  0.39699  0.88237  1.0000
  C   C1059     1.0  0.53934  0.44767  0.91503  1.0000
  H   H1802     1.0  0.45984  0.29330  0.73495  1.0000
  H   H1803     1.0  0.60476  0.34752  0.92747  1.0000
  H   H1804     1.0  0.50616  0.15057  0.74676  1.0000
  C   C1060     1.0  0.61812  0.36399  0.90038  1.0000
  H   H1805     1.0  0.52526  0.11649  0.76989  1.0000
  H   H1806     1.0  0.38296  0.37292  0.89441  1.0000
  H   H1807     1.0  0.48749  0.18432  0.74965  1.0000
  H   H1808     1.0  0.46782  0.04580  0.90377  1.0000
  H   H1809     1.0  0.57583  0.40633  0.87961  1.0000
  C   C1061     1.0  0.33255  0.28893  0.86287  1.0000
  H   H1810     1.0  0.52484  0.05505  0.95486  1.0000
  H   H1811     1.0  0.36097  0.40612  0.93432  1.0000
  H   H1812     1.0  0.47583  0.03409  0.92638  1.0000
  H   H1813     1.0  0.53956  0.44668  0.93091  1.0000
  C   C1062     1.0  0.35333  0.38998  0.90249  1.0000
  H   H1814     1.0  0.33802  0.23669  0.87350  1.0000
  N   N79       1.0  0.52445  0.16009  0.76443  1.0000
  H   H1815     1.0  0.63830  0.24809  0.81056  1.0000
  H   H1816     1.0  0.54726  0.37929  0.90669  1.0000
  H   H1817     1.0  0.47408  0.27384  0.74907  1.0000
  H   H1818     1.0  0.42424  0.30702  0.95121  1.0000
  C   C1063     1.0  0.43455  0.13224  0.74681  1.0000
  H   H1819     1.0  0.56142  0.17528  0.74245  1.0000
  C   C1064     1.0  0.64887  0.37457  0.95398  1.0000
  H   H1820     1.0  0.57019  0.04809  0.95458  1.0000
  H   H1821     1.0  0.54900  0.20059  0.73900  1.0000
  H   H1822     1.0  0.65096  0.27268  0.91248  1.0000
  H   H1823     1.0  0.65644  0.32500  0.78258  1.0000
  H   H1824     1.0  0.43464  0.99313  0.81623  1.0000
  C   C1065     1.0  0.37951  0.99755  0.86553  1.0000
  H   H1825     1.0  0.55233  0.06986  0.95624  1.0000
  H   H1826     1.0  0.34729  0.37591  0.94215  1.0000
  H   H1827     1.0  0.35057  0.29516  0.88337  1.0000
  H   H1828     1.0  0.36828  0.98998  0.87647  1.0000
  H   H1829     1.0  0.51389  0.11890  0.96922  1.0000
  H   H1830     1.0  0.36724  0.18659  0.72950  1.0000
  H   H1831     1.0  0.47632  0.31944  0.74444  1.0000
  H   H1832     1.0  0.33410  0.47025  0.78465  1.0000
  C   C1066     1.0  0.65164  0.26606  0.82542  1.0000
  C   C1067     1.0  0.42546  0.27825  0.75017  1.0000
  H   H1833     1.0  0.65091  0.41328  0.97422  1.0000
  H   H1834     1.0  0.32477  0.42210  0.89710  1.0000
  H   H1835     1.0  0.57462  0.08516  0.96487  1.0000
  H   H1836     1.0  0.40070  0.42762  0.97162  1.0000
  H   H1837     1.0  0.65208  0.29912  0.76343  1.0000
  C   C1068     1.0  0.33819  0.26371  0.84029  1.0000
  H   H1838     1.0  0.33962  0.24724  0.83994  1.0000
  C   C1069     1.0  0.65229  0.28549  0.82907  1.0000
  C   C1070     1.0  0.49160  0.41109  0.96987  1.0000
  H   H1839     1.0  0.32662  0.31064  0.88306  1.0000
  H   H1840     1.0  0.65353  0.14929  0.78942  1.0000
  H   H1841     1.0  0.32396  0.39462  0.75679  1.0000
  H   H1842     1.0  0.65583  0.24983  0.90106  1.0000
  H   H1843     1.0  0.50864  0.92011  0.09521  1.0000
  H   H1844     1.0  0.49956  0.94333  0.16817  1.0000
  C   C1071     1.0  0.44898  0.93678  0.99105  1.0000
  Fe  Fe151     1.0  0.50583  0.94086  0.04420  1.0000
  S   S296      1.0  0.52560  0.94256  0.01471  1.0000
  S   S297      1.0  0.50054  0.90984  0.05922  1.0000
  Fe  Fe152     1.0  0.54218  0.96119  0.02710  1.0000
  S   S298      1.0  0.57598  0.95695  0.02097  1.0000
  H   H1845     1.0  0.45348  0.50329  0.01628  1.0000
  S   S299      1.0  0.52404  0.95734  0.05722  1.0000
  C   C1072     1.0  0.43501  0.84428  0.19070  1.0000
  C   C1073     1.0  0.60796  0.49885  0.00231  1.0000
  C   C1074     1.0  0.43045  0.49618  0.99237  1.0000
  S   S300      1.0  0.43614  0.62110  0.01340  1.0000
  H   H1846     1.0  0.49426  0.94531  0.09499  1.0000
  C   C1075     1.0  0.35849  0.88917  0.21654  1.0000
  Fe  Fe153     1.0  0.60499  0.87916  0.10867  1.0000
  S   S301      1.0  0.58764  0.85506  0.10685  1.0000
  S   S302      1.0  0.62291  0.89403  0.08138  1.0000
  Fe  Fe154     1.0  0.59550  0.87465  0.15328  1.0000
  S   S303      1.0  0.57703  0.84999  0.15516  1.0000
  S   S304      1.0  0.36094  0.72278  0.02720  1.0000
  Fe  Fe155     1.0  0.60206  0.83774  0.13226  1.0000
  S   S305      1.0  0.61529  0.80444  0.13459  1.0000
  Fe  Fe156     1.0  0.56408  0.86918  0.12945  1.0000
  S   S306      1.0  0.53179  0.87882  0.12388  1.0000
  S   S307      1.0  0.62136  0.86081  0.13253  1.0000
  S   S308      1.0  0.58052  0.89485  0.12928  1.0000
  Fe  Fe157     1.0  0.43224  0.83629  0.13174  1.0000
  S   S309      1.0  0.41602  0.86815  0.12940  1.0000
  S   S310      1.0  0.46160  0.82559  0.14379  1.0000
  Fe  Fe158     1.0  0.39907  0.82100  0.11735  1.0000
  S   S311      1.0  0.38032  0.85185  0.11377  1.0000
  S   S312      1.0  0.39074  0.79121  0.11376  1.0000
  Fe  Fe159     1.0  0.40970  0.86276  0.10086  1.0000
  S   S313      1.0  0.41304  0.88814  0.07563  1.0000
  Fe  Fe160     1.0  0.38805  0.85481  0.14275  1.0000
  S   S314      1.0  0.36388  0.87132  0.16364  1.0000
  S   S315      1.0  0.42806  0.83171  0.10197  1.0000
  S   S316      1.0  0.40465  0.82311  0.14754  1.0000
  H   H1847     1.0  0.41230  0.71064  0.99413  1.0000
  C   C1076     1.0  0.36023  0.77941  0.06489  1.0000
  S   S317      1.0  0.48372  0.96840  0.03582  1.0000
  C   C1077     1.0  0.54085  0.51398  0.99826  1.0000
  H   H1848     1.0  0.38566  0.84277  0.19161  1.0000
  H   H1849     1.0  0.63479  0.76431  0.12853  1.0000
  C   C1078     1.0  0.63694  0.89339  0.17388  1.0000
  H   H1850     1.0  0.49473  0.96294  0.13975  1.0000
  H   H1851     1.0  0.54038  0.92008  0.11134  1.0000
  H   H1852     1.0  0.63853  0.88765  0.16020  1.0000
  C   C1079     1.0  0.51319  0.86300  0.12844  1.0000
  C   C1080     1.0  0.49561  0.86976  0.12002  1.0000
  C   C1081     1.0  0.47994  0.85816  0.12415  1.0000
  C   C1082     1.0  0.48159  0.83983  0.13700  1.0000
  C   C1083     1.0  0.49925  0.83296  0.14524  1.0000
  C   C1084     1.0  0.51505  0.84444  0.14091  1.0000
  S   S318      1.0  0.36890  0.67395  0.06619  1.0000
  H   H1853     1.0  0.46651  0.86352  0.11755  1.0000
  H   H1854     1.0  0.50065  0.81880  0.15520  1.0000
  H   H1855     1.0  0.52849  0.83911  0.14752  1.0000
  C   C1085     1.0  0.37504  0.76772  0.09465  1.0000
  C   C1086     1.0  0.37934  0.78711  0.09450  1.0000
  H   H1856     1.0  0.37899  0.75563  0.10629  1.0000
  H   H1857     1.0  0.37747  0.81758  0.07902  1.0000
  C   C1087     1.0  0.62657  0.80595  0.09426  1.0000
  C   C1088     1.0  0.62631  0.79411  0.11285  1.0000
  C   C1089     1.0  0.63492  0.77359  0.11423  1.0000
  H   H1858     1.0  0.43357  0.94910  0.01813  1.0000
  H   H1859     1.0  0.48739  0.97499  0.10812  1.0000
  H   H1860     1.0  0.51327  0.50242  0.99712  1.0000
  C   C1090     1.0  0.63817  0.63160  0.02987  1.0000
  C   C1091     1.0  0.63636  0.64220  0.04570  1.0000
  H   H1861     1.0  0.51387  0.92017  0.17768  1.0000
  H   H1862     1.0  0.54737  0.96379  0.11129  1.0000
  H   H1863     1.0  0.41096  0.67619  0.00293  1.0000
  H   H1864     1.0  0.62758  0.62163  0.03005  1.0000
  H   H1865     1.0  0.62449  0.64020  0.05820  1.0000
  Fe  Fe161     1.0  0.33952  0.74539  0.04382  1.0000
  C   C1092     1.0  0.41638  0.63506  0.02775  1.0000
  C   C1093     1.0  0.39729  0.64183  0.02235  1.0000
  C   C1094     1.0  0.38263  0.65437  0.03368  1.0000
  C   C1095     1.0  0.38684  0.65925  0.05088  1.0000
  C   C1096     1.0  0.40562  0.65174  0.05656  1.0000
  C   C1097     1.0  0.42039  0.63996  0.04492  1.0000
  H   H1866     1.0  0.39392  0.63739  0.00953  1.0000
  H   H1867     1.0  0.36795  0.65979  0.02948  1.0000
  H   H1868     1.0  0.40886  0.65527  0.06991  1.0000
  H   H1869     1.0  0.43502  0.63460  0.04928  1.0000
  N   N80       1.0  0.46202  0.76885  0.11327  1.0000
  H   H1870     1.0  0.36230  0.74889  0.08027  1.0000
  C   C1098     1.0  0.41651  0.88640  0.19986  1.0000
  C   C1099     1.0  0.41282  0.71162  0.97798  1.0000
  C   C1100     1.0  0.47583  0.90480  0.06557  1.0000
  C   C1101     1.0  0.47273  0.88506  0.07356  1.0000
  C   C1102     1.0  0.45331  0.88009  0.07733  1.0000
  C   C1103     1.0  0.43696  0.89483  0.07294  1.0000
  C   C1104     1.0  0.43994  0.91478  0.06571  1.0000
  C   C1105     1.0  0.45940  0.91979  0.06202  1.0000
  H   H1871     1.0  0.48542  0.87347  0.07650  1.0000
  H   H1872     1.0  0.45109  0.86471  0.08306  1.0000
  H   H1873     1.0  0.42722  0.92629  0.06269  1.0000
  H   H1874     1.0  0.46168  0.93512  0.05612  1.0000
  C   C1106     1.0  0.58883  0.94058  0.03870  1.0000
  C   C1107     1.0  0.57904  0.93445  0.05776  1.0000
  C   C1108     1.0  0.58949  0.92042  0.07118  1.0000
  C   C1109     1.0  0.60981  0.91274  0.06562  1.0000
  C   C1110     1.0  0.61973  0.91935  0.04680  1.0000
  C   C1111     1.0  0.60927  0.93319  0.03338  1.0000
  H   H1875     1.0  0.56344  0.94037  0.06212  1.0000
  H   H1876     1.0  0.58190  0.91542  0.08576  1.0000
  H   H1877     1.0  0.41969  0.65976  0.98499  1.0000
  H   H1878     1.0  0.61700  0.93797  0.01875  1.0000
  H   H1879     1.0  0.60030  0.82231  0.21369  1.0000
  H   H1880     1.0  0.36061  0.81088  0.05308  1.0000
  S   S319      1.0  0.61892  0.53347  0.00786  1.0000
  Fe  Fe162     1.0  0.61979  0.56458  0.99061  1.0000
  C   C1112     1.0  0.44216  0.67515  0.98978  1.0000
  C   C1113     1.0  0.60811  0.66640  0.98792  1.0000
  H   H1881     1.0  0.47486  0.90189  0.97634  1.0000
  H   H1882     1.0  0.45272  0.87305  0.20509  1.0000
  H   H1883     1.0  0.47554  0.50605  0.99941  1.0000
  S   S320      1.0  0.60807  0.59130  0.00639  1.0000
  H   H1884     1.0  0.48482  0.91986  0.99825  1.0000
  C   C1114     1.0  0.36470  0.79875  0.06463  1.0000
  C   C1115     1.0  0.44527  0.95240  0.00519  1.0000
  H   H1885     1.0  0.40176  0.88697  0.19521  1.0000
  H   H1886     1.0  0.45113  0.74345  0.13334  1.0000
  N   N81       1.0  0.45306  0.49456  0.98831  1.0000
  Fe  Fe163     1.0  0.34885  0.69956  0.05126  1.0000
  Fe  Fe164     1.0  0.43528  0.61441  0.98346  1.0000
  H   H1887     1.0  0.43902  0.78460  0.14857  1.0000
  H   H1888     1.0  0.55505  0.50539  0.00312  1.0000
  H   H1889     1.0  0.59831  0.85453  0.22531  1.0000
  H   H1890     1.0  0.44740  0.88750  0.14054  1.0000
  C   C1116     1.0  0.63320  0.90871  0.20912  1.0000
  Fe  Fe165     1.0  0.50502  0.97159  0.00715  1.0000
  C   C1117     1.0  0.50678  0.92814  0.16480  1.0000
  H   H1891     1.0  0.56245  0.55736  0.01418  1.0000
  H   H1892     1.0  0.53099  0.91343  0.14530  1.0000
  S   S321      1.0  0.32943  0.72224  0.06914  1.0000
  C   C1118     1.0  0.65407  0.63353  0.01414  1.0000
  N   N82       1.0  0.45414  0.91494  0.99997  1.0000
  C   C1119     1.0  0.47283  0.91304  0.00905  1.0000
  H   H1893     1.0  0.60235  0.90362  0.21393  1.0000
  H   H1894     1.0  0.51308  0.94168  0.97903  1.0000
  C   C1120     1.0  0.43767  0.90808  0.01599  1.0000
  C   C1121     1.0  0.48231  0.89141  0.01707  1.0000
  H   H1895     1.0  0.45824  0.88561  0.99064  1.0000
  S   S322      1.0  0.32426  0.69527  0.03643  1.0000
  H   H1896     1.0  0.41766  0.87366  0.21225  1.0000
  H   H1897     1.0  0.41517  0.89635  0.00472  1.0000
  H   H1898     1.0  0.46977  0.92157  0.02161  1.0000
  H   H1899     1.0  0.63977  0.66376  0.98782  1.0000
  H   H1900     1.0  0.41229  0.92370  0.00029  1.0000
  C   C1122     1.0  0.53436  0.93646  0.11120  1.0000
  H   H1901     1.0  0.55951  0.94079  0.12482  1.0000
  H   H1902     1.0  0.44175  0.89186  0.02203  1.0000
  N   N83       1.0  0.43353  0.88309  0.18293  1.0000
  H   H1903     1.0  0.48692  0.88156  0.00555  1.0000
  H   H1904     1.0  0.49617  0.89224  0.02267  1.0000
  H   H1905     1.0  0.47224  0.88430  0.02972  1.0000
  H   H1906     1.0  0.53474  0.93707  0.14987  1.0000
  C   C1123     1.0  0.61662  0.90249  0.20407  1.0000
  C   C1124     1.0  0.52333  0.92925  0.14640  1.0000
  C   C1125     1.0  0.49618  0.92984  0.10330  1.0000
  H   H1907     1.0  0.53413  0.48360  0.00094  1.0000
  H   H1908     1.0  0.65312  0.69250  0.99199  1.0000
  H   H1909     1.0  0.44471  0.68986  0.99252  1.0000
  Fe  Fe166     1.0  0.33466  0.72042  0.01336  1.0000
  H   H1910     1.0  0.40955  0.91953  0.19923  1.0000
  N   N84       1.0  0.56851  0.87445  0.04881  1.0000
  C   C1126     1.0  0.58899  0.87551  0.05306  1.0000
  C   C1127     1.0  0.55524  0.89442  0.05143  1.0000
  C   C1128     1.0  0.56979  0.87086  0.02805  1.0000
  C   C1129     1.0  0.56011  0.85725  0.06268  1.0000
  C   C1130     1.0  0.60533  0.85686  0.05026  1.0000
  C   C1131     1.0  0.54721  0.89766  0.07291  1.0000
  C   C1132     1.0  0.58000  0.88605  0.01185  1.0000
  C   C1133     1.0  0.53857  0.85470  0.06101  1.0000
  H   H1911     1.0  0.59507  0.88887  0.04394  1.0000
  H   H1912     1.0  0.58796  0.87801  0.06840  1.0000
  H   H1913     1.0  0.54206  0.89690  0.04372  1.0000
  H   H1914     1.0  0.56335  0.90720  0.04425  1.0000
  H   H1915     1.0  0.57778  0.85539  0.02609  1.0000
  H   H1916     1.0  0.55445  0.87138  0.02471  1.0000
  H   H1917     1.0  0.56978  0.84259  0.06031  1.0000
  H   H1918     1.0  0.56051  0.85818  0.07827  1.0000
  H   H1919     1.0  0.61971  0.86012  0.05311  1.0000
  H   H1920     1.0  0.60181  0.84337  0.06100  1.0000
  H   H1921     1.0  0.60819  0.85339  0.03507  1.0000
  H   H1922     1.0  0.54047  0.91373  0.07311  1.0000
  H   H1923     1.0  0.53511  0.88859  0.07971  1.0000
  H   H1924     1.0  0.55911  0.89400  0.08222  1.0000
  H   H1925     1.0  0.59626  0.88476  0.01241  1.0000
  H   H1926     1.0  0.57253  0.90187  0.01258  1.0000
  H   H1927     1.0  0.57892  0.88271  0.99723  1.0000
  H   H1928     1.0  0.53912  0.84311  0.05164  1.0000
  H   H1929     1.0  0.52937  0.86879  0.05495  1.0000
  H   H1930     1.0  0.53025  0.84992  0.07592  1.0000
  H   H1931     1.0  0.47887  0.78562  0.12602  1.0000
  H   H1932     1.0  0.63737  0.71591  0.99501  1.0000
  C   C1134     1.0  0.44568  0.77389  0.10070  1.0000
  C   C1135     1.0  0.46866  0.78819  0.11493  1.0000
  C   C1136     1.0  0.43472  0.75637  0.09985  1.0000
  C   C1137     1.0  0.47892  0.79972  0.09568  1.0000
  H   H1933     1.0  0.43403  0.78651  0.10550  1.0000
  H   H1934     1.0  0.45182  0.77958  0.08520  1.0000
  H   H1935     1.0  0.45549  0.79898  0.12051  1.0000
  H   H1936     1.0  0.48351  0.76057  0.08789  1.0000
  H   H1937     1.0  0.44511  0.74350  0.09409  1.0000
  H   H1938     1.0  0.42361  0.76194  0.08964  1.0000
  H   H1939     1.0  0.46865  0.80481  0.08469  1.0000
  H   H1940     1.0  0.48297  0.81358  0.09907  1.0000
  H   H1941     1.0  0.49306  0.79085  0.08913  1.0000
  H   H1942     1.0  0.51926  0.96827  0.13450  1.0000
  C   C1138     1.0  0.49969  0.92897  0.12448  1.0000
  H   H1943     1.0  0.62715  0.69309  0.00302  1.0000
  C   C1139     1.0  0.55202  0.94726  0.11187  1.0000
  C   C1140     1.0  0.43574  0.77049  0.14506  1.0000
  H   H1944     1.0  0.63524  0.80654  0.06292  1.0000
  C   C1141     1.0  0.37425  0.80260  0.07933  1.0000
  H   H1945     1.0  0.46627  0.75606  0.14314  1.0000
  H   H1946     1.0  0.50815  0.56344  0.98531  1.0000
  H   H1947     1.0  0.33278  0.65698  0.98767  1.0000
  C   C1142     1.0  0.60930  0.79495  0.18928  1.0000
  H   H1948     1.0  0.43601  0.91573  0.02895  1.0000
  H   H1949     1.0  0.42595  0.75111  0.11431  1.0000
  C   C1143     1.0  0.41474  0.90563  0.20911  1.0000
  S   S323      1.0  0.34192  0.71512  0.98170  1.0000
  C   C1144     1.0  0.36557  0.76386  0.07991  1.0000
  S   S324      1.0  0.45102  0.58370  0.97745  1.0000
  H   H1950     1.0  0.45939  0.95375  0.00999  1.0000
  C   C1145     1.0  0.47923  0.75468  0.10378  1.0000
  H   H1951     1.0  0.50550  0.76372  0.11203  1.0000
  H   H1952     1.0  0.48502  0.93501  0.13298  1.0000
  H   H1953     1.0  0.47051  0.86853  0.16333  1.0000
  H   H1954     1.0  0.40298  0.90488  0.22251  1.0000
  C   C1146     1.0  0.49858  0.75006  0.11310  1.0000
  H   H1955     1.0  0.53112  0.51915  0.01164  1.0000
  C   C1147     1.0  0.45447  0.75871  0.13367  1.0000
  H   H1956     1.0  0.47463  0.73982  0.10416  1.0000
  H   H1957     1.0  0.50992  0.73929  0.10500  1.0000
  H   H1958     1.0  0.49594  0.74281  0.12867  1.0000
  C   C1148     1.0  0.64366  0.76494  0.09718  1.0000
  H   H1959     1.0  0.43992  0.96754  0.99722  1.0000
  H   H1960     1.0  0.56519  0.53059  0.01519  1.0000
  H   H1961     1.0  0.60813  0.65447  0.00110  1.0000
  Fe  Fe167     1.0  0.59162  0.60325  0.98073  1.0000
  H   H1962     1.0  0.42265  0.77403  0.13723  1.0000
  H   H1963     1.0  0.61710  0.78351  0.19987  1.0000
  Fe  Fe168     1.0  0.63423  0.60453  0.98744  1.0000
  H   H1964     1.0  0.53033  0.94167  0.09640  1.0000
  C   C1149     1.0  0.61314  0.84630  0.21922  1.0000
  H   H1965     1.0  0.43108  0.76106  0.15934  1.0000
  H   H1966     1.0  0.47965  0.85803  0.18585  1.0000
  H   H1967     1.0  0.45562  0.89716  0.19133  1.0000
  C   C1150     1.0  0.45038  0.53066  0.99603  1.0000
  S   S325      1.0  0.34691  0.77572  0.04686  1.0000
  H   H1968     1.0  0.61266  0.82289  0.16958  1.0000
  C   C1151     1.0  0.65356  0.89941  0.17902  1.0000
  C   C1152     1.0  0.42004  0.67508  0.98805  1.0000
  C   C1153     1.0  0.52185  0.61636  0.97744  1.0000
  H   H1969     1.0  0.42297  0.84363  0.20373  1.0000
  C   C1154     1.0  0.61664  0.51598  0.99341  1.0000
  H   H1970     1.0  0.48397  0.88248  0.17373  1.0000
  H   H1971     1.0  0.63546  0.91347  0.04246  1.0000
  C   C1155     1.0  0.50315  0.97518  0.10976  1.0000
  H   H1972     1.0  0.63034  0.85182  0.17517  1.0000
  C   C1156     1.0  0.45326  0.88182  0.18995  1.0000
  H   H1973     1.0  0.50244  0.91257  0.13045  1.0000
  H   H1974     1.0  0.54861  0.56309  0.98255  1.0000
  C   C1157     1.0  0.56447  0.54518  0.00510  1.0000
  H   H1975     1.0  0.48225  0.92358  0.10366  1.0000
  H   H1976     1.0  0.44989  0.84175  0.19545  1.0000
  C   C1158     1.0  0.64374  0.77675  0.07858  1.0000
  C   C1159     1.0  0.60636  0.48450  0.99102  1.0000
  H   H1977     1.0  0.49519  0.91933  0.16353  1.0000
  H   H1978     1.0  0.57752  0.52203  0.97820  1.0000
  H   H1979     1.0  0.42322  0.51181  0.98709  1.0000
  C   C1160     1.0  0.65180  0.90718  0.19661  1.0000
  H   H1980     1.0  0.49413  0.88399  0.11016  1.0000
  H   H1981     1.0  0.59404  0.80110  0.19638  1.0000
  H   H1982     1.0  0.65546  0.59575  0.08694  1.0000
  H   H1983     1.0  0.45269  0.67060  0.97666  1.0000
  H   H1984     1.0  0.44173  0.86148  0.16222  1.0000
  H   H1985     1.0  0.60167  0.68108  0.99297  1.0000
  C   C1161     1.0  0.43147  0.86400  0.17606  1.0000
  H   H1986     1.0  0.40517  0.91120  0.02415  1.0000
  C   C1162     1.0  0.44602  0.90094  0.14768  1.0000
  S   S326      1.0  0.59729  0.88615  0.18135  1.0000
  C   C1163     1.0  0.41658  0.90993  0.01062  1.0000
  C   C1164     1.0  0.50866  0.96133  0.12864  1.0000
  C   C1165     1.0  0.47261  0.87214  0.17737  1.0000
  N   N85       1.0  0.51638  0.93934  0.12725  1.0000
  H   H1987     1.0  0.62254  0.85799  0.21208  1.0000
  H   H1988     1.0  0.64830  0.84468  0.19138  1.0000
  H   H1989     1.0  0.60018  0.84321  0.19443  1.0000
  H   H1990     1.0  0.46096  0.90290  0.15017  1.0000
  C   C1166     1.0  0.45906  0.90167  0.98411  1.0000
  H   H1991     1.0  0.60253  0.49667  0.01798  1.0000
  H   H1992     1.0  0.63160  0.91461  0.22271  1.0000
  C   C1167     1.0  0.65010  0.65514  0.04551  1.0000
  H   H1993     1.0  0.65018  0.74913  0.09841  1.0000
  C   C1168     1.0  0.61836  0.89483  0.18643  1.0000
  C   C1169     1.0  0.50808  0.54826  0.98176  1.0000
  H   H1994     1.0  0.60704  0.78693  0.17766  1.0000
  H   H1995     1.0  0.62020  0.82178  0.09296  1.0000
  H   H1996     1.0  0.41615  0.86525  0.17233  1.0000
  C   C1170     1.0  0.36664  0.87172  0.18797  1.0000
  S   S327      1.0  0.65406  0.76658  0.05663  1.0000
  H   H1997     1.0  0.53305  0.55287  0.00392  1.0000
  H   H1998     1.0  0.38183  0.72799  0.98292  1.0000
  H   H1999     1.0  0.63012  0.79981  0.21934  1.0000
  C   C1171     1.0  0.63516  0.79728  0.07723  1.0000
  C   C1172     1.0  0.37815  0.85574  0.19848  1.0000
  H   H2000     1.0  0.41528  0.90189  0.16240  1.0000
  H   H2001     1.0  0.57910  0.54593  0.99521  1.0000
  H   H2002     1.0  0.44104  0.91413  0.13683  1.0000
  N   N86       1.0  0.62860  0.82265  0.19332  1.0000
  H   H2003     1.0  0.43555  0.53432  0.00543  1.0000
  S   S328      1.0  0.64961  0.66635  0.06629  1.0000
  C   C1173     1.0  0.43037  0.90074  0.16670  1.0000
  H   H2004     1.0  0.63451  0.80482  0.16937  1.0000
  C   C1174     1.0  0.45891  0.50792  0.00037  1.0000
  H   H2005     1.0  0.50332  0.53806  0.99542  1.0000
  C   C1175     1.0  0.35660  0.88828  0.19715  1.0000
  C   C1176     1.0  0.52978  0.49876  0.99249  1.0000
  C   C1177     1.0  0.64025  0.80851  0.20791  1.0000
  C   C1178     1.0  0.37966  0.85642  0.21805  1.0000
  H   H2006     1.0  0.51596  0.62557  0.98890  1.0000
  C   C1179     1.0  0.64059  0.83865  0.18167  1.0000
  H   H2007     1.0  0.44841  0.53593  0.98052  1.0000
  C   C1180     1.0  0.62178  0.81183  0.17952  1.0000
  C   C1181     1.0  0.60981  0.83328  0.20469  1.0000
  H   H2008     1.0  0.34761  0.90065  0.18908  1.0000
  H   H2009     1.0  0.46105  0.53971  0.99890  1.0000
  H   H2010     1.0  0.44616  0.66373  0.00253  1.0000
  H   H2011     1.0  0.43036  0.91520  0.17179  1.0000
  H   H2012     1.0  0.43466  0.83133  0.18330  1.0000
  H   H2013     1.0  0.33419  0.79649  0.10298  1.0000
  H   H2014     1.0  0.46130  0.94099  0.97903  1.0000
  H   H2015     1.0  0.59816  0.66281  0.97876  1.0000
  H   H2016     1.0  0.39048  0.65615  0.97946  1.0000
  N   N87       1.0  0.54520  0.53204  0.98295  1.0000
  H   H2017     1.0  0.32938  0.82132  0.08978  1.0000
  H   H2018     1.0  0.64649  0.81730  0.21650  1.0000
  C   C1182     1.0  0.54697  0.54904  0.99327  1.0000
  C   C1183     1.0  0.63773  0.70071  0.99126  1.0000
  H   H2019     1.0  0.35113  0.90224  0.22328  1.0000
  H   H2020     1.0  0.42885  0.90688  0.21393  1.0000
  H   H2021     1.0  0.65034  0.82935  0.15226  1.0000
  S   S329      1.0  0.55926  0.61885  0.98450  1.0000
  C   C1184     1.0  0.62983  0.66614  0.97667  1.0000
  H   H2022     1.0  0.43554  0.93954  0.98379  1.0000
  H   H2023     1.0  0.51338  0.97165  0.09620  1.0000
  H   H2024     1.0  0.56367  0.94516  0.09871  1.0000
  H   H2025     1.0  0.40509  0.48509  0.98593  1.0000
  H   H2026     1.0  0.38118  0.69086  0.98958  1.0000
  H   H2027     1.0  0.53322  0.49691  0.97682  1.0000
  H   H2028     1.0  0.42471  0.49363  0.00845  1.0000
  C   C1185     1.0  0.43738  0.98105  0.43680  1.0000
  S   S330      1.0  0.63259  0.94385  0.29227  1.0000
  S   S331      1.0  0.37119  0.92338  0.27364  1.0000
  H   H2029     1.0  0.36789  0.96698  0.33468  1.0000
  Fe  Fe169     1.0  0.44143  0.97850  0.34775  1.0000
  S   S332      1.0  0.36644  0.91690  0.33215  1.0000
  Fe  Fe170     1.0  0.35590  0.89954  0.26727  1.0000
  S   S333      1.0  0.37309  0.87392  0.25123  1.0000
  H   H2030     1.0  0.55718  0.97730  0.37032  1.0000
  C   C1186     1.0  0.64023  0.97881  0.33904  1.0000
  S   S334      1.0  0.34709  0.97540  0.24942  1.0000
  C   C1187     1.0  0.51175  0.95730  0.33091  1.0000
  Fe  Fe171     1.0  0.35427  0.91750  0.30429  1.0000
  C   C1188     1.0  0.32835  0.85037  0.27463  1.0000
  H   H2031     1.0  0.32518  0.83717  0.24089  1.0000
  S   S335      1.0  0.45360  0.96957  0.41813  1.0000
  S   S336      1.0  0.65475  0.95715  0.23812  1.0000
  H   H2032     1.0  0.42947  0.94029  0.29746  1.0000
  H   H2033     1.0  0.53683  0.96250  0.35543  1.0000
  H   H2034     1.0  0.56841  0.97613  0.31216  1.0000
  H   H2035     1.0  0.33175  0.85951  0.22641  1.0000
  H   H2036     1.0  0.45783  0.97097  0.45765  1.0000
  S   S337      1.0  0.44332  0.95835  0.32513  1.0000
  C   C1189     1.0  0.65460  0.95676  0.31472  1.0000
  C   C1190     1.0  0.39305  0.93277  0.34692  1.0000
  C   C1191     1.0  0.38889  0.92664  0.33034  1.0000
  C   C1192     1.0  0.40227  0.92907  0.31259  1.0000
  H   H2037     1.0  0.57111  0.97665  0.34596  1.0000
  H   H2038     1.0  0.41277  0.94706  0.35834  1.0000
  H   H2039     1.0  0.38292  0.93068  0.36076  1.0000
  H   H2040     1.0  0.39943  0.92405  0.29983  1.0000
  C   C1193     1.0  0.40987  0.94223  0.34553  1.0000
  C   C1194     1.0  0.42293  0.94521  0.32765  1.0000
  C   C1195     1.0  0.63544  0.95669  0.31075  1.0000
  C   C1196     1.0  0.53809  0.97827  0.34857  1.0000
  S   S338      1.0  0.46778  0.98005  0.36179  1.0000
  Fe  Fe172     1.0  0.34312  0.94479  0.26739  1.0000
  H   H2041     1.0  0.33803  0.85570  0.28292  1.0000
  H   H2042     1.0  0.51161  0.95251  0.34691  1.0000
  H   H2043     1.0  0.52155  0.94597  0.32238  1.0000
  C   C1197     1.0  0.51734  0.97854  0.32354  1.0000
  H   H2044     1.0  0.39688  0.98225  0.32465  1.0000
  S   S339      1.0  0.41921  0.97922  0.37574  1.0000
  S   S340      1.0  0.34116  0.89168  0.29872  1.0000
  H   H2045     1.0  0.39006  0.96992  0.29730  1.0000
  C   C1198     1.0  0.37005  0.87323  0.22704  1.0000
  C   C1199     1.0  0.56120  0.94705  0.32553  1.0000
  H   H2046     1.0  0.49616  0.95753  0.32841  1.0000
  H   H2047     1.0  0.38100  0.96642  0.47192  1.0000
  C   C1200     1.0  0.55461  0.96889  0.31546  1.0000
  C   C1201     1.0  0.41933  0.93821  0.31130  1.0000
  S   S341      1.0  0.32918  0.92144  0.25828  1.0000
  H   H2048     1.0  0.60371  0.96722  0.31830  1.0000
  H   H2049     1.0  0.33864  0.83969  0.26570  1.0000
  C   C1202     1.0  0.61855  0.96737  0.32128  1.0000
  S   S342      1.0  0.32710  0.94046  0.29851  1.0000
  C   C1203     1.0  0.44344  0.97972  0.45499  1.0000
  C   C1204     1.0  0.37390  0.97266  0.29613  1.0000
  H   H2050     1.0  0.54942  0.94021  0.33633  1.0000
  H   H2051     1.0  0.35803  0.97054  0.36817  1.0000
  H   H2052     1.0  0.37284  0.97225  0.28062  1.0000
  H   H2053     1.0  0.56624  0.93712  0.31405  1.0000
  C   C1205     1.0  0.62094  0.97852  0.33539  1.0000
  H   H2054     1.0  0.57468  0.94617  0.33245  1.0000
  H   H2055     1.0  0.61970  0.83693  0.23184  1.0000
  H   H2056     1.0  0.36649  0.96010  0.30516  1.0000
  H   H2057     1.0  0.32963  0.87759  0.25367  1.0000
  H   H2058     1.0  0.55094  0.96792  0.30091  1.0000
  H   H2059     1.0  0.51625  0.98148  0.30763  1.0000
  N   N88       1.0  0.53755  0.98180  0.32678  1.0000
  H   H2060     1.0  0.38845  0.84396  0.22621  1.0000
  H   H2061     1.0  0.34354  0.98163  0.33712  1.0000
  C   C1206     1.0  0.35972  0.98223  0.33698  1.0000
  C   C1207     1.0  0.57664  0.88265  0.69912  1.0000
  H   H2062     1.0  0.55212  0.89169  0.67123  1.0000
  C   C1208     1.0  0.36567  0.94570  0.66624  1.0000
  S   S343      1.0  0.36208  0.93107  0.59043  1.0000
  H   H2063     1.0  0.35331  0.95032  0.52188  1.0000
  H   H2064     1.0  0.40066  0.96835  0.49354  1.0000
  H   H2065     1.0  0.55894  0.90073  0.72076  1.0000
  H   H2066     1.0  0.57880  0.82577  0.68585  1.0000
  H   H2067     1.0  0.36063  0.94670  0.54506  1.0000
  C   C1209     1.0  0.62168  0.90724  0.70502  1.0000
  C   C1210     1.0  0.37218  0.92203  0.52875  1.0000
  H   H2068     1.0  0.65118  0.93977  0.53903  1.0000
  H   H2069     1.0  0.32884  0.94782  0.70460  1.0000
  N   N89       1.0  0.57596  0.87050  0.68339  1.0000
  H   H2070     1.0  0.55370  0.87035  0.64872  1.0000
  H   H2071     1.0  0.63190  0.85769  0.72479  1.0000
  H   H2072     1.0  0.64066  0.96530  0.72227  1.0000
  H   H2073     1.0  0.46689  0.79753  0.70687  1.0000
  H   H2074     1.0  0.35819  0.91517  0.53220  1.0000
  H   H2075     1.0  0.56443  0.83927  0.66689  1.0000
  C   C1211     1.0  0.56202  0.85528  0.69230  1.0000
  H   H2076     1.0  0.43011  0.77850  0.70642  1.0000
  C   C1212     1.0  0.44534  0.82729  0.72479  1.0000
  C   C1213     1.0  0.56802  0.88489  0.66656  1.0000
  H   H2077     1.0  0.60883  0.88157  0.65230  1.0000
  C   C1214     1.0  0.41162  0.95598  0.58764  1.0000
  H   H2078     1.0  0.35730  0.97408  0.57639  1.0000
  C   C1215     1.0  0.34693  0.90056  0.67951  1.0000
  C   C1216     1.0  0.36311  0.88764  0.68720  1.0000
  C   C1217     1.0  0.37604  0.97869  0.52441  1.0000
  C   C1218     1.0  0.60330  0.98146  0.64112  1.0000
  C   C1219     1.0  0.61256  0.87373  0.66678  1.0000
  H   H2079     1.0  0.34704  0.90368  0.66379  1.0000
  H   H2080     1.0  0.37562  0.88082  0.67733  1.0000
  H   H2081     1.0  0.38010  0.91873  0.51409  1.0000
  C   C1220     1.0  0.64573  0.95303  0.71309  1.0000
  H   H2082     1.0  0.37673  0.93227  0.66243  1.0000
  H   H2083     1.0  0.56374  0.84954  0.70787  1.0000
  C   C1221     1.0  0.56474  0.83608  0.68284  1.0000
  H   H2084     1.0  0.41326  0.97473  0.53590  1.0000
  H   H2085     1.0  0.58540  0.89521  0.69316  1.0000
  S   S344      1.0  0.32991  0.95890  0.63204  1.0000
  C   C1222     1.0  0.37826  0.94886  0.58758  1.0000
  H   H2086     1.0  0.40281  0.94175  0.49850  1.0000
  H   H2087     1.0  0.55215  0.82764  0.68983  1.0000
  H   H2088     1.0  0.40251  0.92672  0.59748  1.0000
  C   C1223     1.0  0.33074  0.90944  0.69218  1.0000
  H   H2089     1.0  0.39609  0.82945  0.69603  1.0000
  C   C1224     1.0  0.39789  0.94235  0.59149  1.0000
  C   C1225     1.0  0.33076  0.90520  0.71254  1.0000
  N   N90       1.0  0.38336  0.95708  0.52125  1.0000
  C   C1226     1.0  0.44586  0.78070  0.70038  1.0000
  C   C1227     1.0  0.40005  0.94856  0.53320  1.0000
  H   H2090     1.0  0.65355  0.91552  0.55375  1.0000
  H   H2091     1.0  0.45643  0.76752  0.70626  1.0000
  C   C1228     1.0  0.33116  0.96306  0.69659  1.0000
  H   H2092     1.0  0.62766  0.86435  0.66398  1.0000
  H   H2093     1.0  0.39403  0.94706  0.54920  1.0000
  H   H2094     1.0  0.58088  0.86408  0.64466  1.0000
  H   H2095     1.0  0.45129  0.81151  0.69031  1.0000
  S   S345      1.0  0.64081  0.94909  0.58838  1.0000
  H   H2096     1.0  0.63744  0.94050  0.72082  1.0000
  H   H2097     1.0  0.40672  0.80340  0.72304  1.0000
  H   H2098     1.0  0.36979  0.95877  0.65520  1.0000
  C   C1229     1.0  0.37244  0.96905  0.57958  1.0000
  C   C1230     1.0  0.61967  0.88917  0.71799  1.0000
  H   H2099     1.0  0.57601  0.89823  0.66221  1.0000
  C   C1231     1.0  0.36654  0.94490  0.52938  1.0000
  H   H2100     1.0  0.63291  0.97734  0.69150  1.0000
  C   C1232     1.0  0.36324  0.88357  0.70757  1.0000
  C   C1233     1.0  0.63752  0.90790  0.68902  1.0000
  H   H2101     1.0  0.54595  0.86249  0.69277  1.0000
  C   C1234     1.0  0.41230  0.82318  0.69599  1.0000
  H   H2102     1.0  0.36080  0.96206  0.49140  1.0000
  H   H2103     1.0  0.42672  0.95087  0.59091  1.0000
  H   H2104     1.0  0.43000  0.95144  0.53725  1.0000
  H   H2105     1.0  0.38234  0.94876  0.68824  1.0000
  C   C1235     1.0  0.64194  0.97106  0.57091  1.0000
  H   H2106     1.0  0.63889  0.92180  0.67900  1.0000
  H   H2107     1.0  0.61410  0.88493  0.67565  1.0000
  C   C1236     1.0  0.45102  0.80057  0.70420  1.0000
  C   C1237     1.0  0.39181  0.95591  0.49988  1.0000
  H   H2108     1.0  0.61088  0.92070  0.70735  1.0000
  H   H2109     1.0  0.54758  0.90356  0.69939  1.0000
  H   H2110     1.0  0.44804  0.78070  0.68427  1.0000
  H   H2111     1.0  0.56953  0.88819  0.63488  1.0000
  H   H2112     1.0  0.54672  0.88102  0.71780  1.0000
  H   H2113     1.0  0.59781  0.84878  0.66770  1.0000
  C   C1238     1.0  0.59715  0.85991  0.67753  1.0000
  H   H2114     1.0  0.45184  0.85749  0.71310  1.0000
  C   C1239     1.0  0.36634  0.94826  0.68749  1.0000
  H   H2115     1.0  0.45127  0.84334  0.69433  1.0000
  C   C1240     1.0  0.65180  0.89066  0.68633  1.0000
  H   H2116     1.0  0.37157  0.97947  0.54035  1.0000
  H   H2117     1.0  0.61071  0.97482  0.56786  1.0000
  H   H2118     1.0  0.35077  0.94267  0.66484  1.0000
  N   N91       1.0  0.43733  0.80951  0.72100  1.0000
  H   H2119     1.0  0.60309  0.85081  0.69074  1.0000
  C   C1241     1.0  0.63340  0.87168  0.71482  1.0000
  H   H2120     1.0  0.62430  0.95408  0.69339  1.0000
  S   S346      1.0  0.65089  0.94608  0.64096  1.0000
  C   C1242     1.0  0.41774  0.96051  0.52955  1.0000
  H   H2121     1.0  0.40691  0.93298  0.53050  1.0000
  C   C1243     1.0  0.56801  0.87610  0.64786  1.0000
  Fe  Fe173     1.0  0.33204  0.94005  0.60857  1.0000
  H   H2122     1.0  0.34917  0.98086  0.72091  1.0000
  H   H2123     1.0  0.36281  0.93385  0.69679  1.0000
  H   H2124     1.0  0.58453  0.87301  0.71085  1.0000
  C   C1244     1.0  0.34700  0.89243  0.72021  1.0000
  C   C1245     1.0  0.55613  0.89241  0.70961  1.0000
  H   H2125     1.0  0.42086  0.83533  0.68825  1.0000
  H   H2126     1.0  0.41582  0.81055  0.68736  1.0000
  C   C1246     1.0  0.37668  0.95639  0.48595  1.0000
  C   C1247     1.0  0.63789  0.96073  0.69333  1.0000
  H   H2127     1.0  0.32765  0.96299  0.68178  1.0000
  H   H2128     1.0  0.38147  0.91444  0.54017  1.0000
  N   N92       1.0  0.35260  0.96627  0.69503  1.0000
  H   H2129     1.0  0.42807  0.85386  0.70916  1.0000
  H   H2130     1.0  0.42410  0.96378  0.51374  1.0000
  C   C1248     1.0  0.44391  0.84639  0.70921  1.0000
  C   C1249     1.0  0.35777  0.96739  0.71471  1.0000
  H   H2131     1.0  0.64879  0.95697  0.68024  1.0000
  S   S347      1.0  0.38385  0.86729  0.71665  1.0000
  H   H2132     1.0  0.37777  0.94119  0.48192  1.0000
  C   C1250     1.0  0.40612  0.97595  0.57896  1.0000
  C   C1251     1.0  0.41574  0.81587  0.71748  1.0000
  C   C1252     1.0  0.62459  0.98102  0.56338  1.0000
  H   H2133     1.0  0.37386  0.96924  0.71299  1.0000
  C   C1253     1.0  0.64961  0.87251  0.69913  1.0000
  H   H2134     1.0  0.60783  0.96484  0.64226  1.0000
  H   H2135     1.0  0.61552  0.71111  0.97268  1.0000
  Fe  Fe174     1.0  0.45876  0.96752  0.87665  1.0000
  S   S348      1.0  0.44486  0.94388  0.89907  1.0000
  H   H2136     1.0  0.60760  0.70730  0.92247  1.0000
  Fe  Fe175     1.0  0.49017  0.93680  0.85710  1.0000
  S   S349      1.0  0.47886  0.91052  0.87767  1.0000
  S   S350      1.0  0.51509  0.93496  0.83126  1.0000
  Fe  Fe176     1.0  0.44821  0.92717  0.87358  1.0000
  S   S351      1.0  0.42450  0.90938  0.87106  1.0000
  Fe  Fe177     1.0  0.47675  0.92951  0.90103  1.0000
  S   S352      1.0  0.48825  0.91623  0.92928  1.0000
  S   S353      1.0  0.45961  0.95201  0.85100  1.0000
  S   S354      1.0  0.49046  0.95458  0.88079  1.0000
  H   H2137     1.0  0.37535  0.78031  0.86622  1.0000
  C   C1254     1.0  0.32694  0.77612  0.82857  1.0000
  Fe  Fe178     1.0  0.42816  0.62818  0.94136  1.0000
  C   C1255     1.0  0.63778  0.61648  0.90547  1.0000
  S   S355      1.0  0.41723  0.65447  0.91925  1.0000
  Fe  Fe179     1.0  0.65421  0.69851  0.87330  1.0000
  C   C1256     1.0  0.63353  0.62061  0.88627  1.0000
  S   S356      1.0  0.58741  0.83405  0.73794  1.0000
  S   S357      1.0  0.44355  0.59873  0.93177  1.0000
  H   H2138     1.0  0.45477  0.77485  0.76037  1.0000
  S   S358      1.0  0.44072  0.49833  0.90120  1.0000
  H   H2139     1.0  0.35775  0.95214  0.74488  1.0000
  S   S359      1.0  0.62946  0.68119  0.87335  1.0000
  H   H2140     1.0  0.37732  0.75026  0.89250  1.0000
  H   H2141     1.0  0.46610  0.79602  0.74801  1.0000
  C   C1257     1.0  0.54271  0.61049  0.97257  1.0000
  C   C1258     1.0  0.64098  0.63216  0.91426  1.0000
  C   C1259     1.0  0.35131  0.80502  0.86505  1.0000
  H   H2142     1.0  0.53839  0.97663  0.90565  1.0000
  H   H2143     1.0  0.42425  0.67247  0.95077  1.0000
  C   C1260     1.0  0.53690  0.59270  0.94778  1.0000
  C   C1261     1.0  0.32946  0.76450  0.88222  1.0000
  N   N93       1.0  0.63349  0.68444  0.96162  1.0000
  S   S360      1.0  0.44518  0.81969  0.78071  1.0000
  H   H2144     1.0  0.58720  0.66865  0.87128  1.0000
  Fe  Fe180     1.0  0.59349  0.81452  0.76652  1.0000
  S   S361      1.0  0.59844  0.84004  0.78016  1.0000
  Fe  Fe181     1.0  0.55490  0.83762  0.75244  1.0000
  Fe  Fe182     1.0  0.56533  0.84258  0.79129  1.0000
  S   S362      1.0  0.55289  0.84515  0.82280  1.0000
  S   S363      1.0  0.56074  0.81581  0.77960  1.0000
  Fe  Fe183     1.0  0.39269  0.88168  0.78287  1.0000
  S   S364      1.0  0.39675  0.85208  0.80303  1.0000
  S   S365      1.0  0.39849  0.91129  0.78885  1.0000
  Fe  Fe184     1.0  0.37089  0.84507  0.79138  1.0000
  S   S366      1.0  0.34513  0.83093  0.81115  1.0000
  H   H2145     1.0  0.35842  0.81241  0.85055  1.0000
  S   S367      1.0  0.36491  0.87611  0.77340  1.0000
  C   C1262     1.0  0.52360  0.97537  0.90247  1.0000
  H   H2146     1.0  0.64158  0.80529  0.83702  1.0000
  C   C1263     1.0  0.34467  0.80469  0.81426  1.0000
  H   H2147     1.0  0.56189  0.68298  0.87181  1.0000
  C   C1264     1.0  0.63391  0.65626  0.88533  1.0000
  C   C1265     1.0  0.34343  0.76276  0.82089  1.0000
  C   C1266     1.0  0.36041  0.77046  0.80970  1.0000
  C   C1267     1.0  0.36109  0.79132  0.80648  1.0000
  H   H2148     1.0  0.35628  0.73726  0.89820  1.0000
  H   H2149     1.0  0.33946  0.79334  0.90202  1.0000
  H   H2150     1.0  0.37321  0.76022  0.80368  1.0000
  H   H2151     1.0  0.37437  0.79704  0.79810  1.0000
  H   H2152     1.0  0.33489  0.80914  0.86545  1.0000
  C   C1268     1.0  0.46921  0.84444  0.75474  1.0000
  C   C1269     1.0  0.64408  0.75524  0.81280  1.0000
  H   H2153     1.0  0.45555  0.85360  0.75075  1.0000
  C   C1270     1.0  0.37104  0.73885  0.86822  1.0000
  C   C1271     1.0  0.41559  0.51220  0.93302  1.0000
  C   C1272     1.0  0.41934  0.54161  0.94612  1.0000
  H   H2154     1.0  0.48515  0.50818  0.94422  1.0000
  S   S368      1.0  0.34339  0.73642  0.82485  1.0000
  H   H2155     1.0  0.37896  0.72325  0.87225  1.0000
  H   H2156     1.0  0.65410  0.66844  0.94001  1.0000
  H   H2157     1.0  0.56661  0.49551  0.96629  1.0000
  C   C1273     1.0  0.36356  0.74870  0.88701  1.0000
  H   H2158     1.0  0.39916  0.96565  0.89889  1.0000
  C   C1274     1.0  0.57725  0.65838  0.94139  1.0000
  C   C1275     1.0  0.48624  0.81613  0.77481  1.0000
  H   H2159     1.0  0.62833  0.50618  0.94635  1.0000
  H   H2160     1.0  0.38198  0.74717  0.85754  1.0000
  C   C1276     1.0  0.39345  0.65490  0.91311  1.0000
  C   C1277     1.0  0.38106  0.64093  0.92322  1.0000
  C   C1278     1.0  0.36264  0.64082  0.91731  1.0000
  C   C1279     1.0  0.35644  0.65479  0.90141  1.0000
  C   C1280     1.0  0.36860  0.66911  0.89166  1.0000
  C   C1281     1.0  0.38704  0.66918  0.89753  1.0000
  H   H2161     1.0  0.38581  0.62999  0.93536  1.0000
  H   H2162     1.0  0.35324  0.62978  0.92492  1.0000
  H   H2163     1.0  0.36416  0.67965  0.87912  1.0000
  H   H2164     1.0  0.39659  0.67999  0.88965  1.0000
  H   H2165     1.0  0.52616  0.52819  0.96272  1.0000
  C   C1282     1.0  0.43662  0.54387  0.93208  1.0000
  C   C1283     1.0  0.44327  0.53038  0.91842  1.0000
  C   C1284     1.0  0.43275  0.51453  0.91888  1.0000
  H   H2166     1.0  0.44497  0.55585  0.93183  1.0000
  H   H2167     1.0  0.45657  0.53220  0.90750  1.0000
  H   H2168     1.0  0.64835  0.83684  0.81672  1.0000
  S   S369      1.0  0.61220  0.78350  0.76961  1.0000
  H   H2169     1.0  0.44934  0.51409  0.96063  1.0000
  C   C1285     1.0  0.63078  0.75960  0.79906  1.0000
  S   S370      1.0  0.41365  0.87044  0.75706  1.0000
  C   C1286     1.0  0.64025  0.79279  0.78828  1.0000
  C   C1287     1.0  0.53657  0.63552  0.90975  1.0000
  H   H2170     1.0  0.58417  0.63696  0.88774  1.0000
  H   H2171     1.0  0.51875  0.81193  0.76897  1.0000
  H   H2172     1.0  0.62866  0.82873  0.80855  1.0000
  C   C1288     1.0  0.41796  0.90977  0.84795  1.0000
  C   C1289     1.0  0.42471  0.92329  0.83150  1.0000
  C   C1290     1.0  0.41856  0.92378  0.81342  1.0000
  C   C1291     1.0  0.40617  0.91030  0.81157  1.0000
  C   C1292     1.0  0.39984  0.89647  0.82790  1.0000
  C   C1293     1.0  0.40553  0.89637  0.84610  1.0000
  H   H2173     1.0  0.43464  0.93332  0.83270  1.0000
  H   H2174     1.0  0.42360  0.93442  0.80077  1.0000
  H   H2175     1.0  0.39009  0.88619  0.82666  1.0000
  H   H2176     1.0  0.40028  0.88586  0.85877  1.0000
  C   C1294     1.0  0.52790  0.91038  0.82996  1.0000
  C   C1295     1.0  0.54027  0.90600  0.81245  1.0000
  C   C1296     1.0  0.54889  0.88600  0.81052  1.0000
  C   C1297     1.0  0.54493  0.87038  0.82600  1.0000
  C   C1298     1.0  0.53356  0.87489  0.84388  1.0000
  C   C1299     1.0  0.52518  0.89490  0.84588  1.0000
  H   H2177     1.0  0.54280  0.91801  0.80023  1.0000
  H   H2178     1.0  0.55844  0.88275  0.79701  1.0000
  H   H2179     1.0  0.53072  0.86288  0.85602  1.0000
  H   H2180     1.0  0.51670  0.89831  0.85976  1.0000
  C   C1300     1.0  0.50499  0.82112  0.76505  1.0000
  H   H2181     1.0  0.62735  0.64375  0.86172  1.0000
  C   C1301     1.0  0.65402  0.68007  0.94927  1.0000
  C   C1302     1.0  0.49041  0.93516  0.94213  1.0000
  C   C1303     1.0  0.47960  0.95463  0.93834  1.0000
  H   H2182     1.0  0.55483  0.51366  0.94755  1.0000
  H   H2183     1.0  0.35664  0.77734  0.85312  1.0000
  H   H2184     1.0  0.47020  0.95826  0.92703  1.0000
  H   H2185     1.0  0.64150  0.66414  0.91094  1.0000
  S   S371      1.0  0.60168  0.57562  0.96629  1.0000
  H   H2186     1.0  0.63897  0.80720  0.77871  1.0000
  H   H2187     1.0  0.55720  0.63896  0.93878  1.0000
  H   H2188     1.0  0.41944  0.97322  0.86973  1.0000
  N   N94       1.0  0.56601  0.65491  0.90929  1.0000
  S   S372      1.0  0.63859  0.59176  0.91826  1.0000
  H   H2189     1.0  0.39968  0.70027  0.93429  1.0000
  S   S373      1.0  0.33433  0.65303  0.89304  1.0000
  C   C1304     1.0  0.63923  0.65203  0.90411  1.0000
  H   H2190     1.0  0.36018  0.95508  0.84405  1.0000
  H   H2191     1.0  0.42881  0.96909  0.82866  1.0000
  H   H2192     1.0  0.33848  0.77410  0.93473  1.0000
  C   C1305     1.0  0.62244  0.50421  0.96194  1.0000
  C   C1306     1.0  0.58339  0.63886  0.90330  1.0000
  H   H2193     1.0  0.52218  0.63799  0.90391  1.0000
  C   C1307     1.0  0.40662  0.96705  0.86674  1.0000
  H   H2194     1.0  0.57798  0.67477  0.93887  1.0000
  H   H2195     1.0  0.35887  0.58797  0.91187  1.0000
  Fe  Fe185     1.0  0.46672  0.60021  0.94995  1.0000
  H   H2196     1.0  0.62324  0.77171  0.88299  1.0000
  H   H2197     1.0  0.42932  0.78148  0.73876  1.0000
  C   C1308     1.0  0.56080  0.65394  0.93132  1.0000
  H   H2198     1.0  0.36467  0.93507  0.72756  1.0000
  C   C1309     1.0  0.50587  0.83732  0.74961  1.0000
  H   H2199     1.0  0.51104  0.91555  0.95961  1.0000
  H   H2200     1.0  0.33854  0.94640  0.73392  1.0000
  C   C1310     1.0  0.63131  0.64052  0.87632  1.0000
  C   C1311     1.0  0.32599  0.72222  0.96385  1.0000
  H   H2201     1.0  0.41597  0.71815  0.93523  1.0000
  H   H2202     1.0  0.53614  0.66749  0.90291  1.0000
  H   H2203     1.0  0.58626  0.67690  0.90545  1.0000
  C   C1312     1.0  0.56656  0.51059  0.95703  1.0000
  H   H2204     1.0  0.40173  0.94223  0.89077  1.0000
  Fe  Fe186     1.0  0.41600  0.84051  0.77654  1.0000
  H   H2205     1.0  0.48855  0.86165  0.73266  1.0000
  H   H2206     1.0  0.42986  0.90771  0.97300  1.0000
  S   S374      1.0  0.55648  0.86459  0.76540  1.0000
  H   H2207     1.0  0.41912  0.61293  0.89764  1.0000
  H   H2208     1.0  0.40718  0.50024  0.93323  1.0000
  H   H2209     1.0  0.35609  0.81172  0.87629  1.0000
  Fe  Fe187     1.0  0.42656  0.58485  0.96010  1.0000
  N   N95       1.0  0.39925  0.58051  0.89328  1.0000
  C   C1313     1.0  0.39872  0.55811  0.89604  1.0000
  C   C1314     1.0  0.39105  0.58729  0.91296  1.0000
  C   C1315     1.0  0.42098  0.58353  0.88744  1.0000
  C   C1316     1.0  0.38706  0.59098  0.87743  1.0000
  C   C1317     1.0  0.40949  0.54704  0.87869  1.0000
  C   C1318     1.0  0.36973  0.58292  0.92230  1.0000
  H   H2210     1.0  0.54684  0.66477  0.93527  1.0000
  C   C1319     1.0  0.37847  0.61362  0.87757  1.0000
  H   H2211     1.0  0.40536  0.55021  0.90915  1.0000
  H   H2212     1.0  0.38294  0.55505  0.89909  1.0000
  H   H2213     1.0  0.39070  0.60360  0.91231  1.0000
  H   H2214     1.0  0.40122  0.58004  0.92381  1.0000
  H   H2215     1.0  0.43006  0.57433  0.89852  1.0000
  H   H2216     1.0  0.42772  0.57816  0.87323  1.0000
  H   H2217     1.0  0.39604  0.58944  0.86260  1.0000
  H   H2218     1.0  0.37370  0.58348  0.87850  1.0000
  H   H2219     1.0  0.42611  0.54497  0.87755  1.0000
  H   H2220     1.0  0.40555  0.53157  0.88147  1.0000
  H   H2221     1.0  0.40489  0.55475  0.86453  1.0000
  C   C1320     1.0  0.50363  0.94531  0.96785  1.0000
  H   H2222     1.0  0.36992  0.56663  0.92822  1.0000
  C   C1321     1.0  0.48055  0.96932  0.94957  1.0000
  H   H2223     1.0  0.53232  0.63371  0.92595  1.0000
  C   C1322     1.0  0.33867  0.76598  0.92235  1.0000
  N   N96       1.0  0.41120  0.69137  0.97296  1.0000
  H   H2224     1.0  0.37820  0.62136  0.86220  1.0000
  H   H2225     1.0  0.38696  0.62206  0.88418  1.0000
  H   H2226     1.0  0.36248  0.61548  0.88484  1.0000
  N   N97       1.0  0.60972  0.81361  0.84803  1.0000
  C   C1323     1.0  0.63049  0.81895  0.84012  1.0000
  C   C1324     1.0  0.61069  0.80071  0.86788  1.0000
  C   C1325     1.0  0.59528  0.83308  0.85019  1.0000
  C   C1326     1.0  0.60424  0.80269  0.83348  1.0000
  C   C1327     1.0  0.63243  0.83437  0.82097  1.0000
  H   H2227     1.0  0.52630  0.97001  0.88804  1.0000
  C   C1328     1.0  0.57544  0.83172  0.86479  1.0000
  C   C1329     1.0  0.58497  0.79297  0.83957  1.0000
  H   H2228     1.0  0.52770  0.98128  0.93769  1.0000
  H   H2229     1.0  0.49245  0.61454  0.97173  1.0000
  H   H2230     1.0  0.59579  0.79692  0.87531  1.0000
  H   H2231     1.0  0.61516  0.80926  0.87798  1.0000
  H   H2232     1.0  0.60257  0.84403  0.85524  1.0000
  H   H2233     1.0  0.59115  0.84066  0.83570  1.0000
  H   H2234     1.0  0.60218  0.81312  0.81956  1.0000
  H   H2235     1.0  0.61680  0.79083  0.82869  1.0000
  S   S375      1.0  0.61652  0.61936  0.96332  1.0000
  H   H2236     1.0  0.43893  0.69075  0.95191  1.0000
  H   H2237     1.0  0.63611  0.82515  0.85129  1.0000
  H   H2238     1.0  0.60266  0.69202  0.95603  1.0000
  H   H2239     1.0  0.36350  0.77986  0.90485  1.0000
  C   C1330     1.0  0.65399  0.78820  0.80157  1.0000
  H   H2240     1.0  0.56571  0.84674  0.86334  1.0000
  H   H2241     1.0  0.57812  0.82813  0.88025  1.0000
  H   H2242     1.0  0.56681  0.82081  0.86183  1.0000
  H   H2243     1.0  0.57168  0.80382  0.83536  1.0000
  H   H2244     1.0  0.58183  0.78667  0.85530  1.0000
  H   H2245     1.0  0.58680  0.77985  0.83172  1.0000
  N   N98       1.0  0.47852  0.87747  0.81050  1.0000
  C   C1331     1.0  0.47994  0.89918  0.81098  1.0000
  C   C1332     1.0  0.46093  0.87162  0.82570  1.0000
  C   C1333     1.0  0.47522  0.87462  0.79066  1.0000
  C   C1334     1.0  0.49805  0.86455  0.81481  1.0000
  C   C1335     1.0  0.49401  0.90946  0.79366  1.0000
  C   C1336     1.0  0.46356  0.86978  0.84732  1.0000
  C   C1337     1.0  0.45593  0.88715  0.78370  1.0000
  C   C1338     1.0  0.49952  0.84158  0.81534  1.0000
  H   H2246     1.0  0.46487  0.90883  0.81168  1.0000
  H   H2247     1.0  0.48535  0.90050  0.82461  1.0000
  H   H2248     1.0  0.45678  0.85723  0.82372  1.0000
  H   H2249     1.0  0.44713  0.88290  0.82384  1.0000
  H   H2250     1.0  0.48839  0.87773  0.77913  1.0000
  H   H2251     1.0  0.47418  0.85855  0.79064  1.0000
  H   H2252     1.0  0.51089  0.86904  0.80353  1.0000
  H   H2253     1.0  0.50197  0.86712  0.82870  1.0000
  H   H2254     1.0  0.50954  0.90101  0.79175  1.0000
  H   H2255     1.0  0.48805  0.91189  0.77966  1.0000
  H   H2256     1.0  0.49509  0.92460  0.79672  1.0000
  H   H2257     1.0  0.47524  0.85684  0.85144  1.0000
  H   H2258     1.0  0.46710  0.88388  0.85055  1.0000
  H   H2259     1.0  0.44915  0.86701  0.85699  1.0000
  H   H2260     1.0  0.45603  0.88534  0.76828  1.0000
  H   H2261     1.0  0.45471  0.90350  0.78398  1.0000
  H   H2262     1.0  0.44220  0.88165  0.79258  1.0000
  H   H2263     1.0  0.50655  0.83731  0.80074  1.0000
  H   H2264     1.0  0.48487  0.83613  0.81974  1.0000
  H   H2265     1.0  0.50902  0.83328  0.82637  1.0000
  H   H2266     1.0  0.56942  0.61326  0.92200  1.0000
  H   H2267     1.0  0.33171  0.68202  0.79853  1.0000
  H   H2268     1.0  0.56610  0.59412  0.95381  1.0000
  H   H2269     1.0  0.62314  0.84930  0.82275  1.0000
  S   S376      1.0  0.39052  0.83104  0.76640  1.0000
  H   H2270     1.0  0.39551  0.52392  0.95743  1.0000
  H   H2271     1.0  0.33227  0.74220  0.75626  1.0000
  H   H2272     1.0  0.62196  0.74841  0.79794  1.0000
  H   H2273     1.0  0.39387  0.96325  0.83308  1.0000
  C   C1339     1.0  0.62090  0.70457  0.93004  1.0000
  H   H2274     1.0  0.62217  0.77113  0.85785  1.0000
  C   C1340     1.0  0.35874  0.78206  0.86685  1.0000
  H   H2275     1.0  0.63123  0.60850  0.87937  1.0000
  H   H2276     1.0  0.55135  0.65329  0.88496  1.0000
  C   C1341     1.0  0.55013  0.59857  0.95779  1.0000
  C   C1342     1.0  0.58420  0.61774  0.91594  1.0000
  H   H2277     1.0  0.62220  0.71907  0.93428  1.0000
  H   H2278     1.0  0.63420  0.70002  0.91907  1.0000
  C   C1343     1.0  0.43688  0.79425  0.73967  1.0000
  H   H2279     1.0  0.53333  0.55209  0.95863  1.0000
  C   C1344     1.0  0.40891  0.52571  0.94661  1.0000
  S   S377      1.0  0.49993  0.59065  0.93994  1.0000
  H   H2280     1.0  0.39375  0.73193  0.95757  1.0000
  H   H2281     1.0  0.56039  0.68768  0.90632  1.0000
  H   H2282     1.0  0.35859  0.73763  0.86082  1.0000
  C   C1345     1.0  0.34822  0.77789  0.90301  1.0000
  Fe  Fe188     1.0  0.58937  0.85985  0.75285  1.0000
  C   C1346     1.0  0.51606  0.59843  0.95272  1.0000
  H   H2283     1.0  0.44895  0.92156  0.95805  1.0000
  N   N99       1.0  0.34956  0.76872  0.88474  1.0000
  H   H2284     1.0  0.54283  0.58374  0.93613  1.0000
  H   H2285     1.0  0.59227  0.64988  0.93643  1.0000
  C   C1347     1.0  0.42521  0.60536  0.88458  1.0000
  C   C1348     1.0  0.39566  0.95852  0.88723  1.0000
  H   H2286     1.0  0.64507  0.62891  0.92878  1.0000
  C   C1349     1.0  0.50853  0.61018  0.96767  1.0000
  C   C1350     1.0  0.48794  0.84904  0.74455  1.0000
  Fe  Fe189     1.0  0.38630  0.86244  0.74909  1.0000
  H   H2287     1.0  0.58239  0.69468  0.87376  1.0000
  S   S378      1.0  0.60006  0.88921  0.73817  1.0000
  C   C1351     1.0  0.62523  0.78050  0.86792  1.0000
  H   H2288     1.0  0.34387  0.70074  0.94587  1.0000
  H   H2289     1.0  0.37922  0.95945  0.88868  1.0000
  H   H2290     1.0  0.59311  0.61642  0.92789  1.0000
  H   H2291     1.0  0.34686  0.88931  0.73591  1.0000
  H   H2292     1.0  0.54523  0.62136  0.90492  1.0000
  H   H2293     1.0  0.37568  0.94598  0.86235  1.0000
  C   C1352     1.0  0.42313  0.68837  0.95301  1.0000
  C   C1353     1.0  0.41516  0.70212  0.93524  1.0000
  C   C1354     1.0  0.49240  0.96460  0.96447  1.0000
  C   C1355     1.0  0.57205  0.67537  0.90077  1.0000
  C   C1356     1.0  0.62867  0.77846  0.78693  1.0000
  C   C1357     1.0  0.57598  0.68040  0.87810  1.0000
  H   H2294     1.0  0.48566  0.80312  0.78627  1.0000
  S   S379      1.0  0.41051  0.55822  0.96332  1.0000
  C   C1358     1.0  0.46830  0.82762  0.76953  1.0000
  H   H2295     1.0  0.58130  0.50975  0.94701  1.0000
  H   H2296     1.0  0.36417  0.59118  0.93503  1.0000
  Fe  Fe190     1.0  0.62798  0.59076  0.95078  1.0000
  C   C1359     1.0  0.61816  0.68782  0.94803  1.0000
  C   C1360     1.0  0.36795  0.96003  0.85441  1.0000
  H   H2297     1.0  0.64835  0.92758  0.74910  1.0000
  H   H2298     1.0  0.41973  0.61457  0.87132  1.0000
  C   C1361     1.0  0.63141  0.70326  0.97081  1.0000
  H   H2299     1.0  0.38168  0.70157  0.96443  1.0000
  S   S380      1.0  0.45288  0.63097  0.95706  1.0000
  C   C1362     1.0  0.54757  0.65369  0.90106  1.0000
  C   C1363     1.0  0.50251  0.93055  0.95680  1.0000
  H   H2300     1.0  0.63994  0.71448  0.96081  1.0000
  S   S381      1.0  0.64739  0.73055  0.87865  1.0000
  H   H2301     1.0  0.64537  0.74078  0.82232  1.0000
  H   H2302     1.0  0.61808  0.67360  0.94239  1.0000
  H   H2303     1.0  0.59769  0.64375  0.90414  1.0000
  C   C1364     1.0  0.65574  0.76954  0.81402  1.0000
  H   H2304     1.0  0.44178  0.60502  0.88204  1.0000
  H   H2305     1.0  0.57344  0.65378  0.95754  1.0000
  H   H2306     1.0  0.59255  0.60628  0.90670  1.0000
  H   H2307     1.0  0.42488  0.69777  0.92157  1.0000
  H   H2308     1.0  0.34728  0.75066  0.92586  1.0000
  H   H2309     1.0  0.46153  0.82314  0.72626  1.0000
  S   S382      1.0  0.64731  0.57673  0.97361  1.0000
  H   H2310     1.0  0.56882  0.54110  0.95941  1.0000
  H   H2311     1.0  0.43730  0.83204  0.73899  1.0000
  H   H2312     1.0  0.63027  0.53208  0.96621  1.0000
  H   H2313     1.0  0.45070  0.89534  0.95780  1.0000
  C   C1365     1.0  0.35438  0.94908  0.73094  1.0000
  H   H2314     1.0  0.46678  0.77496  0.73543  1.0000
  H   H2315     1.0  0.51771  0.96314  0.91365  1.0000
  C   C1366     1.0  0.38940  0.68933  0.97443  1.0000
  C   C1367     1.0  0.44614  0.90709  0.96754  1.0000
  H   H2316     1.0  0.35608  0.96809  0.86458  1.0000
  S   S383      1.0  0.52907  0.84235  0.73555  1.0000
  H   H2317     1.0  0.33043  0.73691  0.78219  1.0000
  H   H2318     1.0  0.45892  0.48890  0.95809  1.0000
  H   H2319     1.0  0.42749  0.80123  0.75229  1.0000
  H   H2320     1.0  0.33076  0.75879  0.86814  1.0000
  H   H2321     1.0  0.33023  0.70623  0.80504  1.0000
  S   S384      1.0  0.32862  0.71149  0.87967  1.0000
  C   C1368     1.0  0.45745  0.78468  0.74589  1.0000
  C   C1369     1.0  0.32758  0.79700  0.82525  1.0000
  C   C1370     1.0  0.56499  0.52723  0.96960  1.0000
  H   H2322     1.0  0.33533  0.70278  0.77937  1.0000
  H   H2323     1.0  0.39171  0.66770  0.95395  1.0000
  C   C1371     1.0  0.33072  0.71233  0.94734  1.0000
  H   H2324     1.0  0.41356  0.95406  0.85888  1.0000
  C   C1372     1.0  0.61395  0.48695  0.97087  1.0000
  C   C1373     1.0  0.38523  0.66967  0.96931  1.0000
  S   S385      1.0  0.40920  0.61430  0.96852  1.0000
  H   H2325     1.0  0.64123  0.78271  0.86433  1.0000
  H   H2326     1.0  0.49261  0.49415  0.96655  1.0000
  C   C1374     1.0  0.48119  0.50621  0.96051  1.0000
  C   C1375     1.0  0.52877  0.53982  0.97060  1.0000
  H   H2327     1.0  0.42616  0.48460  0.96656  1.0000
  H   H2328     1.0  0.63396  0.65227  0.96965  1.0000
  H   H2329     1.0  0.49652  0.55037  0.97212  1.0000
  H   H2330     1.0  0.36868  0.67051  0.97069  1.0000
  C   C1376     1.0  0.62356  0.51885  0.97315  1.0000
  C   C1377     1.0  0.32653  0.69839  0.79407  1.0000
  C   C1378     1.0  0.38320  0.97341  0.84245  1.0000
  C   C1379     1.0  0.45973  0.50090  0.96658  1.0000
  C   C1380     1.0  0.39632  0.72970  0.97294  1.0000
  H   H2331     1.0  0.42765  0.71620  0.97102  1.0000
  H   H2332     1.0  0.48213  0.52069  0.96500  1.0000
  H   H2333     1.0  0.40074  0.74378  0.97534  1.0000
  H   H2334     1.0  0.40791  0.82797  0.72618  1.0000
  H   H2335     1.0  0.32450  0.75181  0.89345  1.0000
  Fe  Fe191     1.0  0.69206  0.36917  0.04460  1.0000
  S   S386      1.0  0.71909  0.38000  0.02513  1.0000
  H   H2336     1.0  0.79878  0.43161  0.00411  1.0000
  Fe  Fe192     1.0  0.70522  0.32591  0.03722  1.0000
  S   S387      1.0  0.73367  0.33329  0.01704  1.0000
  S   S388      1.0  0.69319  0.29677  0.03876  1.0000
  Fe  Fe193     1.0  0.73646  0.35185  0.03983  1.0000
  S   S389      1.0  0.76726  0.35254  0.04775  1.0000
  Fe  Fe194     1.0  0.71405  0.36087  0.00412  1.0000
  H   H2337     1.0  0.89081  0.44416  0.07277  1.0000
  S   S390      1.0  0.70944  0.34208  0.06096  1.0000
  S   S391      1.0  0.68565  0.35241  0.02276  1.0000
  Fe  Fe195     1.0  0.84782  0.43662  0.08276  1.0000
  S   S392      1.0  0.81519  0.44720  0.09328  1.0000
  S   S393      1.0  0.85836  0.44699  0.05067  1.0000
  Fe  Fe196     1.0  0.85444  0.41330  0.12291  1.0000
  S   S394      1.0  0.82220  0.42202  0.13639  1.0000
  S   S395      1.0  0.87967  0.39625  0.13917  1.0000
  Fe  Fe197     1.0  0.81456  0.41531  0.10855  1.0000
  S   S396      1.0  0.78684  0.40073  0.10993  1.0000
  H   H2338     1.0  0.78382  0.18167  0.21400  1.0000
  S   S397      1.0  0.84672  0.40420  0.09620  1.0000
  S   S398      1.0  0.85844  0.44482  0.10805  1.0000
  H   H2339     1.0  0.83832  0.40577  0.04636  1.0000
  H   H2340     1.0  0.78396  0.41939  0.05527  1.0000
  H   H2341     1.0  0.70413  0.43816  0.98684  1.0000
  C   C1381     1.0  0.78640  0.37681  0.16055  1.0000
  C   C1382     1.0  0.88127  0.45646  0.04487  1.0000
  H   H2342     1.0  0.78483  0.39710  0.01130  1.0000
  C   C1383     1.0  0.83959  0.38510  0.02606  1.0000
  H   H2343     1.0  0.81654  0.31984  0.15416  1.0000
  H   H2344     1.0  0.84955  0.35009  0.16235  1.0000
  H   H2345     1.0  0.84578  0.45580  0.99125  1.0000
  H   H2346     1.0  0.92266  0.45844  0.06418  1.0000
  N   N100      1.0  0.86012  0.45483  0.18014  1.0000
  C   C1384     1.0  0.91247  0.46116  0.05363  1.0000
  H   H2347     1.0  0.85545  0.48137  0.12616  1.0000
  H   H2348     1.0  0.75230  0.15380  0.20022  1.0000
  H   H2349     1.0  0.84877  0.43018  0.02060  1.0000
  H   H2350     1.0  0.73103  0.20422  0.21691  1.0000
  C   C1385     1.0  0.80876  0.33567  0.15114  1.0000
  H   H2351     1.0  0.96688  0.48123  0.05970  1.0000
  H   H2352     1.0  0.84449  0.37177  0.03681  1.0000
  C   C1386     1.0  0.87701  0.38593  0.16443  1.0000
  C   C1387     1.0  0.89437  0.37882  0.17310  1.0000
  C   C1388     1.0  0.67646  0.43125  0.00855  1.0000
  H   H2353     1.0  0.90906  0.37996  0.16431  1.0000
  C   C1389     1.0  0.68124  0.28357  0.06068  1.0000
  C   C1390     1.0  0.77326  0.14051  0.21998  1.0000
  H   H2354     1.0  0.82994  0.38013  0.01749  1.0000
  H   H2355     1.0  0.76763  0.17502  0.17881  1.0000
  H   H2356     1.0  0.82004  0.31140  0.18576  1.0000
  C   C1391     1.0  0.77224  0.36595  0.06528  1.0000
  C   C1392     1.0  0.75696  0.37803  0.07618  1.0000
  C   C1393     1.0  0.76168  0.38861  0.08972  1.0000
  C   C1394     1.0  0.78172  0.38761  0.09226  1.0000
  C   C1395     1.0  0.79701  0.37549  0.08143  1.0000
  C   C1396     1.0  0.79226  0.36466  0.06811  1.0000
  H   H2357     1.0  0.74148  0.37913  0.07425  1.0000
  H   H2358     1.0  0.74969  0.39773  0.09820  1.0000
  H   H2359     1.0  0.81245  0.37424  0.08349  1.0000
  H   H2360     1.0  0.80417  0.35526  0.05985  1.0000
  H   H2361     1.0  0.84410  0.42038  0.00057  1.0000
  C   C1397     1.0  0.66471  0.31877  0.97647  1.0000
  C   C1398     1.0  0.80929  0.37160  0.15361  1.0000
  C   C1399     1.0  0.84118  0.34703  0.15134  1.0000
  C   C1400     1.0  0.82801  0.40218  0.03744  1.0000
  C   C1401     1.0  0.91725  0.47290  0.03523  1.0000
  H   H2362     1.0  0.66809  0.31964  0.10190  1.0000
  H   H2363     1.0  0.81632  0.39543  0.04842  1.0000
  H   H2364     1.0  0.82096  0.35627  0.18734  1.0000
  Fe  Fe198     1.0  0.82573  0.45297  0.11970  1.0000
  H   H2365     1.0  0.81468  0.40910  0.99993  1.0000
  H   H2366     1.0  0.79936  0.34537  0.18725  1.0000
  C   C1402     1.0  0.80812  0.43640  0.03818  1.0000
  H   H2367     1.0  0.85343  0.38938  0.01637  1.0000
  H   H2368     1.0  0.68521  0.30497  0.99700  1.0000
  C   C1403     1.0  0.82614  0.32384  0.18955  1.0000
  C   C1404     1.0  0.77802  0.18164  0.18503  1.0000
  H   H2369     1.0  0.82307  0.33764  0.12003  1.0000
  H   H2370     1.0  0.84203  0.37374  0.20448  1.0000
  H   H2371     1.0  0.81667  0.38161  0.15978  1.0000
  S   S399      1.0  0.66805  0.39041  0.06053  1.0000
  H   H2372     1.0  0.67385  0.40476  0.98451  1.0000
  C   C1405     1.0  0.87884  0.45938  0.16592  1.0000
  C   C1406     1.0  0.83677  0.42994  0.01201  1.0000
  H   H2373     1.0  0.85873  0.42707  0.16960  1.0000
  H   H2374     1.0  0.70830  0.42627  0.01080  1.0000
  H   H2375     1.0  0.84114  0.36037  0.11981  1.0000
  C   C1407     1.0  0.84603  0.47460  0.18186  1.0000
  H   H2376     1.0  0.79282  0.17154  0.18412  1.0000
  C   C1408     1.0  0.90413  0.47617  0.02157  1.0000
  H   H2377     1.0  0.77442  0.41627  0.02657  1.0000
  H   H2378     1.0  0.87693  0.45278  0.20383  1.0000
  C   C1409     1.0  0.83185  0.45161  0.00094  1.0000
  H   H2379     1.0  0.69252  0.29779  0.08025  1.0000
  C   C1410     1.0  0.89492  0.44123  0.16085  1.0000
  H   H2380     1.0  0.73168  0.17763  0.18585  1.0000
  H   H2381     1.0  0.79300  0.33559  0.15897  1.0000
  H   H2382     1.0  0.81173  0.37668  0.13749  1.0000
  C   C1411     1.0  0.75405  0.15510  0.21526  1.0000
  C   C1412     1.0  0.80584  0.41716  0.01204  1.0000
  H   H2383     1.0  0.83256  0.47238  0.19328  1.0000
  H   H2384     1.0  0.98547  0.46362  0.04756  1.0000
  C   C1413     1.0  0.81561  0.34484  0.18097  1.0000
  C   C1414     1.0  0.87406  0.36794  0.20438  1.0000
  H   H2385     1.0  0.90640  0.36442  0.19952  1.0000
  H   H2386     1.0  0.84273  0.32175  0.18504  1.0000
  H   H2387     1.0  0.70265  0.41172  0.99480  1.0000
  C   C1415     1.0  0.84948  0.44187  0.17167  1.0000
  C   C1416     1.0  0.65863  0.13670  0.18855  1.0000
  C   C1417     1.0  0.89440  0.45315  0.05854  1.0000
  H   H2388     1.0  0.86515  0.35564  0.12766  1.0000
  H   H2389     1.0  0.88910  0.43028  0.15450  1.0000
  H   H2390     1.0  0.84712  0.33107  0.14928  1.0000
  C   C1418     1.0  0.88631  0.46773  0.02628  1.0000
  H   H2391     1.0  0.67539  0.43876  0.02160  1.0000
  C   C1419     1.0  0.85811  0.38444  0.17592  1.0000
  H   H2392     1.0  0.81707  0.45095  0.18154  1.0000
  H   H2393     1.0  0.77364  0.12609  0.21462  1.0000
  H   H2394     1.0  0.84468  0.39016  0.16947  1.0000
  C   C1420     1.0  0.86513  0.44551  0.20027  1.0000
  C   C1421     1.0  0.79487  0.42844  0.05742  1.0000
  C   C1422     1.0  0.73316  0.18872  0.21331  1.0000
  H   H2395     1.0  0.84706  0.37644  0.13480  1.0000
  C   C1423     1.0  0.84877  0.36063  0.13223  1.0000
  H   H2396     1.0  0.83993  0.48069  0.16796  1.0000
  H   H2397     1.0  0.69196  0.17862  0.17764  1.0000
  H   H2398     1.0  0.65737  0.47017  0.00881  1.0000
  N   N101      1.0  0.81869  0.34985  0.15880  1.0000
  H   H2399     1.0  0.78235  0.37494  0.17678  1.0000
  C   C1424     1.0  0.80789  0.33990  0.12896  1.0000
  C   C1425     1.0  0.68312  0.28712  0.07917  1.0000
  C   C1426     1.0  0.67478  0.13477  0.19882  1.0000
  H   H2400     1.0  0.66706  0.34586  0.10371  1.0000
  H   H2401     1.0  0.77767  0.36816  0.15433  1.0000
  C   C1427     1.0  0.68267  0.16689  0.18076  1.0000
  H   H2402     1.0  0.82041  0.45290  0.99140  1.0000
  H   H2403     1.0  0.79164  0.39408  0.03451  1.0000
  H   H2404     1.0  0.68650  0.04581  0.21954  1.0000
  H   H2405     1.0  0.79945  0.32900  0.12548  1.0000
  C   C1428     1.0  0.78824  0.40569  0.02191  1.0000
  S   S400      1.0  0.70657  0.14850  0.20822  1.0000
  C   C1429     1.0  0.68673  0.14997  0.19507  1.0000
  C   C1430     1.0  0.89292  0.37006  0.19306  1.0000
  N   N102      1.0  0.81925  0.42116  0.02512  1.0000
  H   H2406     1.0  0.78146  0.39303  0.15506  1.0000
  H   H2407     1.0  0.81898  0.44398  0.04297  1.0000
  C   C1431     1.0  0.85666  0.37523  0.19574  1.0000
  C   C1432     1.0  0.66937  0.26931  0.05947  1.0000
  H   H2408     1.0  0.79832  0.44865  0.02996  1.0000
  H   H2409     1.0  0.67432  0.27958  0.11059  1.0000
  H   H2410     1.0  0.79972  0.35516  0.12428  1.0000
  H   H2411     1.0  0.82327  0.32237  0.20586  1.0000
  H   H2412     1.0  0.74009  0.20199  0.18212  1.0000
  H   H2413     1.0  0.78071  0.19585  0.17496  1.0000
  C   C1433     1.0  0.69896  0.42691  0.99934  1.0000
  H   H2414     1.0  0.90217  0.43363  0.17369  1.0000
  C   C1434     1.0  0.82896  0.43757  0.18371  1.0000
  C   C1435     1.0  0.73003  0.19192  0.19172  1.0000
  C   C1436     1.0  0.87207  0.42235  0.20391  1.0000
  H   H2415     1.0  0.82699  0.46287  0.01116  1.0000
  C   C1437     1.0  0.67290  0.27670  0.09631  1.0000
  H   H2416     1.0  0.71434  0.19959  0.19079  1.0000
  H   H2417     1.0  0.68451  0.33147  0.99053  1.0000
  H   H2418     1.0  0.88688  0.46914  0.17167  1.0000
  H   H2419     1.0  0.98873  0.47012  0.07053  1.0000
  H   H2420     1.0  0.90709  0.44684  0.14940  1.0000
  H   H2421     1.0  0.82431  0.42509  0.17844  1.0000
  H   H2422     1.0  0.76691  0.20307  0.20530  1.0000
  H   H2423     1.0  0.66801  0.26633  0.04521  1.0000
  H   H2424     1.0  0.67807  0.12149  0.20951  1.0000
  H   H2425     1.0  0.87628  0.47023  0.01561  1.0000
  C   C1438     1.0  0.65904  0.25901  0.07659  1.0000
  H   H2426     1.0  0.80430  0.41949  0.06821  1.0000
  H   H2427     1.0  0.87473  0.46802  0.15179  1.0000
  H   H2428     1.0  0.84680  0.44906  0.15656  1.0000
  H   H2429     1.0  0.78601  0.44146  0.06433  1.0000
  H   H2430     1.0  0.87876  0.41542  0.19067  1.0000
  C   C1439     1.0  0.66151  0.46566  0.99394  1.0000
  H   H2431     1.0  0.66320  0.18213  0.15981  1.0000
  H   H2432     1.0  0.67197  0.41614  0.01458  1.0000
  C   C1440     1.0  0.67497  0.31949  0.99395  1.0000
  H   H2433     1.0  0.85170  0.44850  0.21177  1.0000
  C   C1441     1.0  0.66639  0.16891  0.17063  1.0000
  C   C1442     1.0  0.77053  0.18634  0.20625  1.0000
  H   H2434     1.0  0.78726  0.14646  0.21281  1.0000
  H   H2435     1.0  0.82954  0.43288  0.19960  1.0000
  H   H2436     1.0  0.69262  0.46911  0.99446  1.0000
  H   H2437     1.0  0.88376  0.41881  0.21357  1.0000
  H   H2438     1.0  0.66413  0.32128  0.00768  1.0000
  C   C1443     1.0  0.98337  0.47604  0.05633  1.0000
  C   C1444     1.0  0.68099  0.47427  0.98483  1.0000
  H   H2439     1.0  0.85952  0.41447  0.21223  1.0000
  N   N103      1.0  0.66222  0.44324  0.99508  1.0000
  C   C1445     1.0  0.66063  0.26280  0.09508  1.0000
  N   N104      1.0  0.75297  0.17670  0.21805  1.0000
  H   H2440     1.0  0.74111  0.14863  0.22478  1.0000
  H   H2441     1.0  0.72038  0.18160  0.22250  1.0000
  H   H2442     1.0  0.65847  0.33550  0.07231  1.0000
  H   H2443     1.0  0.65747  0.30496  0.98002  1.0000
  C   C1446     1.0  0.65796  0.33428  0.10290  1.0000
  S   S401      1.0  0.81220  0.48153  0.13245  1.0000
  H   H2444     1.0  0.87842  0.33715  0.36883  1.0000
  C   C1447     1.0  0.86621  0.98876  0.47419  1.0000
  Fe  Fe199     1.0  0.89610  0.09796  0.45061  1.0000
  H   H2445     1.0  0.79304  0.09233  0.34077  1.0000
  S   S402      1.0  0.86977  0.10522  0.43428  1.0000
  H   H2446     1.0  0.80758  0.09938  0.39829  1.0000
  H   H2447     1.0  0.78848  0.13123  0.39665  1.0000
  C   C1448     1.0  0.96518  0.43156  0.46281  1.0000
  Fe  Fe200     1.0  0.93218  0.10954  0.46254  1.0000
  H   H2448     1.0  0.91130  0.34944  0.37877  1.0000
  S   S403      1.0  0.92929  0.09232  0.43911  1.0000
  H   H2449     1.0  0.88709  0.25244  0.33598  1.0000
  S   S404      1.0  0.93063  0.44728  0.34146  1.0000
  H   H2450     1.0  0.75355  0.19417  0.26202  1.0000
  S   S405      1.0  0.95852  0.40407  0.37827  1.0000
  Fe  Fe201     1.0  0.83618  0.19457  0.36034  1.0000
  S   S406      1.0  0.80666  0.18785  0.37814  1.0000
  S   S407      1.0  0.86711  0.17627  0.36208  1.0000
  Fe  Fe202     1.0  0.81743  0.23467  0.34014  1.0000
  S   S408      1.0  0.78626  0.23144  0.35646  1.0000
  S   S409      1.0  0.82385  0.26121  0.31658  1.0000
  Fe  Fe203     1.0  0.80152  0.21999  0.38292  1.0000
  S   S410      1.0  0.78780  0.22617  0.41356  1.0000
  Fe  Fe204     1.0  0.79362  0.19940  0.35032  1.0000
  S   S411      1.0  0.76840  0.18379  0.34619  1.0000
  S   S412      1.0  0.83194  0.22608  0.36712  1.0000
  S   S413      1.0  0.82381  0.20342  0.33197  1.0000
  Fe  Fe205     1.0  0.68243  0.12934  0.27988  1.0000
  S   S414      1.0  0.70690  0.10857  0.29414  1.0000
  C   C1449     1.0  0.86889  0.18109  0.46520  1.0000
  Fe  Fe206     1.0  0.72811  0.12786  0.27400  1.0000
  S   S415      1.0  0.75647  0.13803  0.27894  1.0000
  S   S416      1.0  0.70318  0.15010  0.26199  1.0000
  Fe  Fe207     1.0  0.89428  0.35238  0.24942  1.0000
  S   S417      1.0  0.88082  0.36695  0.27624  1.0000
  H   H2451     1.0  0.86306  0.20778  0.40587  1.0000
  Fe  Fe208     1.0  0.93427  0.33677  0.26488  1.0000
  S   S418      1.0  0.92348  0.35068  0.29235  1.0000
  H   H2452     1.0  0.97203  0.02817  0.37884  1.0000
  Fe  Fe209     1.0  0.89489  0.33860  0.29356  1.0000
  S   S419      1.0  0.88058  0.32251  0.32273  1.0000
  Fe  Fe210     1.0  0.91062  0.37744  0.27236  1.0000
  S   S420      1.0  0.91076  0.41036  0.27253  1.0000
  S   S421      1.0  0.90632  0.32297  0.26728  1.0000
  S   S422      1.0  0.92347  0.36467  0.24443  1.0000
  C   C1450     1.0  0.69255  0.03909  0.23283  1.0000
  C   C1451     1.0  0.75048  0.19689  0.24667  1.0000
  C   C1452     1.0  0.97485  0.46450  0.46037  1.0000
  H   H2453     1.0  0.89145  0.40512  0.35691  1.0000
  H   H2454     1.0  0.77565  0.11461  0.37166  1.0000
  C   C1453     1.0  0.77891  0.13901  0.38568  1.0000
  S   S423      1.0  0.68347  0.11141  0.25594  1.0000
  H   H2455     1.0  0.66787  0.02264  0.32426  1.0000
  C   C1454     1.0  0.66456  0.08699  0.35620  1.0000
  H   H2456     1.0  0.79036  0.10716  0.31731  1.0000
  C   C1455     1.0  0.70813  0.02188  0.26716  1.0000
  C   C1456     1.0  0.70165  0.00962  0.25638  1.0000
  H   H2457     1.0  0.71411  0.01514  0.28049  1.0000
  H   H2458     1.0  0.76737  0.16766  0.24401  1.0000
  C   C1457     1.0  0.83969  0.27801  0.31871  1.0000
  C   C1458     1.0  0.84473  0.29273  0.30257  1.0000
  C   C1459     1.0  0.85743  0.30628  0.30363  1.0000
  C   C1460     1.0  0.86485  0.30547  0.32100  1.0000
  C   C1461     1.0  0.85962  0.29091  0.33728  1.0000
  C   C1462     1.0  0.84725  0.27706  0.33607  1.0000
  H   H2459     1.0  0.83893  0.29359  0.28910  1.0000
  H   H2460     1.0  0.86130  0.31750  0.29103  1.0000
  H   H2461     1.0  0.86536  0.29021  0.35074  1.0000
  H   H2462     1.0  0.84359  0.26571  0.34852  1.0000
  C   C1463     1.0  0.76470  0.17281  0.32640  1.0000
  C   C1464     1.0  0.77898  0.17159  0.30929  1.0000
  C   C1465     1.0  0.77609  0.16110  0.29479  1.0000
  C   C1466     1.0  0.75873  0.15214  0.29702  1.0000
  C   C1467     1.0  0.74420  0.15390  0.31385  1.0000
  C   C1468     1.0  0.74725  0.16407  0.32849  1.0000
  H   H2463     1.0  0.79246  0.17826  0.30748  1.0000
  H   H2464     1.0  0.78744  0.15978  0.28184  1.0000
  H   H2465     1.0  0.73080  0.14706  0.31577  1.0000
  H   H2466     1.0  0.73609  0.16499  0.34164  1.0000
  C   C1469     1.0  0.82895  0.23562  0.45412  1.0000
  H   H2467     1.0  0.86614  0.35394  0.34979  1.0000
  C   C1470     1.0  0.79863  0.22491  0.44944  1.0000
  C   C1471     1.0  0.80396  0.22952  0.42896  1.0000
  C   C1472     1.0  0.82173  0.23738  0.42109  1.0000
  C   C1473     1.0  0.83393  0.24084  0.43365  1.0000
  H   H2468     1.0  0.78480  0.21896  0.45562  1.0000
  H   H2469     1.0  0.82582  0.24125  0.40536  1.0000
  H   H2470     1.0  0.84748  0.24727  0.42749  1.0000
  C   C1474     1.0  0.81124  0.22766  0.46201  1.0000
  H   H2471     1.0  0.92857  0.34200  0.33636  1.0000
  H   H2472     1.0  0.88667  0.40714  0.32650  1.0000
  H   H2473     1.0  0.96251  0.41713  0.47140  1.0000
  C   C1475     1.0  0.88236  0.00396  0.44199  1.0000
  Fe  Fe211     1.0  0.70965  0.09187  0.26859  1.0000
  C   C1476     1.0  0.92637  0.02559  0.41490  1.0000
  N   N105      1.0  0.89841  0.37262  0.35676  1.0000
  C   C1477     1.0  0.92632  0.43619  0.32228  1.0000
  C   C1478     1.0  0.91234  0.44713  0.31061  1.0000
  C   C1479     1.0  0.90794  0.43897  0.29538  1.0000
  C   C1480     1.0  0.91695  0.41949  0.29205  1.0000
  C   C1481     1.0  0.93088  0.40831  0.30379  1.0000
  C   C1482     1.0  0.93592  0.41684  0.31868  1.0000
  H   H2474     1.0  0.89725  0.44772  0.28630  1.0000
  H   H2475     1.0  0.93794  0.39329  0.30113  1.0000
  H   H2476     1.0  0.94687  0.40838  0.32760  1.0000
  H   H2477     1.0  0.82027  0.27501  0.37727  1.0000
  N   N106      1.0  0.89657  0.22734  0.31953  1.0000
  C   C1483     1.0  0.83671  0.13954  0.34528  1.0000
  H   H2478     1.0  0.90157  0.21315  0.36196  1.0000
  C   C1484     1.0  0.88503  0.16396  0.43637  1.0000
  C   C1485     1.0  0.86975  0.12467  0.41403  1.0000
  C   C1486     1.0  0.88760  0.13037  0.40286  1.0000
  C   C1487     1.0  0.88678  0.14610  0.38673  1.0000
  C   C1488     1.0  0.86813  0.15625  0.38194  1.0000
  C   C1489     1.0  0.85042  0.15037  0.39311  1.0000
  C   C1490     1.0  0.85121  0.13457  0.40898  1.0000
  H   H2479     1.0  0.90199  0.12262  0.40661  1.0000
  H   H2480     1.0  0.90059  0.15047  0.37808  1.0000
  H   H2481     1.0  0.83606  0.15783  0.38951  1.0000
  H   H2482     1.0  0.83738  0.13017  0.41756  1.0000
  H   H2483     1.0  0.98289  0.08526  0.45927  1.0000
  C   C1491     1.0  0.92032  0.33759  0.35136  1.0000
  S   S424      1.0  0.96242  0.45090  0.37940  1.0000
  H   H2484     1.0  0.92106  0.17908  0.31023  1.0000
  H   H2485     1.0  0.88846  0.01739  0.43312  1.0000
  H   H2486     1.0  0.98200  0.47967  0.38771  1.0000
  C   C1492     1.0  0.87826  0.20533  0.41002  1.0000
  C   C1493     1.0  0.93187  0.03525  0.42858  1.0000
  C   C1494     1.0  0.94209  0.02386  0.44345  1.0000
  C   C1495     1.0  0.94671  0.00287  0.44468  1.0000
  C   C1496     1.0  0.94072  0.99319  0.43136  1.0000
  H   H2487     1.0  0.92831  0.05150  0.42754  1.0000
  H   H2488     1.0  0.82484  0.16519  0.44552  1.0000
  C   C1497     1.0  0.69365  0.01818  0.23926  1.0000
  H   H2489     1.0  0.83387  0.09318  0.38837  1.0000
  C   C1498     1.0  0.90328  0.39208  0.36058  1.0000
  H   H2490     1.0  0.92272  0.23962  0.30268  1.0000
  H   H2491     1.0  0.82899  0.09960  0.35628  1.0000
  H   H2492     1.0  0.89219  0.20329  0.43530  1.0000
  H   H2493     1.0  0.65866  0.13501  0.35352  1.0000
  C   C1499     1.0  0.91093  0.19350  0.30642  1.0000
  C   C1500     1.0  0.70660  0.04283  0.26100  1.0000
  S   S425      1.0  0.71335  0.05774  0.27597  1.0000
  H   H2494     1.0  0.89562  0.99184  0.44235  1.0000
  H   H2495     1.0  0.98300  0.41684  0.27135  1.0000
  C   C1501     1.0  0.89687  0.23740  0.33691  1.0000
  H   H2496     1.0  0.91747  0.38042  0.38728  1.0000
  H   H2497     1.0  0.84611  0.12667  0.35311  1.0000
  C   C1502     1.0  0.90669  0.23976  0.30152  1.0000
  C   C1503     1.0  0.87498  0.22612  0.31862  1.0000
  C   C1504     1.0  0.89691  0.26212  0.29742  1.0000
  H   H2498     1.0  0.67551  0.03355  0.29944  1.0000
  C   C1505     1.0  0.87000  0.22482  0.29832  1.0000
  H   H2499     1.0  0.90760  0.23336  0.28795  1.0000
  H   H2500     1.0  0.86987  0.21304  0.32920  1.0000
  H   H2501     1.0  0.86486  0.23967  0.32346  1.0000
  H   H2502     1.0  0.90005  0.27111  0.30782  1.0000
  H   H2503     1.0  0.90343  0.26897  0.28245  1.0000
  H   H2504     1.0  0.88045  0.26384  0.29798  1.0000
  H   H2505     1.0  0.95453  0.99400  0.45621  1.0000
  H   H2506     1.0  0.84227  0.01932  0.45799  1.0000
  H   H2507     1.0  0.67357  0.09613  0.34414  1.0000
  H   H2508     1.0  0.88269  0.21847  0.28780  1.0000
  H   H2509     1.0  0.86287  0.23982  0.29146  1.0000
  N   N107      1.0  0.79060  0.29268  0.37627  1.0000
  C   C1506     1.0  0.78180  0.27442  0.38772  1.0000
  C   C1507     1.0  0.81185  0.29004  0.38038  1.0000
  C   C1508     1.0  0.79121  0.29222  0.35474  1.0000
  C   C1509     1.0  0.77741  0.31144  0.38263  1.0000
  C   C1510     1.0  0.76012  0.27309  0.38548  1.0000
  C   C1511     1.0  0.79925  0.30971  0.33990  1.0000
  C   C1512     1.0  0.78652  0.33127  0.37746  1.0000
  H   H2510     1.0  0.79150  0.26027  0.38367  1.0000
  H   H2511     1.0  0.78135  0.27349  0.40378  1.0000
  H   H2512     1.0  0.82079  0.30087  0.37045  1.0000
  H   H2513     1.0  0.80035  0.27784  0.35061  1.0000
  H   H2514     1.0  0.77593  0.29247  0.35153  1.0000
  H   H2515     1.0  0.76325  0.31447  0.37627  1.0000
  H   H2516     1.0  0.77243  0.30898  0.39888  1.0000
  H   H2517     1.0  0.74918  0.28655  0.38921  1.0000
  H   H2518     1.0  0.75924  0.27019  0.37067  1.0000
  H   H2519     1.0  0.75518  0.25990  0.39596  1.0000
  H   H2520     1.0  0.83009  0.29020  0.40249  1.0000
  H   H2521     1.0  0.78880  0.32415  0.34082  1.0000
  H   H2522     1.0  0.80011  0.30641  0.32480  1.0000
  H   H2523     1.0  0.81466  0.31151  0.34104  1.0000
  H   H2524     1.0  0.77692  0.34301  0.36858  1.0000
  H   H2525     1.0  0.80199  0.33003  0.36912  1.0000
  H   H2526     1.0  0.78657  0.33730  0.39111  1.0000
  H   H2527     1.0  0.91784  0.20068  0.29183  1.0000
  H   H2528     1.0  0.89626  0.18928  0.30572  1.0000
  C   C1513     1.0  0.97208  0.39222  0.26396  1.0000
  C   C1514     1.0  0.87729  0.20157  0.43253  1.0000
  N   N108      1.0  0.87088  0.18195  0.44321  1.0000
  H   H2529     1.0  0.87164  0.05033  0.45182  1.0000
  H   H2530     1.0  0.88815  0.19296  0.40292  1.0000
  H   H2531     1.0  0.78100  0.15508  0.38164  1.0000
  C   C1515     1.0  0.85034  0.18139  0.43864  1.0000
  H   H2532     1.0  0.90487  0.46205  0.31328  1.0000
  C   C1516     1.0  0.78893  0.10793  0.33323  1.0000
  H   H2533     1.0  0.88334  0.39102  0.31070  1.0000
  H   H2534     1.0  0.97138  0.99897  0.40347  1.0000
  H   H2535     1.0  0.90717  0.33102  0.35012  1.0000
  S   S426      1.0  0.95813  0.41666  0.43147  1.0000
  H   H2536     1.0  0.69782  0.06750  0.23873  1.0000
  C   C1517     1.0  0.88880  0.01425  0.47140  1.0000
  H   H2537     1.0  0.91329  0.37672  0.32658  1.0000
  H   H2538     1.0  0.86144  0.04273  0.43289  1.0000
  S   S427      1.0  0.95379  0.13191  0.45636  1.0000
  H   H2539     1.0  0.84529  0.05604  0.45107  1.0000
  H   H2540     1.0  0.86695  0.38342  0.36671  1.0000
  C   C1518     1.0  0.96669  0.45427  0.43188  1.0000
  C   C1519     1.0  0.69897  0.05140  0.24367  1.0000
  H   H2541     1.0  0.92942  0.36135  0.36126  1.0000
  H   H2542     1.0  0.77268  0.13897  0.35722  1.0000
  H   H2543     1.0  0.86715  0.39123  0.33386  1.0000
  C   C1520     1.0  0.81478  0.10483  0.36599  1.0000
  H   H2544     1.0  0.65839  0.09948  0.30692  1.0000
  H   H2545     1.0  0.86697  0.21440  0.43844  1.0000
  H   H2546     1.0  0.84291  0.15334  0.34564  1.0000
  C   C1521     1.0  0.96340  0.43554  0.44282  1.0000
  H   H2547     1.0  0.85458  0.00874  0.42881  1.0000
  H   H2548     1.0  0.80585  0.09245  0.36759  1.0000
  C   C1522     1.0  0.86902  0.35194  0.36510  1.0000
  H   H2549     1.0  0.67212  0.00727  0.30552  1.0000
  H   H2550     1.0  0.96511  0.45759  0.41661  1.0000
  C   C1523     1.0  0.89813  0.37469  0.33502  1.0000
  H   H2551     1.0  0.85419  0.35148  0.37479  1.0000
  C   C1524     1.0  0.98524  0.00579  0.40098  1.0000
  H   H2552     1.0  0.79781  0.13720  0.32717  1.0000
  C   C1525     1.0  0.87822  0.36946  0.36887  1.0000
  S   S428      1.0  0.73274  0.10953  0.24939  1.0000
  H   H2553     1.0  0.80642  0.30643  0.40588  1.0000
  H   H2554     1.0  0.88389  0.16268  0.42111  1.0000
  C   C1526     1.0  0.83949  0.16397  0.45055  1.0000
  C   C1527     1.0  0.78237  0.12874  0.36722  1.0000
  H   H2555     1.0  0.80802  0.27938  0.41257  1.0000
  C   C1528     1.0  0.88462  0.18994  0.47260  1.0000
  H   H2556     1.0  0.87566  0.21995  0.35812  1.0000
  C   C1529     1.0  0.91487  0.35565  0.36287  1.0000
  C   C1530     1.0  0.88979  0.22582  0.35742  1.0000
  H   H2557     1.0  0.85120  0.18013  0.42289  1.0000
  H   H2558     1.0  0.80641  0.15603  0.34755  1.0000
  Fe  Fe212     1.0  0.95631  0.43345  0.35776  1.0000
  H   H2559     1.0  0.91750  0.39562  0.35100  1.0000
  C   C1531     1.0  0.90880  0.20649  0.32264  1.0000
  H   H2560     1.0  0.87676  0.99694  0.41481  1.0000
  H   H2561     1.0  0.90208  0.19724  0.33627  1.0000
  H   H2562     1.0  0.88689  0.23624  0.36842  1.0000
  Fe  Fe213     1.0  0.70615  0.13059  0.23886  1.0000
  C   C1532     1.0  0.93049  0.00451  0.41649  1.0000
  C   C1533     1.0  0.90569  0.39258  0.38192  1.0000
  H   H2563     1.0  0.89493  0.36074  0.33108  1.0000
  H   H2564     1.0  0.97214  0.40123  0.29196  1.0000
  H   H2565     1.0  0.82344  0.11857  0.38903  1.0000
  C   C1534     1.0  0.81991  0.10421  0.38658  1.0000
  C   C1535     1.0  0.88282  0.39210  0.32640  1.0000
  C   C1536     1.0  0.85512  0.02439  0.46221  1.0000
  H   H2566     1.0  0.89127  0.39203  0.39222  1.0000
  H   H2567     1.0  0.92429  0.20747  0.32474  1.0000
  H   H2568     1.0  0.81450  0.14576  0.37009  1.0000
  H   H2569     1.0  0.87909  0.36658  0.38484  1.0000
  H   H2570     1.0  0.89702  0.02525  0.46055  1.0000
  C   C1537     1.0  0.98653  0.32826  0.25629  1.0000
  C   C1538     1.0  0.81452  0.14206  0.35541  1.0000
  C   C1539     1.0  0.90754  0.16231  0.43752  1.0000
  H   H2571     1.0  0.77282  0.11365  0.33821  1.0000
  H   H2572     1.0  0.81807  0.11682  0.32779  1.0000
  H   H2573     1.0  0.83836  0.13804  0.32957  1.0000
  C   C1540     1.0  0.81386  0.29167  0.40156  1.0000
  H   H2574     1.0  0.91849  0.03441  0.40338  1.0000
  H   H2575     1.0  0.91230  0.24042  0.33691  1.0000
  C   C1541     1.0  0.75301  0.17629  0.23966  1.0000
  H   H2576     1.0  0.76299  0.13914  0.39297  1.0000
  C   C1542     1.0  0.85885  0.04437  0.44865  1.0000
  C   C1543     1.0  0.98768  0.36146  0.30593  1.0000
  Fe  Fe214     1.0  0.92992  0.06575  0.46336  1.0000
  S   S429      1.0  0.94906  0.03554  0.46073  1.0000
  S   S430      1.0  0.92241  0.99238  0.40020  1.0000
  C   C1544     1.0  0.98621  0.48113  0.31613  1.0000
  H   H2577     1.0  0.94753  0.47810  0.30738  1.0000
  H   H2578     1.0  0.83998  0.19573  0.44105  1.0000
  Fe  Fe215     1.0  0.96795  0.42102  0.39863  1.0000
  S   S431      1.0  0.89886  0.11783  0.47173  1.0000
  H   H2579     1.0  0.91353  0.17664  0.43249  1.0000
  H   H2580     1.0  0.91653  0.15207  0.42728  1.0000
  N   N109      1.0  0.80376  0.12444  0.35658  1.0000
  C   C1545     1.0  0.80288  0.12228  0.33570  1.0000
  S   S432      1.0  0.96477  0.31703  0.26508  1.0000
  H   H2581     1.0  0.88465  0.21940  0.40389  1.0000
  H   H2582     1.0  0.66017  0.00432  0.27917  1.0000
  H   H2583     1.0  0.93064  0.32541  0.35898  1.0000
  H   H2584     1.0  0.85836  0.21495  0.30054  1.0000
  H   H2585     1.0  0.91045  0.40715  0.38241  1.0000
  H   H2586     1.0  0.70284  0.99358  0.26132  1.0000
  C   C1546     1.0  0.97227  0.46876  0.44063  1.0000
  H   H2587     1.0  0.73478  0.20499  0.24721  1.0000
  S   S433      1.0  0.84577  0.23820  0.46923  1.0000
  H   H2588     1.0  0.88042  0.14972  0.44495  1.0000
  H   H2589     1.0  0.96847  0.37692  0.27023  1.0000
  H   H2590     1.0  0.97192  0.36808  0.30435  1.0000
  S   S434      1.0  0.87153  0.35519  0.22888  1.0000
  H   H2591     1.0  0.91071  0.15595  0.45253  1.0000
  H   H2592     1.0  0.84806  0.14890  0.44815  1.0000
  H   H2593     1.0  0.74086  0.16828  0.24883  1.0000
  H   H2594     1.0  0.66816  0.10455  0.37740  1.0000
  H   H2595     1.0  0.96057  0.47398  0.33725  1.0000
  C   C1547     1.0  0.98745  0.34324  0.23972  1.0000
  H   H2596     1.0  0.83600  0.16483  0.46651  1.0000
  H   H2597     1.0  0.97431  0.34875  0.23268  1.0000
  H   H2598     1.0  0.91221  0.98744  0.46767  1.0000
  H   H2599     1.0  0.66723  0.18443  0.23283  1.0000
  C   C1548     1.0  0.98240  0.40070  0.27767  1.0000
  H   H2600     1.0  0.76120  0.20662  0.23770  1.0000
  N   N110      1.0  0.87308  0.00781  0.46251  1.0000
  H   H2601     1.0  0.66614  0.03761  0.26924  1.0000
  H   H2602     1.0  0.95753  0.40218  0.26204  1.0000
  S   S435      1.0  0.98452  0.48197  0.46996  1.0000
  H   H2603     1.0  0.98123  0.39192  0.24912  1.0000
  H   H2604     1.0  0.67505  0.07334  0.36134  1.0000
  C   C1549     1.0  0.86855  0.99771  0.43002  1.0000
  C   C1550     1.0  0.98674  0.01828  0.38017  1.0000
  H   H2605     1.0  0.77313  0.13660  0.23607  1.0000
  H   H2606     1.0  0.98975  0.00870  0.36849  1.0000
  H   H2607     1.0  0.98220  0.01678  0.41148  1.0000
  H   H2608     1.0  0.90028  0.18358  0.46705  1.0000
  H   H2609     1.0  0.86905  0.16524  0.47292  1.0000
  C   C1551     1.0  0.97103  0.12684  0.47294  1.0000
  H   H2610     1.0  0.85409  0.18970  0.47109  1.0000
  C   C1552     1.0  0.97099  0.44600  0.47157  1.0000
  H   H2611     1.0  0.98272  0.46895  0.30945  1.0000
  H   H2612     1.0  0.85441  0.98446  0.46763  1.0000
  H   H2613     1.0  0.66598  0.15900  0.24385  1.0000
  S   S436      1.0  0.89647  0.06974  0.47299  1.0000
  C   C1553     1.0  0.66611  0.02275  0.30883  1.0000
  H   H2614     1.0  0.88253  0.20666  0.46875  1.0000
  H   H2615     1.0  0.98847  0.34478  0.30849  1.0000
  S   S437      1.0  0.98830  0.42889  0.34256  1.0000
  H   H2616     1.0  0.65760  0.07467  0.26462  1.0000
  H   H2617     1.0  0.86488  0.98237  0.43602  1.0000
  S   S438      1.0  0.68412  0.00342  0.22609  1.0000
  C   C1554     1.0  0.98982  0.13331  0.46718  1.0000
  H   H2618     1.0  0.99005  0.00534  0.44118  1.0000
  H   H2619     1.0  0.94638  0.39985  0.69250  1.0000
  C   C1555     1.0  0.66248  0.07645  0.55941  1.0000
  H   H2620     1.0  0.84464  0.45245  0.60911  1.0000
  H   H2621     1.0  0.68773  0.03956  0.55255  1.0000
  Fe  Fe216     1.0  0.70712  0.14229  0.62510  1.0000
  S   S439      1.0  0.70224  0.11766  0.65106  1.0000
  S   S440      1.0  0.73485  0.15707  0.62232  1.0000
  Fe  Fe217     1.0  0.69466  0.10064  0.62967  1.0000
  S   S441      1.0  0.70844  0.06875  0.62454  1.0000
  C   C1556     1.0  0.97784  0.37280  0.58752  1.0000
  H   H2622     1.0  0.68393  0.07008  0.53173  1.0000
  S   S442      1.0  0.70186  0.12421  0.60353  1.0000
  S   S443      1.0  0.67496  0.15818  0.62984  1.0000
  H   H2623     1.0  0.94003  0.14411  0.52087  1.0000
  H   H2624     1.0  0.77049  0.11729  0.59452  1.0000
  H   H2625     1.0  0.97057  0.14432  0.55959  1.0000
  H   H2626     1.0  0.97255  0.38240  0.59920  1.0000
  C   C1557     1.0  0.67422  0.01505  0.64490  1.0000
  Fe  Fe218     1.0  0.90884  0.30956  0.60847  1.0000
  S   S444      1.0  0.88746  0.33822  0.61313  1.0000
  S   S445      1.0  0.90287  0.28115  0.59936  1.0000
  Fe  Fe219     1.0  0.94363  0.32476  0.62083  1.0000
  S   S446      1.0  0.92495  0.35454  0.62635  1.0000
  C   C1558     1.0  0.85949  0.38911  0.63354  1.0000
  Fe  Fe220     1.0  0.90039  0.33654  0.64065  1.0000
  S   S447      1.0  0.88098  0.34036  0.67019  1.0000
  Fe  Fe221     1.0  0.91386  0.35386  0.59842  1.0000
  S   S448      1.0  0.91118  0.38034  0.57403  1.0000
  S   S449      1.0  0.91984  0.30651  0.63728  1.0000
  S   S450      1.0  0.93439  0.32540  0.59172  1.0000
  Fe  Fe222     1.0  0.83352  0.24285  0.54221  1.0000
  S   S451      1.0  0.81161  0.24428  0.52157  1.0000
  S   S452      1.0  0.83196  0.27010  0.55712  1.0000
  Fe  Fe223     1.0  0.85247  0.20010  0.53670  1.0000
  S   S453      1.0  0.83253  0.19780  0.51570  1.0000
  S   S454      1.0  0.87630  0.17550  0.54766  1.0000
  Fe  Fe224     1.0  0.83787  0.22916  0.50219  1.0000
  C   C1559     1.0  0.93325  0.16035  0.51907  1.0000
  Fe  Fe225     1.0  0.80772  0.21284  0.53676  1.0000
  S   S455      1.0  0.77711  0.20291  0.54210  1.0000
  S   S456      1.0  0.86019  0.23024  0.52154  1.0000
  S   S457      1.0  0.82729  0.21259  0.55900  1.0000
  C   C1560     1.0  0.66612  0.03358  0.65146  1.0000
  C   C1561     1.0  0.88320  0.27879  0.58717  1.0000
  C   C1562     1.0  0.86700  0.29437  0.58434  1.0000
  C   C1563     1.0  0.85145  0.29153  0.57507  1.0000
  C   C1564     1.0  0.85204  0.27322  0.56833  1.0000
  C   C1565     1.0  0.86828  0.25771  0.57105  1.0000
  C   C1566     1.0  0.88369  0.26047  0.58052  1.0000
  H   H2627     1.0  0.86643  0.30852  0.58940  1.0000
  H   H2628     1.0  0.83897  0.30362  0.57301  1.0000
  H   H2629     1.0  0.86892  0.24353  0.56600  1.0000
  H   H2630     1.0  0.89611  0.24833  0.58269  1.0000
  H   H2631     1.0  0.79536  0.10809  0.59978  1.0000
  C   C1567     1.0  0.87010  0.39750  0.69884  1.0000
  C   C1568     1.0  0.88312  0.39649  0.68080  1.0000
  C   C1569     1.0  0.88699  0.37890  0.67204  1.0000
  C   C1570     1.0  0.87744  0.36238  0.68106  1.0000
  C   C1571     1.0  0.86471  0.36327  0.69925  1.0000
  C   C1572     1.0  0.88394  0.42290  0.62389  1.0000
  H   H2632     1.0  0.89014  0.40944  0.67355  1.0000
  H   H2633     1.0  0.89705  0.37827  0.65818  1.0000
  H   H2634     1.0  0.86262  0.00071  0.50238  1.0000
  H   H2635     1.0  0.82762  0.41488  0.61604  1.0000
  C   C1573     1.0  0.74633  0.16976  0.59987  1.0000
  C   C1574     1.0  0.76418  0.17726  0.59937  1.0000
  C   C1575     1.0  0.77382  0.18740  0.58175  1.0000
  C   C1576     1.0  0.76556  0.19028  0.56454  1.0000
  C   C1577     1.0  0.74771  0.18280  0.56505  1.0000
  C   C1578     1.0  0.73816  0.17249  0.58262  1.0000
  H   H2636     1.0  0.77057  0.17517  0.61269  1.0000
  H   H2637     1.0  0.78762  0.19295  0.58147  1.0000
  H   H2638     1.0  0.74123  0.18497  0.55177  1.0000
  H   H2639     1.0  0.72442  0.16679  0.58284  1.0000
  C   C1579     1.0  0.69475  0.04847  0.63242  1.0000
  C   C1580     1.0  0.67633  0.05029  0.64519  1.0000
  C   C1581     1.0  0.70268  0.03000  0.62570  1.0000
  C   C1582     1.0  0.97949  0.35035  0.63706  1.0000
  H   H2640     1.0  0.71697  0.02848  0.61588  1.0000
  C   C1583     1.0  0.84141  0.37765  0.64061  1.0000
  H   H2641     1.0  0.97508  0.28488  0.66498  1.0000
  C   C1584     1.0  0.85773  0.39139  0.59877  1.0000
  H   H2642     1.0  0.89723  0.10257  0.55591  1.0000
  H   H2643     1.0  0.94963  0.43429  0.54080  1.0000
  H   H2644     1.0  0.82675  0.38781  0.64057  1.0000
  H   H2645     1.0  0.81247  0.22085  0.61519  1.0000
  H   H2646     1.0  0.70263  0.08355  0.54582  1.0000
  H   H2647     1.0  0.78229  0.13263  0.60513  1.0000
  H   H2648     1.0  0.67942  0.04584  0.58651  1.0000
  C   C1585     1.0  0.92647  0.39853  0.57329  1.0000
  C   C1586     1.0  0.93158  0.40201  0.59057  1.0000
  H   H2649     1.0  0.92899  0.40766  0.54191  1.0000
  H   H2650     1.0  0.92681  0.39311  0.60446  1.0000
  C   C1587     1.0  0.95339  0.31014  0.67466  1.0000
  H   H2651     1.0  0.95768  0.13437  0.54481  1.0000
  C   C1588     1.0  0.84285  0.44003  0.60169  1.0000
  C   C1589     1.0  0.88984  0.11557  0.54711  1.0000
  H   H2652     1.0  0.92094  0.39548  0.69323  1.0000
  H   H2653     1.0  0.97092  0.35887  0.59271  1.0000
  Fe  Fe226     1.0  0.66930  0.13768  0.61050  1.0000
  H   H2654     1.0  0.87025  0.37838  0.59802  1.0000
  C   C1590     1.0  0.87076  0.14930  0.52440  1.0000
  H   H2655     1.0  0.91704  0.00389  0.48266  1.0000
  C   C1591     1.0  0.93294  0.41026  0.55533  1.0000
  N   N111      1.0  0.81433  0.13690  0.56970  1.0000
  C   C1592     1.0  0.81571  0.15386  0.55248  1.0000
  C   C1593     1.0  0.81830  0.14450  0.58723  1.0000
  C   C1594     1.0  0.79321  0.13186  0.57354  1.0000
  C   C1595     1.0  0.82974  0.11911  0.56411  1.0000
  C   C1596     1.0  0.80928  0.15033  0.53360  1.0000
  C   C1597     1.0  0.83908  0.15088  0.58519  1.0000
  C   C1598     1.0  0.78525  0.12181  0.59448  1.0000
  C   C1599     1.0  0.83273  0.10049  0.58009  1.0000
  H   H2656     1.0  0.80638  0.16812  0.55660  1.0000
  H   H2657     1.0  0.83136  0.15720  0.54802  1.0000
  H   H2658     1.0  0.81673  0.13325  0.60079  1.0000
  H   H2659     1.0  0.80675  0.15774  0.59067  1.0000
  H   H2660     1.0  0.78203  0.14581  0.57068  1.0000
  H   H2661     1.0  0.79168  0.12187  0.56322  1.0000
  H   H2662     1.0  0.82585  0.11335  0.55174  1.0000
  H   H2663     1.0  0.84475  0.12359  0.55787  1.0000
  H   H2664     1.0  0.79344  0.14774  0.53604  1.0000
  H   H2665     1.0  0.81010  0.16415  0.52246  1.0000
  H   H2666     1.0  0.81950  0.13784  0.52699  1.0000
  H   H2667     1.0  0.84057  0.16470  0.57423  1.0000
  H   H2668     1.0  0.84075  0.15468  0.59944  1.0000
  H   H2669     1.0  0.85161  0.13860  0.58154  1.0000
  H   H2670     1.0  0.82176  0.09027  0.58059  1.0000
  H   H2671     1.0  0.83199  0.10419  0.59489  1.0000
  H   H2672     1.0  0.84820  0.09206  0.57653  1.0000
  H   H2673     1.0  0.89384  0.13668  0.56476  1.0000
  H   H2674     1.0  0.88702  0.41313  0.63781  1.0000
  H   H2675     1.0  0.68476  0.12010  0.56630  1.0000
  C   C1600     1.0  0.97995  0.11240  0.50504  1.0000
  H   H2676     1.0  0.95128  0.11243  0.49689  1.0000
  H   H2677     1.0  0.91478  0.21800  0.52731  1.0000
  C   C1601     1.0  0.88265  0.11315  0.53052  1.0000
  C   C1602     1.0  0.66040  0.99717  0.55173  1.0000
  H   H2678     1.0  0.93397  0.15471  0.48909  1.0000
  H   H2679     1.0  0.91719  0.19499  0.54434  1.0000
  C   C1603     1.0  0.87957  0.41059  0.60932  1.0000
  N   N112      1.0  0.85946  0.40336  0.61423  1.0000
  H   H2680     1.0  0.98574  0.02466  0.50556  1.0000
  Fe  Fe227     1.0  0.90162  0.08929  0.49320  1.0000
  C   C1604     1.0  0.79526  0.24801  0.60153  1.0000
  H   H2681     1.0  0.77536  0.30765  0.59504  1.0000
  C   C1605     1.0  0.90275  0.30921  0.71073  1.0000
  H   H2682     1.0  0.85474  0.43914  0.58865  1.0000
  H   H2683     1.0  0.69771  0.11879  0.54191  1.0000
  H   H2684     1.0  0.88185  0.02262  0.48386  1.0000
  H   H2685     1.0  0.94621  0.42029  0.60349  1.0000
  H   H2686     1.0  0.76680  0.28820  0.61397  1.0000
  N   N113      1.0  0.92142  0.42186  0.72230  1.0000
  C   C1606     1.0  0.66831  0.07687  0.53690  1.0000
  H   H2687     1.0  0.98234  0.37767  0.64679  1.0000
  C   C1607     1.0  0.77801  0.27904  0.58459  1.0000
  H   H2688     1.0  0.67014  0.06447  0.65048  1.0000
  S   S458      1.0  0.96306  0.44807  0.57222  1.0000
  H   H2689     1.0  0.93935  0.20161  0.50123  1.0000
  H   H2690     1.0  0.89880  0.98759  0.49246  1.0000
  C   C1608     1.0  0.94918  0.42906  0.57210  1.0000
  H   H2691     1.0  0.92059  0.16113  0.53167  1.0000
  H   H2692     1.0  0.96415  0.17860  0.54217  1.0000
  C   C1609     1.0  0.84183  0.42023  0.61660  1.0000
  N   N114      1.0  0.77758  0.25667  0.59096  1.0000
  C   C1610     1.0  0.96182  0.28733  0.67673  1.0000
  C   C1611     1.0  0.78032  0.24747  0.57249  1.0000
  H   H2693     1.0  0.80958  0.25132  0.59188  1.0000
  C   C1612     1.0  0.75787  0.25391  0.60436  1.0000
  C   C1613     1.0  0.76453  0.25634  0.55890  1.0000
  H   H2694     1.0  0.84193  0.37008  0.65603  1.0000
  C   C1614     1.0  0.75043  0.23351  0.60599  1.0000
  H   H2695     1.0  0.90683  0.43020  0.69644  1.0000
  H   H2696     1.0  0.78046  0.23096  0.57558  1.0000
  H   H2697     1.0  0.79534  0.24929  0.56353  1.0000
  H   H2698     1.0  0.79130  0.28167  0.57303  1.0000
  C   C1615     1.0  0.94258  0.41746  0.59002  1.0000
  H   H2699     1.0  0.75855  0.25618  0.61952  1.0000
  H   H2700     1.0  0.87163  0.43550  0.62711  1.0000
  H   H2701     1.0  0.96010  0.34880  0.67636  1.0000
  H   H2702     1.0  0.74890  0.25749  0.56699  1.0000
  H   H2703     1.0  0.89184  0.39738  0.60853  1.0000
  H   H2704     1.0  0.79947  0.21596  0.59749  1.0000
  H   H2705     1.0  0.79356  0.28845  0.60522  1.0000
  H   H2706     1.0  0.67208  0.11453  0.54818  1.0000
  H   H2707     1.0  0.74230  0.22950  0.62114  1.0000
  H   H2708     1.0  0.76231  0.22054  0.60325  1.0000
  H   H2709     1.0  0.73913  0.23486  0.59621  1.0000
  C   C1616     1.0  0.92458  0.16424  0.49974  1.0000
  H   H2710     1.0  0.76730  0.27135  0.55063  1.0000
  H   H2711     1.0  0.94570  0.43884  0.71961  1.0000
  C   C1617     1.0  0.68981  0.05530  0.57657  1.0000
  H   H2712     1.0  0.85736  0.35049  0.70639  1.0000
  H   H2713     1.0  0.90728  0.46320  0.70551  1.0000
  H   H2714     1.0  0.96675  0.31782  0.67233  1.0000
  C   C1618     1.0  0.69938  0.04303  0.55985  1.0000
  H   H2715     1.0  0.76464  0.28650  0.57766  1.0000
  H   H2716     1.0  0.79420  0.25518  0.61475  1.0000
  H   H2717     1.0  0.65940  0.05888  0.60994  1.0000
  H   H2718     1.0  0.89094  0.30050  0.70970  1.0000
  H   H2719     1.0  0.70677  0.08839  0.56832  1.0000
  H   H2720     1.0  0.66455  0.17339  0.67304  1.0000
  C   C1619     1.0  0.86113  0.38072  0.70819  1.0000
  H   H2721     1.0  0.96340  0.35424  0.63772  1.0000
  H   H2722     1.0  0.88203  0.41971  0.59453  1.0000
  H   H2723     1.0  0.84398  0.41417  0.57645  1.0000
  S   S459      1.0  0.88565  0.08897  0.52426  1.0000
  H   H2724     1.0  0.76589  0.24633  0.54775  1.0000
  S   S460      1.0  0.66148  0.99416  0.65342  1.0000
  H   H2725     1.0  0.69881  0.99915  0.62672  1.0000
  H   H2726     1.0  0.71078  0.05045  0.54896  1.0000
  H   H2727     1.0  0.97837  0.05523  0.47989  1.0000
  H   H2728     1.0  0.70735  0.02825  0.56628  1.0000
  H   H2729     1.0  0.89779  0.42957  0.61738  1.0000
  H   H2730     1.0  0.84229  0.36542  0.63190  1.0000
  H   H2731     1.0  0.85756  0.39172  0.56789  1.0000
  C   C1620     1.0  0.88795  0.13485  0.55207  1.0000
  H   H2732     1.0  0.70184  0.05563  0.58513  1.0000
  H   H2733     1.0  0.82830  0.44489  0.59611  1.0000
  C   C1621     1.0  0.85685  0.98979  0.49594  1.0000
  C   C1622     1.0  0.79812  0.22519  0.60919  1.0000
  H   H2734     1.0  0.85985  0.39738  0.64568  1.0000
  H   H2735     1.0  0.66792  0.13123  0.72006  1.0000
  H   H2736     1.0  0.65802  0.99005  0.70193  1.0000
  H   H2737     1.0  0.84356  0.38486  0.60252  1.0000
  H   H2738     1.0  0.98868  0.40329  0.54573  1.0000
  C   C1623     1.0  0.98417  0.18013  0.50357  1.0000
  H   H2739     1.0  0.87332  0.37743  0.63296  1.0000
  C   C1624     1.0  0.93117  0.40692  0.68953  1.0000
  C   C1625     1.0  0.96605  0.11662  0.49198  1.0000
  H   H2740     1.0  0.68203  0.08528  0.59802  1.0000
  H   H2741     1.0  0.83972  0.42464  0.63148  1.0000
  H   H2742     1.0  0.94968  0.20453  0.52140  1.0000
  C   C1626     1.0  0.85772  0.40277  0.57763  1.0000
  H   H2743     1.0  0.93094  0.43757  0.69301  1.0000
  H   H2744     1.0  0.74553  0.26572  0.59928  1.0000
  H   H2745     1.0  0.96770  0.41200  0.70775  1.0000
  H   H2746     1.0  0.96273  0.04115  0.51148  1.0000
  C   C1627     1.0  0.77840  0.29126  0.60088  1.0000
  H   H2747     1.0  0.78600  0.22127  0.62151  1.0000
  C   C1628     1.0  0.69465  0.08924  0.55948  1.0000
  C   C1629     1.0  0.68659  0.11187  0.55368  1.0000
  H   H2748     1.0  0.66500  0.09248  0.52894  1.0000
  H   H2749     1.0  0.86348  0.16226  0.51557  1.0000
  H   H2750     1.0  0.87147  0.40963  0.57156  1.0000
  N   N115      1.0  0.94848  0.17332  0.51993  1.0000
  H   H2751     1.0  0.94512  0.35721  0.69819  1.0000
  Fe  Fe228     1.0  0.98261  0.45902  0.54416  1.0000
  C   C1630     1.0  0.92067  0.30505  0.69417  1.0000
  C   C1631     1.0  0.93980  0.19552  0.51703  1.0000
  H   H2752     1.0  0.94140  0.16910  0.55173  1.0000
  H   H2753     1.0  0.98111  0.14375  0.53445  1.0000
  C   C1632     1.0  0.87310  0.13001  0.51913  1.0000
  H   H2754     1.0  0.86731  0.12812  0.50642  1.0000
  H   H2755     1.0  0.85109  0.38133  0.72210  1.0000
  C   C1633     1.0  0.87830  0.15170  0.54084  1.0000
  C   C1634     1.0  0.94461  0.42530  0.55468  1.0000
  C   C1635     1.0  0.95481  0.16780  0.53994  1.0000
  C   C1636     1.0  0.96611  0.16958  0.50381  1.0000
  H   H2756     1.0  0.93247  0.41207  0.67341  1.0000
  H   H2757     1.0  0.65841  0.06825  0.53210  1.0000
  C   C1637     1.0  0.69241  0.01337  0.63182  1.0000
  C   C1638     1.0  0.91850  0.20129  0.52848  1.0000
  H   H2758     1.0  0.90698  0.19640  0.52209  1.0000
  H   H2759     1.0  0.94751  0.31419  0.66049  1.0000
  Fe  Fe229     1.0  0.66970  0.13236  0.65429  1.0000
  H   H2760     1.0  0.97272  0.44268  0.48688  1.0000
  H   H2761     1.0  0.84937  0.02822  0.47726  1.0000
  H   H2762     1.0  0.93920  0.36849  0.67441  1.0000
  H   H2763     1.0  0.67427  0.00338  0.54722  1.0000
  S   S461      1.0  0.86525  0.42010  0.70896  1.0000
  C   C1639     1.0  0.90502  0.99714  0.47890  1.0000
  C   C1640     1.0  0.96666  0.14632  0.54463  1.0000
  C   C1641     1.0  0.94459  0.35400  0.68341  1.0000
  S   S462      1.0  0.97644  0.31527  0.62452  1.0000
  H   H2764     1.0  0.97824  0.07149  0.49665  1.0000
  S   S463      1.0  0.66172  0.11294  0.63513  1.0000
  H   H2765     1.0  0.90706  0.30376  0.72546  1.0000
  H   H2766     1.0  0.92326  0.18019  0.49261  1.0000
  H   H2767     1.0  0.92144  0.33498  0.72383  1.0000
  H   H2768     1.0  0.94967  0.29746  0.71558  1.0000
  H   H2769     1.0  0.91578  0.34490  0.69386  1.0000
  H   H2770     1.0  0.66306  0.10096  0.58603  1.0000
  C   C1642     1.0  0.92987  0.33913  0.68457  1.0000
  N   N116      1.0  0.93756  0.31717  0.69131  1.0000
  C   C1643     1.0  0.94712  0.31385  0.70951  1.0000
  H   H2771     1.0  0.96702  0.28129  0.69099  1.0000
  H   H2772     1.0  0.97596  0.10454  0.51978  1.0000
  C   C1644     1.0  0.97939  0.03999  0.50914  1.0000
  C   C1645     1.0  0.92227  0.42517  0.70026  1.0000
  H   H2773     1.0  0.91442  0.30715  0.68027  1.0000
  H   H2774     1.0  0.68341  0.99349  0.69325  1.0000
  H   H2775     1.0  0.92537  0.34106  0.66981  1.0000
  H   H2776     1.0  0.97184  0.38047  0.57406  1.0000
  H   H2777     1.0  0.92624  0.28862  0.69767  1.0000
  H   H2778     1.0  0.89541  0.32518  0.70957  1.0000
  H   H2779     1.0  0.95077  0.27847  0.67430  1.0000
  N   N117      1.0  0.67918  0.07643  0.57067  1.0000
  H   H2780     1.0  0.98337  0.04177  0.52322  1.0000
  H   H2781     1.0  0.96246  0.31819  0.70572  1.0000
  H   H2782     1.0  0.90909  0.16050  0.50296  1.0000
  C   C1646     1.0  0.90733  0.46003  0.72158  1.0000
  S   S464      1.0  0.93522  0.08246  0.48591  1.0000
  C   C1647     1.0  0.67014  0.08499  0.58937  1.0000
  H   H2783     1.0  0.97175  0.15322  0.50442  1.0000
  C   C1648     1.0  0.95945  0.40800  0.72285  1.0000
  H   H2784     1.0  0.88235  0.18660  0.48892  1.0000
  C   C1649     1.0  0.98570  0.05667  0.49221  1.0000
  H   H2785     1.0  0.98810  0.40801  0.57565  1.0000
  H   H2786     1.0  0.96144  0.17443  0.48908  1.0000
  H   H2787     1.0  0.84020  0.99387  0.49754  1.0000
  H   H2788     1.0  0.67611  0.98441  0.71873  1.0000
  H   H2789     1.0  0.80720  0.22369  0.47778  1.0000
  H   H2790     1.0  0.98001  0.19680  0.50139  1.0000
  C   C1650     1.0  0.98959  0.33217  0.63108  1.0000
  C   C1651     1.0  0.67375  0.98356  0.70375  1.0000
  H   H2791     1.0  0.92086  0.46446  0.72500  1.0000
  H   H2792     1.0  0.95580  0.39263  0.72469  1.0000
  H   H2793     1.0  0.92535  0.38897  0.72523  1.0000
  H   H2794     1.0  0.72270  0.24581  0.87371  1.0000
  H   H2795     1.0  0.92836  0.39640  0.75877  1.0000
  C   C1652     1.0  0.66122  0.35478  0.96280  1.0000
  H   H2796     1.0  0.67874  0.29173  0.75768  1.0000
  H   H2797     1.0  0.72618  0.26467  0.90137  1.0000
  H   H2798     1.0  0.91026  0.38074  0.75874  1.0000
  C   C1653     1.0  0.68464  0.23084  0.92776  1.0000
  C   C1654     1.0  0.76700  0.42602  0.80218  1.0000
  H   H2799     1.0  0.90164  0.40627  0.76195  1.0000
  H   H2800     1.0  0.74406  0.47781  0.83133  1.0000
  H   H2801     1.0  0.93195  0.31398  0.74006  1.0000
  Fe  Fe230     1.0  0.69503  0.33413  0.87939  1.0000
  H   H2802     1.0  0.90013  0.40092  0.72799  1.0000
  S   S465      1.0  0.70773  0.32198  0.90771  1.0000
  Fe  Fe231     1.0  0.70146  0.35162  0.83553  1.0000
  C   C1655     1.0  0.76050  0.47242  0.82839  1.0000
  S   S466      1.0  0.71925  0.36501  0.80680  1.0000
  H   H2803     1.0  0.76696  0.42451  0.77152  1.0000
  H   H2804     1.0  0.78516  0.39893  0.83053  1.0000
  Fe  Fe232     1.0  0.67541  0.31812  0.85053  1.0000
  S   S467      1.0  0.66963  0.28841  0.84382  1.0000
  S   S468      1.0  0.69160  0.36587  0.86301  1.0000
  S   S469      1.0  0.70754  0.32008  0.85197  1.0000
  Fe  Fe233     1.0  0.82391  0.40423  0.77820  1.0000
  S   S470      1.0  0.85706  0.39957  0.76583  1.0000
  S   S471      1.0  0.81016  0.37809  0.79761  1.0000
  Fe  Fe234     1.0  0.85846  0.42659  0.77917  1.0000
  S   S472      1.0  0.88220  0.42648  0.79749  1.0000
  S   S473      1.0  0.82624  0.42943  0.79365  1.0000
  C   C1656     1.0  0.66401  0.13868  0.78045  1.0000
  H   H2805     1.0  0.65863  0.34466  0.92714  1.0000
  C   C1657     1.0  0.66658  0.29835  0.76862  1.0000
  C   C1658     1.0  0.72178  0.26237  0.87259  1.0000
  H   H2806     1.0  0.78376  0.42287  0.80021  1.0000
  C   C1659     1.0  0.73595  0.44197  0.82227  1.0000
  H   H2807     1.0  0.68602  0.37442  0.76157  1.0000
  S   S474      1.0  0.85216  0.44898  0.75259  1.0000
  C   C1660     1.0  0.74471  0.36800  0.80429  1.0000
  C   C1661     1.0  0.75399  0.37810  0.78650  1.0000
  C   C1662     1.0  0.77418  0.38099  0.78406  1.0000
  C   C1663     1.0  0.78519  0.37382  0.79945  1.0000
  C   C1664     1.0  0.77607  0.36322  0.81703  1.0000
  C   C1665     1.0  0.75583  0.36050  0.81954  1.0000
  H   H2808     1.0  0.74551  0.38379  0.77458  1.0000
  H   H2809     1.0  0.78122  0.38877  0.77033  1.0000
  H   H2810     1.0  0.78459  0.35742  0.82891  1.0000
  H   H2811     1.0  0.74888  0.35257  0.83325  1.0000
  C   C1666     1.0  0.70981  0.33707  0.92499  1.0000
  C   C1667     1.0  0.70588  0.35819  0.92122  1.0000
  C   C1668     1.0  0.70721  0.36957  0.93563  1.0000
  C   C1669     1.0  0.71215  0.35996  0.95403  1.0000
  H   H2812     1.0  0.67673  0.34734  0.79107  1.0000
  C   C1670     1.0  0.71518  0.32749  0.94322  1.0000
  H   H2813     1.0  0.70178  0.36576  0.90724  1.0000
  H   H2814     1.0  0.70405  0.38589  0.93263  1.0000
  S   S475      1.0  0.66343  0.32956  0.87933  1.0000
  Fe  Fe235     1.0  0.66077  0.36041  0.86114  1.0000
  H   H2815     1.0  0.74468  0.43916  0.78237  1.0000
  Fe  Fe236     1.0  0.81967  0.45005  0.76603  1.0000
  H   H2816     1.0  0.71124  0.25552  0.93822  1.0000
  H   H2817     1.0  0.71844  0.31119  0.94623  1.0000
  C   C1671     1.0  0.67890  0.26944  0.89031  1.0000
  H   H2818     1.0  0.94540  0.33455  0.73046  1.0000
  H   H2819     1.0  0.73625  0.31791  0.74429  1.0000
  H   H2820     1.0  0.68034  0.10788  0.78775  1.0000
  H   H2821     1.0  0.66565  0.28795  0.78281  1.0000
  H   H2822     1.0  0.67417  0.35062  0.95138  1.0000
  H   H2823     1.0  0.73722  0.26600  0.86719  1.0000
  H   H2824     1.0  0.76836  0.44906  0.77538  1.0000
  C   C1672     1.0  0.76671  0.42758  0.83733  1.0000
  C   C1673     1.0  0.89570  0.46017  0.77466  1.0000
  C   C1674     1.0  0.89724  0.44567  0.79142  1.0000
  C   C1675     1.0  0.91115  0.44632  0.80348  1.0000
  C   C1676     1.0  0.92344  0.46143  0.79877  1.0000
  C   C1677     1.0  0.66735  0.43787  0.97458  1.0000
  H   H2825     1.0  0.88461  0.46021  0.76567  1.0000
  H   H2826     1.0  0.91232  0.43518  0.81657  1.0000
  H   H2827     1.0  0.68896  0.35559  0.74599  1.0000
  H   H2828     1.0  0.75631  0.43213  0.85062  1.0000
  C   C1678     1.0  0.66206  0.11964  0.73198  1.0000
  N   N118      1.0  0.68903  0.32212  0.77536  1.0000
  S   S476      1.0  0.79778  0.47859  0.77140  1.0000
  C   C1679     1.0  0.68783  0.34382  0.77784  1.0000
  C   C1680     1.0  0.69186  0.30882  0.79469  1.0000
  C   C1681     1.0  0.70547  0.31580  0.75892  1.0000
  C   C1682     1.0  0.90525  0.43788  0.73042  1.0000
  H   H2829     1.0  0.75996  0.46702  0.79958  1.0000
  C   C1683     1.0  0.71166  0.30822  0.80213  1.0000
  C   C1684     1.0  0.72472  0.32565  0.75506  1.0000
  H   H2830     1.0  0.72916  0.41463  0.81363  1.0000
  H   H2831     1.0  0.69978  0.31906  0.74463  1.0000
  H   H2832     1.0  0.70228  0.34676  0.78069  1.0000
  H   H2833     1.0  0.67881  0.14411  0.77768  1.0000
  H   H2834     1.0  0.67933  0.31346  0.80646  1.0000
  H   H2835     1.0  0.69128  0.29280  0.79413  1.0000
  H   H2836     1.0  0.71030  0.29912  0.76146  1.0000
  H   H2837     1.0  0.69639  0.27659  0.94903  1.0000
  C   C1685     1.0  0.71374  0.26975  0.89259  1.0000
  C   C1686     1.0  0.66771  0.12107  0.75185  1.0000
  H   H2838     1.0  0.73007  0.44988  0.83520  1.0000
  H   H2839     1.0  0.75888  0.39703  0.83860  1.0000
  C   C1687     1.0  0.68787  0.27370  0.92140  1.0000
  H   H2840     1.0  0.72030  0.33127  0.97171  1.0000
  H   H2841     1.0  0.71076  0.29926  0.81713  1.0000
  S   S477      1.0  0.71223  0.37477  0.97223  1.0000
  C   C1688     1.0  0.66892  0.31983  0.77095  1.0000
  H   H2842     1.0  0.70880  0.42834  0.82803  1.0000
  C   C1689     1.0  0.66665  0.41572  0.97315  1.0000
  H   H2843     1.0  0.73155  0.32453  0.76832  1.0000
  H   H2844     1.0  0.84393  0.46605  0.80128  1.0000
  H   H2845     1.0  0.67825  0.28583  0.88437  1.0000
  H   H2846     1.0  0.71252  0.27037  0.86127  1.0000
  C   C1690     1.0  0.72536  0.42328  0.82611  1.0000
  C   C1691     1.0  0.71624  0.33885  0.95771  1.0000
  C   C1692     1.0  0.84255  0.47929  0.80885  1.0000
  N   N119      1.0  0.69442  0.26288  0.90378  1.0000
  H   H2847     1.0  0.71393  0.23465  0.91196  1.0000
  H   H2848     1.0  0.76600  0.46545  0.84235  1.0000
  H   H2849     1.0  0.72464  0.30018  0.79299  1.0000
  C   C1693     1.0  0.69815  0.24015  0.90931  1.0000
  C   C1694     1.0  0.70376  0.27135  0.93491  1.0000
  Fe  Fe237     1.0  0.84831  0.42209  0.74001  1.0000
  H   H2850     1.0  0.65724  0.15918  0.73326  1.0000
  C   C1695     1.0  0.76602  0.45819  0.81278  1.0000
  H   H2851     1.0  0.90459  0.43673  0.74648  1.0000
  H   H2852     1.0  0.72844  0.41326  0.83988  1.0000
  C   C1696     1.0  0.77131  0.40426  0.84055  1.0000
  C   C1697     1.0  0.90850  0.47473  0.76950  1.0000
  H   H2853     1.0  0.78275  0.45584  0.80857  1.0000
  H   H2854     1.0  0.69673  0.23276  0.89688  1.0000
  C   C1698     1.0  0.66698  0.11811  0.79396  1.0000
  H   H2855     1.0  0.66786  0.35868  0.97460  1.0000
  H   H2856     1.0  0.68342  0.29019  0.91656  1.0000
  H   H2857     1.0  0.68751  0.21414  0.92867  1.0000
  S   S478      1.0  0.81480  0.42502  0.75131  1.0000
  C   C1699     1.0  0.76120  0.43554  0.78188  1.0000
  N   N120      1.0  0.75868  0.43808  0.81872  1.0000
  H   H2858     1.0  0.71196  0.28656  0.88970  1.0000
  H   H2859     1.0  0.76218  0.41102  0.80570  1.0000
  H   H2860     1.0  0.67719  0.31593  0.96410  1.0000
  H   H2861     1.0  0.77435  0.39868  0.85578  1.0000
  H   H2862     1.0  0.72188  0.34179  0.74845  1.0000
  H   H2863     1.0  0.68430  0.12090  0.74944  1.0000
  H   H2864     1.0  0.73022  0.45235  0.80962  1.0000
  H   H2865     1.0  0.78132  0.43221  0.83788  1.0000
  H   H2866     1.0  0.98693  0.47669  0.88519  1.0000
  H   H2867     1.0  0.71547  0.28095  0.92826  1.0000
  H   H2868     1.0  0.67922  0.15673  0.74387  1.0000
  S   S479      1.0  0.67010  0.34871  0.83240  1.0000
  H   H2869     1.0  0.93396  0.46203  0.80824  1.0000
  H   H2870     1.0  0.96989  0.40694  0.73344  1.0000
  C   C1700     1.0  0.91391  0.39627  0.75398  1.0000
  H   H2871     1.0  0.89409  0.47008  0.72832  1.0000
  H   H2872     1.0  0.89018  0.43561  0.72845  1.0000
  C   C1701     1.0  0.68166  0.35984  0.76048  1.0000
  H   H2873     1.0  0.71440  0.32335  0.80339  1.0000
  H   H2874     1.0  0.66573  0.32953  0.75694  1.0000
  H   H2875     1.0  0.66838  0.23578  0.92755  1.0000
  H   H2876     1.0  0.68314  0.26145  0.87732  1.0000
  C   C1702     1.0  0.92219  0.47558  0.78167  1.0000
  H   H2877     1.0  0.68250  0.44090  0.96718  1.0000
  H   H2878     1.0  0.98114  0.47242  0.92084  1.0000
  H   H2879     1.0  0.66505  0.36254  0.76118  1.0000
  H   H2880     1.0  0.66992  0.12058  0.80829  1.0000
  H   H2881     1.0  0.65907  0.17894  0.76887  1.0000
  H   H2882     1.0  0.65972  0.19046  0.74376  1.0000
  H   H2883     1.0  0.93940  0.42597  0.74329  1.0000
  C   C1703     1.0  0.66252  0.15774  0.74753  1.0000
  H   H2884     1.0  0.68824  0.23408  0.94148  1.0000
  H   H2885     1.0  0.67418  0.26877  0.93084  1.0000
  H   H2886     1.0  0.67483  0.41224  0.95857  1.0000
  H   H2887     1.0  0.66649  0.31832  0.93607  1.0000
  H   H2888     1.0  0.85202  0.47444  0.82056  1.0000
  H   H2889     1.0  0.66545  0.10661  0.76152  1.0000
  C   C1704     1.0  0.91515  0.40168  0.73146  1.0000
  H   H2890     1.0  0.65911  0.38588  0.94814  1.0000
  C   C1705     1.0  0.93564  0.32507  0.72667  1.0000
  H   H2891     1.0  0.66139  0.25319  0.83187  1.0000
  H   H2892     1.0  0.68688  0.47110  0.96969  1.0000
  H   H2893     1.0  0.66921  0.10477  0.72760  1.0000
  C   C1706     1.0  0.94106  0.42431  0.72751  1.0000
  N   N121      1.0  0.65683  0.13912  0.76130  1.0000
  C   C1707     1.0  0.65717  0.26604  0.89891  1.0000
  H   H2894     1.0  0.65689  0.44764  0.96502  1.0000
  H   H2895     1.0  0.74433  0.84786  0.21389  1.0000
  Fe  Fe238     1.0  0.90969  0.55384  0.00377  1.0000
  S   S480      1.0  0.93014  0.54083  0.02587  1.0000
  S   S481      1.0  0.87849  0.56949  0.01382  1.0000
  Fe  Fe239     1.0  0.95434  0.55263  0.00276  1.0000
  C   C1708     1.0  0.95025  0.59799  0.05760  1.0000
  Fe  Fe240     1.0  0.93672  0.51388  0.01025  1.0000
  H   H2896     1.0  0.78403  0.69948  0.13515  1.0000
  S   S482      1.0  0.91451  0.52608  0.98945  1.0000
  Fe  Fe241     1.0  0.85733  0.61804  0.10300  1.0000
  S   S483      1.0  0.83860  0.59416  0.10442  1.0000
  S   S484      1.0  0.87835  0.62670  0.07502  1.0000
  Fe  Fe242     1.0  0.84360  0.62257  0.14626  1.0000
  S   S485      1.0  0.82394  0.59844  0.15083  1.0000
  S   S486      1.0  0.84171  0.63797  0.17301  1.0000
  Fe  Fe243     1.0  0.84971  0.58100  0.13273  1.0000
  S   S487      1.0  0.86368  0.54791  0.13714  1.0000
  Fe  Fe244     1.0  0.81451  0.61376  0.12198  1.0000
  S   S488      1.0  0.78194  0.61696  0.11786  1.0000
  S   S489      1.0  0.87016  0.60381  0.13041  1.0000
  S   S490      1.0  0.83242  0.63896  0.11838  1.0000
  H   H2897     1.0  0.77417  0.69646  0.17010  1.0000
  C   C1709     1.0  0.75483  0.68404  0.03083  1.0000
  C   C1710     1.0  0.93764  0.58457  0.07355  1.0000
  H   H2898     1.0  0.88030  0.49134  0.07497  1.0000
  H   H2899     1.0  0.70555  0.61887  0.03073  1.0000
  C   C1711     1.0  0.83992  0.49774  0.07706  1.0000
  C   C1712     1.0  0.75632  0.66091  0.03218  1.0000
  C   C1713     1.0  0.76640  0.71568  0.01413  1.0000
  H   H2900     1.0  0.80045  0.70005  0.02729  1.0000
  C   C1714     1.0  0.78798  0.69142  0.03443  1.0000
  Fe  Fe245     1.0  0.70710  0.70380  0.06746  1.0000
  S   S491      1.0  0.70439  0.73051  0.04339  1.0000
  S   S492      1.0  0.73467  0.70038  0.08207  1.0000
  Fe  Fe246     1.0  0.67128  0.73474  0.05559  1.0000
  S   S493      1.0  0.91804  0.72297  0.22194  1.0000
  Fe  Fe247     1.0  0.69794  0.70918  0.02559  1.0000
  S   S494      1.0  0.67426  0.70936  0.08096  1.0000
  S   S495      1.0  0.70298  0.68212  0.04880  1.0000
  H   H2901     1.0  0.74650  0.70425  0.15276  1.0000
  H   H2902     1.0  0.67704  0.73195  0.99200  1.0000
  C   C1715     1.0  0.71391  0.88286  0.21752  1.0000
  C   C1716     1.0  0.85749  0.65622  0.19716  1.0000
  H   H2903     1.0  0.71700  0.58633  0.06768  1.0000
  H   H2904     1.0  0.79699  0.69178  0.99549  1.0000
  H   H2905     1.0  0.73106  0.61433  0.08281  1.0000
  C   C1717     1.0  0.75820  0.67276  0.14769  1.0000
  H   H2906     1.0  0.72114  0.63649  0.03168  1.0000
  C   C1718     1.0  0.86064  0.64939  0.17890  1.0000
  C   C1719     1.0  0.87842  0.65215  0.16579  1.0000
  C   C1720     1.0  0.89279  0.66174  0.17087  1.0000
  H   H2907     1.0  0.92065  0.63532  0.10343  1.0000
  H   H2908     1.0  0.74701  0.89971  0.18138  1.0000
  C   C1721     1.0  0.84785  0.49612  0.12911  1.0000
  H   H2909     1.0  0.88105  0.64708  0.15167  1.0000
  H   H2910     1.0  0.90641  0.66395  0.16055  1.0000
  H   H2911     1.0  0.84761  0.54340  0.03299  1.0000
  H   H2912     1.0  0.67758  0.49100  0.98376  1.0000
  C   C1722     1.0  0.76972  0.63954  0.10563  1.0000
  C   C1723     1.0  0.77950  0.65628  0.09853  1.0000
  C   C1724     1.0  0.76864  0.67482  0.09104  1.0000
  C   C1725     1.0  0.74817  0.67649  0.08981  1.0000
  C   C1726     1.0  0.73866  0.65948  0.09590  1.0000
  C   C1727     1.0  0.74934  0.64113  0.10406  1.0000
  H   H2913     1.0  0.79526  0.65511  0.09941  1.0000
  H   H2914     1.0  0.77606  0.68796  0.08637  1.0000
  H   H2915     1.0  0.72284  0.66077  0.09519  1.0000
  H   H2916     1.0  0.74168  0.62827  0.10974  1.0000
  C   C1728     1.0  0.84926  0.53005  0.13459  1.0000
  C   C1729     1.0  0.85901  0.51078  0.13088  1.0000
  H   H2917     1.0  0.66483  0.84576  0.15792  1.0000
  H   H2918     1.0  0.98784  0.50723  0.05230  1.0000
  C   C1730     1.0  0.81709  0.51964  0.13554  1.0000
  C   C1731     1.0  0.82829  0.53457  0.13654  1.0000
  H   H2919     1.0  0.87525  0.50724  0.12933  1.0000
  H   H2920     1.0  0.76698  0.70252  0.97910  1.0000
  H   H2921     1.0  0.80081  0.52304  0.13772  1.0000
  H   H2922     1.0  0.82065  0.54940  0.13938  1.0000
  C   C1732     1.0  0.86966  0.51784  0.04428  1.0000
  C   C1733     1.0  0.88970  0.66852  0.18915  1.0000
  C   C1734     1.0  0.98457  0.54903  0.06201  1.0000
  H   H2923     1.0  0.79178  0.64444  0.14126  1.0000
  S   S496      1.0  0.93326  0.56822  0.98207  1.0000
  H   H2924     1.0  0.71198  0.88770  0.20185  1.0000
  H   H2925     1.0  0.77168  0.65229  0.02986  1.0000
  N   N122      1.0  0.77312  0.69337  0.02061  1.0000
  H   H2926     1.0  0.96412  0.54700  0.04290  1.0000
  H   H2927     1.0  0.74171  0.69096  0.02332  1.0000
  C   C1735     1.0  0.87830  0.58691  0.02943  1.0000
  C   C1736     1.0  0.86021  0.59389  0.04109  1.0000
  C   C1737     1.0  0.86009  0.60637  0.05491  1.0000
  C   C1738     1.0  0.87794  0.61241  0.05671  1.0000
  C   C1739     1.0  0.89576  0.60655  0.04410  1.0000
  C   C1740     1.0  0.89607  0.59339  0.03083  1.0000
  H   H2928     1.0  0.84635  0.58926  0.03978  1.0000
  H   H2929     1.0  0.84611  0.61157  0.06395  1.0000
  H   H2930     1.0  0.90939  0.61193  0.04483  1.0000
  H   H2931     1.0  0.91002  0.58842  0.02156  1.0000
  H   H2932     1.0  0.74791  0.72167  0.04262  1.0000
  H   H2933     1.0  0.74027  0.86594  0.19271  1.0000
  H   H2934     1.0  0.72771  0.61081  0.04272  1.0000
  H   H2935     1.0  0.90808  0.50922  0.05323  1.0000
  C   C1741     1.0  0.96095  0.58792  0.11903  1.0000
  H   H2936     1.0  0.67999  0.64814  0.00189  1.0000
  H   H2937     1.0  0.76721  0.64002  0.18317  1.0000
  H   H2938     1.0  0.68664  0.65079  0.08929  1.0000
  H   H2939     1.0  0.84364  0.48797  0.09081  1.0000
  H   H2940     1.0  0.84249  0.50419  0.19061  1.0000
  H   H2941     1.0  0.83915  0.51909  0.03791  1.0000
  H   H2942     1.0  0.94606  0.61422  0.05867  1.0000
  C   C1742     1.0  0.66691  0.58862  0.07573  1.0000
  H   H2943     1.0  0.75947  0.89754  0.21509  1.0000
  C   C1743     1.0  0.68037  0.60359  0.06306  1.0000
  H   H2944     1.0  0.91320  0.49729  0.07698  1.0000
  H   H2945     1.0  0.94766  0.59616  0.04291  1.0000
  H   H2946     1.0  0.67723  0.63934  0.11337  1.0000
  H   H2947     1.0  0.94359  0.62611  0.08944  1.0000
  H   H2948     1.0  0.87288  0.50142  0.04362  1.0000
  C   C1744     1.0  0.68268  0.72664  0.97806  1.0000
  H   H2949     1.0  0.65918  0.77893  0.21028  1.0000
  S   S497      1.0  0.66456  0.71570  0.03531  1.0000
  N   N123      1.0  0.86626  0.52182  0.06522  1.0000
  C   C1745     1.0  0.79073  0.67133  0.18697  1.0000
  H   H2950     1.0  0.74763  0.66512  0.15958  1.0000
  H   H2951     1.0  0.72531  0.91642  0.19166  1.0000
  H   H2952     1.0  0.95766  0.57419  0.12951  1.0000
  C   C1746     1.0  0.74350  0.89876  0.21363  1.0000
  N   N124      1.0  0.77835  0.67134  0.15404  1.0000
  S   S498      1.0  0.96306  0.52449  0.98914  1.0000
  H   H2953     1.0  0.75982  0.66463  0.13500  1.0000
  H   H2954     1.0  0.85232  0.55079  0.09332  1.0000
  H   H2955     1.0  0.85703  0.55393  0.05741  1.0000
  C   C1747     1.0  0.78796  0.64942  0.15594  1.0000
  C   C1748     1.0  0.68748  0.63624  0.09956  1.0000
  H   H2956     1.0  0.82126  0.66931  0.14556  1.0000
  C   C1749     1.0  0.87196  0.66564  0.20232  1.0000
  C   C1750     1.0  0.74678  0.86334  0.20653  1.0000
  H   H2957     1.0  0.66847  0.81991  0.16880  1.0000
  C   C1751     1.0  0.74125  0.90972  0.19265  1.0000
  C   C1752     1.0  0.77499  0.63446  0.16938  1.0000
  H   H2958     1.0  0.78479  0.61987  0.17336  1.0000
  C   C1753     1.0  0.86773  0.55004  0.08469  1.0000
  H   H2959     1.0  0.77302  0.87038  0.18440  1.0000
  Fe  Fe248     1.0  0.66993  0.69004  0.05972  1.0000
  H   H2960     1.0  0.73975  0.58837  0.08720  1.0000
  H   H2961     1.0  0.83359  0.53054  0.06931  1.0000
  H   H2962     1.0  0.90652  0.52416  0.07236  1.0000
  H   H2963     1.0  0.67261  0.79922  0.19815  1.0000
  C   C1754     1.0  0.78349  0.68455  0.00238  1.0000
  H   H2964     1.0  0.75070  0.74357  0.02453  1.0000
  H   H2965     1.0  0.77719  0.84686  0.19984  1.0000
  C   C1755     1.0  0.70220  0.62870  0.05963  1.0000
  S   S499      1.0  0.70285  0.94456  0.22464  1.0000
  H   H2966     1.0  0.92069  0.63084  0.07900  1.0000
  H   H2967     1.0  0.94324  0.55356  0.10484  1.0000
  H   H2968     1.0  0.84326  0.52175  0.09112  1.0000
  H   H2969     1.0  0.97666  0.54063  0.07484  1.0000
  H   H2970     1.0  0.88335  0.54664  0.05544  1.0000
  C   C1756     1.0  0.97756  0.55252  0.04397  1.0000
  H   H2971     1.0  0.74991  0.92250  0.18897  1.0000
  H   H2972     1.0  0.67018  0.61612  0.05568  1.0000
  C   C1757     1.0  0.71486  0.62302  0.04019  1.0000
  H   H2973     1.0  0.67582  0.66785  0.02881  1.0000
  C   C1758     1.0  0.66533  0.65773  0.02929  1.0000
  H   H2974     1.0  0.78995  0.65537  0.19360  1.0000
  C   C1759     1.0  0.86882  0.54337  0.06465  1.0000
  H   H2975     1.0  0.87150  0.56555  0.08208  1.0000
  H   H2976     1.0  0.76369  0.63118  0.16148  1.0000
  H   H2977     1.0  0.75606  0.68069  0.99211  1.0000
  S   S500      1.0  0.97892  0.56905  0.00500  1.0000
  S   S501      1.0  0.90829  0.68083  0.19446  1.0000
  N   N125      1.0  0.93768  0.58590  0.09480  1.0000
  C   C1760     1.0  0.93126  0.56685  0.10719  1.0000
  H   H2978     1.0  0.95148  0.60157  0.12426  1.0000
  H   H2979     1.0  0.71173  0.63597  0.06636  1.0000
  C   C1761     1.0  0.92269  0.60360  0.10131  1.0000
  H   H2980     1.0  0.82112  0.69119  0.12735  1.0000
  H   H2981     1.0  0.80600  0.66131  0.03049  1.0000
  H   H2982     1.0  0.67735  0.60749  0.10370  1.0000
  H   H2983     1.0  0.75393  0.71809  0.00541  1.0000
  C   C1762     1.0  0.98775  0.56356  0.02747  1.0000
  H   H2984     1.0  0.92906  0.56781  0.12315  1.0000
  C   C1763     1.0  0.79768  0.66990  0.04229  1.0000
  H   H2985     1.0  0.92198  0.58797  0.07036  1.0000
  H   H2986     1.0  0.66785  0.89824  0.16918  1.0000
  N   N126      1.0  0.69345  0.61182  0.07372  1.0000
  H   H2987     1.0  0.90773  0.60329  0.09763  1.0000
  H   H2988     1.0  0.91959  0.60249  0.11763  1.0000
  H   H2989     1.0  0.77132  0.73169  0.03690  1.0000
  C   C1764     1.0  0.82681  0.50034  0.13194  1.0000
  C   C1765     1.0  0.74696  0.69426  0.14187  1.0000
  H   H2990     1.0  0.73116  0.69336  0.14091  1.0000
  S   S502      1.0  0.71469  0.70481  0.99513  1.0000
  H   H2991     1.0  0.77887  0.72265  0.00416  1.0000
  S   S503      1.0  0.67342  0.91409  0.20249  1.0000
  C   C1766     1.0  0.68018  0.61997  0.09130  1.0000
  C   C1767     1.0  0.92740  0.62498  0.09256  1.0000
  C   C1768     1.0  0.85491  0.49169  0.18708  1.0000
  H   H2992     1.0  0.91280  0.55755  0.08875  1.0000
  H   H2993     1.0  0.96665  0.59320  0.05765  1.0000
  H   H2994     1.0  0.76024  0.67710  0.18213  1.0000
  C   C1769     1.0  0.79121  0.68342  0.13789  1.0000
  C   C1770     1.0  0.90345  0.50985  0.06913  1.0000
  H   H2995     1.0  0.86532  0.49831  0.17436  1.0000
  H   H2996     1.0  0.70251  0.58299  0.09105  1.0000
  C   C1771     1.0  0.95872  0.58647  0.09792  1.0000
  C   C1772     1.0  0.77037  0.68662  0.98632  1.0000
  H   H2997     1.0  0.77741  0.86923  0.20916  1.0000
  C   C1773     1.0  0.91151  0.56130  0.10371  1.0000
  C   C1774     1.0  0.85234  0.52702  0.03259  1.0000
  H   H2998     1.0  0.87768  0.50783  0.09214  1.0000
  C   C1775     1.0  0.84538  0.51898  0.07567  1.0000
  H   H2999     1.0  0.88336  0.52369  0.03561  1.0000
  C   C1776     1.0  0.76977  0.86282  0.19987  1.0000
  H   H3000     1.0  0.78066  0.69812  0.04787  1.0000
  H   H3001     1.0  0.75030  0.68763  0.04600  1.0000
  H   H3002     1.0  0.72109  0.59953  0.10560  1.0000
  H   H3003     1.0  0.78747  0.68015  0.19933  1.0000
  H   H3004     1.0  0.94340  0.56885  0.07062  1.0000
  C   C1777     1.0  0.88125  0.50718  0.07612  1.0000
  H   H3005     1.0  0.82353  0.49903  0.07704  1.0000
  H   H3006     1.0  0.87863  0.54033  0.09359  1.0000
  H   H3007     1.0  0.85760  0.52520  0.01691  1.0000
  C   C1778     1.0  0.72598  0.59981  0.08952  1.0000
  H   H3008     1.0  0.90806  0.54761  0.11427  1.0000
  H   H3009     1.0  0.68962  0.59558  0.05110  1.0000
  H   H3010     1.0  0.74903  0.65468  0.04709  1.0000
  C   C1779     1.0  0.81252  0.68433  0.14130  1.0000
  H   H3011     1.0  0.74758  0.65760  0.02173  1.0000
  C   C1780     1.0  0.77504  0.67973  0.17309  1.0000
  H   H3012     1.0  0.79282  0.67759  0.12377  1.0000
  H   H3013     1.0  0.96528  0.59921  0.08830  1.0000
  H   H3014     1.0  0.80641  0.67240  0.17980  1.0000
  H   H3015     1.0  0.80891  0.67098  0.05139  1.0000
  H   H3016     1.0  0.86934  0.67082  0.21639  1.0000
  N   N127      1.0  0.73594  0.87876  0.21945  1.0000
  C   C1781     1.0  0.75869  0.72868  0.03067  1.0000
  H   H3017     1.0  0.78645  0.66139  0.05227  1.0000
  H   H3018     1.0  0.68987  0.64109  0.05579  1.0000
  H   H3019     1.0  0.84379  0.65419  0.20741  1.0000
  H   H3020     1.0  0.81199  0.69425  0.15229  1.0000
  C   C1782     1.0  0.66763  0.64656  0.01397  1.0000
  H   H3021     1.0  0.73535  0.90936  0.22387  1.0000
  H   H3022     1.0  0.80254  0.64691  0.16131  1.0000
  H   H3023     1.0  0.75365  0.70116  0.12699  1.0000
  H   H3024     1.0  0.78959  0.66832  0.00569  1.0000
  H   H3025     1.0  0.89839  0.57331  0.10637  1.0000
  H   H3026     1.0  0.70284  0.63160  0.10312  1.0000
  H   H3027     1.0  0.96908  0.57276  0.09364  1.0000
  C   C1783     1.0  0.70947  0.59470  0.08001  1.0000
  H   H3028     1.0  0.84761  0.48989  0.06456  1.0000
  H   H3029     1.0  0.98739  0.49809  0.03051  1.0000
  H   H3030     1.0  0.97687  0.58910  0.11916  1.0000
  H   H3031     1.0  0.70581  0.89564  0.22527  1.0000
  H   H3032     1.0  0.67580  0.57486  0.08285  1.0000
  C   C1784     1.0  0.65691  0.83267  0.16434  1.0000
  H   H3033     1.0  0.90787  0.48489  0.00723  1.0000
  H   H3034     1.0  0.68714  0.86923  0.22023  1.0000
  Fe  Fe249     1.0  0.91176  0.69151  0.22255  1.0000
  H   H3035     1.0  0.66505  0.62717  0.08763  1.0000
  H   H3036     1.0  0.70976  0.85111  0.21932  1.0000
  H   H3037     1.0  0.86261  0.48663  0.20007  1.0000
  S   S504      1.0  0.93949  0.48360  0.02970  1.0000
  C   C1785     1.0  0.65826  0.79332  0.19978  1.0000
  S   S505      1.0  0.65765  0.62038  0.99411  1.0000
  H   H3038     1.0  0.65844  0.58361  0.06600  1.0000
  H   H3039     1.0  0.65716  0.78902  0.18567  1.0000
  C   C1786     1.0  0.70206  0.86508  0.22516  1.0000
  Fe  Fe250     1.0  0.91932  0.96023  0.41345  1.0000
  S   S506      1.0  0.94234  0.93325  0.40687  1.0000
  N   N128      1.0  0.85345  0.87534  0.44382  1.0000
  Fe  Fe251     1.0  0.89167  0.93566  0.44310  1.0000
  S   S507      1.0  0.91231  0.90640  0.43981  1.0000
  H   H3040     1.0  0.82780  0.87788  0.42867  1.0000
  Fe  Fe252     1.0  0.93723  0.92356  0.43956  1.0000
  Fe  Fe253     1.0  0.91558  0.91829  0.40748  1.0000
  S   S508      1.0  0.91590  0.89536  0.38803  1.0000
  S   S509      1.0  0.91604  0.95161  0.44615  1.0000
  S   S510      1.0  0.89295  0.94638  0.41080  1.0000
  H   H3041     1.0  0.91572  0.89350  0.30411  1.0000
  C   C1787     1.0  0.82032  0.89161  0.46396  1.0000
  H   H3042     1.0  0.90835  0.86781  0.33098  1.0000
  C   C1788     1.0  0.80239  0.84034  0.45907  1.0000
  H   H3043     1.0  0.88276  0.85894  0.43321  1.0000
  H   H3044     1.0  0.72421  0.91674  0.35533  1.0000
  S   S511      1.0  0.98820  0.60107  0.38973  1.0000
  C   C1789     1.0  0.89108  0.84403  0.27162  1.0000
  H   H3045     1.0  0.98799  0.73866  0.28627  1.0000
  H   H3046     1.0  0.97735  0.97622  0.38222  1.0000
  C   C1790     1.0  0.93643  0.50505  0.36498  1.0000
  C   C1791     1.0  0.91679  0.89443  0.28807  1.0000
  H   H3047     1.0  0.95195  0.53831  0.33007  1.0000
  H   H3048     1.0  0.82326  0.90739  0.46044  1.0000
  H   H3049     1.0  0.78586  0.86422  0.44090  1.0000
  C   C1792     1.0  0.98007  0.51190  0.38419  1.0000
  S   S512      1.0  0.97040  0.65300  0.35594  1.0000
  H   H3050     1.0  0.87505  0.90791  0.28263  1.0000
  H   H3051     1.0  0.66757  0.94797  0.30722  1.0000
  Fe  Fe254     1.0  0.91857  0.67917  0.26560  1.0000
  S   S513      1.0  0.92516  0.70941  0.26819  1.0000
  S   S514      1.0  0.91883  0.65279  0.29036  1.0000
  Fe  Fe255     1.0  0.89894  0.72162  0.25213  1.0000
  S   S515      1.0  0.87156  0.74384  0.26283  1.0000
  S   S516      1.0  0.89107  0.69115  0.25153  1.0000
  Fe  Fe256     1.0  0.79850  0.84884  0.33900  1.0000
  S   S517      1.0  0.81465  0.81733  0.34832  1.0000
  S   S518      1.0  0.76680  0.85393  0.33181  1.0000
  Fe  Fe257     1.0  0.83138  0.86892  0.34662  1.0000
  S   S519      1.0  0.84995  0.83942  0.35606  1.0000
  S   S520      1.0  0.84037  0.89893  0.34709  1.0000
  Fe  Fe258     1.0  0.84224  0.82884  0.33049  1.0000
  S   S521      1.0  0.87029  0.81138  0.31459  1.0000
  Fe  Fe259     1.0  0.82121  0.83032  0.37318  1.0000
  S   S522      1.0  0.82491  0.81185  0.40297  1.0000
  S   S523      1.0  0.82579  0.85949  0.31935  1.0000
  S   S524      1.0  0.80287  0.86071  0.36552  1.0000
  Fe  Fe260     1.0  0.70491  0.92997  0.25585  1.0000
  H   H3052     1.0  0.85834  0.88196  0.40184  1.0000
  S   S525      1.0  0.73710  0.91815  0.26112  1.0000
  H   H3053     1.0  0.86769  0.71076  0.29310  1.0000
  H   H3054     1.0  0.85977  0.64754  0.34277  1.0000
  C   C1793     1.0  0.94947  0.50996  0.30843  1.0000
  S   S526      1.0  0.68640  0.95681  0.26853  1.0000
  H   H3055     1.0  0.87183  0.87203  0.27461  1.0000
  C   C1794     1.0  0.75891  0.87112  0.31156  1.0000
  C   C1795     1.0  0.77260  0.88069  0.29709  1.0000
  C   C1796     1.0  0.76566  0.89474  0.28148  1.0000
  C   C1797     1.0  0.74501  0.89954  0.28037  1.0000
  C   C1798     1.0  0.73134  0.88976  0.29466  1.0000
  C   C1799     1.0  0.73832  0.87550  0.31012  1.0000
  H   H3056     1.0  0.78848  0.87736  0.29798  1.0000
  H   H3057     1.0  0.77633  0.90223  0.27043  1.0000
  H   H3058     1.0  0.71541  0.89326  0.29388  1.0000
  H   H3059     1.0  0.72767  0.86802  0.32121  1.0000
  H   H3060     1.0  0.88652  0.87658  0.46205  1.0000
  C   C1800     1.0  0.79621  0.85010  0.44126  1.0000
  C   C1801     1.0  0.80331  0.84169  0.42390  1.0000
  C   C1802     1.0  0.81636  0.82325  0.42432  1.0000
  C   C1803     1.0  0.82258  0.81349  0.44212  1.0000
  C   C1804     1.0  0.81575  0.82209  0.45944  1.0000
  H   H3061     1.0  0.79834  0.84927  0.41031  1.0000
  H   H3062     1.0  0.83261  0.79918  0.44257  1.0000
  H   H3063     1.0  0.75362  0.91707  0.31040  1.0000
  C   C1805     1.0  0.87154  0.76212  0.27768  1.0000
  C   C1806     1.0  0.88935  0.76583  0.28222  1.0000
  C   C1807     1.0  0.88869  0.78091  0.29365  1.0000
  C   C1808     1.0  0.87025  0.79230  0.30070  1.0000
  C   C1809     1.0  0.85241  0.78834  0.29650  1.0000
  C   C1810     1.0  0.85308  0.77333  0.28499  1.0000
  H   H3064     1.0  0.90365  0.75734  0.27660  1.0000
  H   H3065     1.0  0.90257  0.78390  0.29684  1.0000
  H   H3066     1.0  0.83812  0.79703  0.30185  1.0000
  H   H3067     1.0  0.83925  0.77057  0.28148  1.0000
  H   H3068     1.0  0.96627  0.73086  0.26495  1.0000
  C   C1811     1.0  0.95508  0.65301  0.33855  1.0000
  C   C1812     1.0  0.94779  0.67128  0.32746  1.0000
  C   C1813     1.0  0.93689  0.67135  0.31244  1.0000
  C   C1814     1.0  0.93279  0.65319  0.30879  1.0000
  C   C1815     1.0  0.93925  0.63505  0.32053  1.0000
  C   C1816     1.0  0.95046  0.63495  0.33530  1.0000
  H   H3069     1.0  0.95112  0.68532  0.33008  1.0000
  H   H3070     1.0  0.93153  0.68546  0.30387  1.0000
  H   H3071     1.0  0.93576  0.62101  0.31807  1.0000
  H   H3072     1.0  0.95524  0.62090  0.34437  1.0000
  H   H3073     1.0  0.73123  0.85648  0.24568  1.0000
  H   H3074     1.0  0.86731  0.85282  0.29499  1.0000
  C   C1817     1.0  0.71312  0.96696  0.34562  1.0000
  H   H3075     1.0  0.81017  0.88891  0.45456  1.0000
  H   H3076     1.0  0.92345  0.49418  0.31163  1.0000
  H   H3077     1.0  0.97609  0.48706  0.34596  1.0000
  H   H3078     1.0  0.72266  0.93306  0.30112  1.0000
  C   C1818     1.0  0.91540  0.85572  0.32215  1.0000
  H   H3079     1.0  0.84939  0.70303  0.33691  1.0000
  C   C1819     1.0  0.87843  0.67150  0.32976  1.0000
  S   S527      1.0  0.93872  0.67676  0.23673  1.0000
  H   H3080     1.0  0.93308  0.89326  0.28184  1.0000
  C   C1820     1.0  0.89487  0.89689  0.37662  1.0000
  C   C1821     1.0  0.88072  0.91453  0.37460  1.0000
  C   C1822     1.0  0.86407  0.91512  0.36540  1.0000
  C   C1823     1.0  0.86138  0.89800  0.35845  1.0000
  C   C1824     1.0  0.87567  0.88048  0.36034  1.0000
  C   C1825     1.0  0.89240  0.87996  0.36929  1.0000
  H   H3081     1.0  0.88270  0.92778  0.37990  1.0000
  H   H3082     1.0  0.85319  0.92881  0.36381  1.0000
  H   H3083     1.0  0.87412  0.86742  0.35463  1.0000
  H   H3084     1.0  0.90340  0.86634  0.37071  1.0000
  C   C1826     1.0  0.84255  0.86839  0.43020  1.0000
  C   C1827     1.0  0.87684  0.70039  0.30337  1.0000
  H   H3085     1.0  0.89363  0.70544  0.32567  1.0000
  H   H3086     1.0  0.97989  0.67311  0.29847  1.0000
  H   H3087     1.0  0.75690  0.86166  0.26274  1.0000
  H   H3088     1.0  0.69124  0.91193  0.35283  1.0000
  H   H3089     1.0  0.85912  0.91265  0.30525  1.0000
  S   S528      1.0  0.97663  0.71201  0.22939  1.0000
  C   C1828     1.0  0.84000  0.87632  0.46348  1.0000
  C   C1829     1.0  0.75326  0.92691  0.32139  1.0000
  N   N129      1.0  0.86855  0.76741  0.37388  1.0000
  C   C1830     1.0  0.85007  0.76315  0.38867  1.0000
  C   C1831     1.0  0.86251  0.77214  0.35376  1.0000
  C   C1832     1.0  0.87481  0.78594  0.37825  1.0000
  C   C1833     1.0  0.88502  0.74931  0.37593  1.0000
  C   C1834     1.0  0.85237  0.76007  0.41055  1.0000
  C   C1835     1.0  0.85190  0.75633  0.34850  1.0000
  C   C1836     1.0  0.89301  0.79374  0.36447  1.0000
  C   C1837     1.0  0.90065  0.74556  0.35734  1.0000
  H   H3090     1.0  0.83712  0.77550  0.38643  1.0000
  H   H3091     1.0  0.84508  0.74919  0.38667  1.0000
  H   H3092     1.0  0.87561  0.77424  0.34198  1.0000
  H   H3093     1.0  0.85217  0.78686  0.35216  1.0000
  H   H3094     1.0  0.86197  0.79868  0.37817  1.0000
  H   H3095     1.0  0.87881  0.78333  0.39323  1.0000
  H   H3096     1.0  0.89357  0.75020  0.38765  1.0000
  H   H3097     1.0  0.87857  0.73505  0.38098  1.0000
  H   H3098     1.0  0.86580  0.74894  0.41384  1.0000
  C   C1838     1.0  0.83134  0.68052  0.33838  1.0000
  H   H3099     1.0  0.83889  0.75433  0.41974  1.0000
  H   H3100     1.0  0.83575  0.75826  0.35531  1.0000
  H   H3101     1.0  0.85241  0.75867  0.33232  1.0000
  H   H3102     1.0  0.85913  0.74065  0.35314  1.0000
  H   H3103     1.0  0.84402  0.92595  0.43266  1.0000
  H   H3104     1.0  0.89144  0.79641  0.34876  1.0000
  H   H3105     1.0  0.90725  0.78355  0.36694  1.0000
  H   H3106     1.0  0.89394  0.74050  0.34630  1.0000
  H   H3107     1.0  0.91290  0.73321  0.36153  1.0000
  H   H3108     1.0  0.90779  0.75888  0.35023  1.0000
  H   H3109     1.0  0.86763  0.85541  0.40892  1.0000
  C   C1839     1.0  0.96326  0.52427  0.33175  1.0000
  H   H3110     1.0  0.84413  0.86313  0.40030  1.0000
  H   H3111     1.0  0.86558  0.90127  0.44719  1.0000
  C   C1840     1.0  0.93529  0.50534  0.34317  1.0000
  H   H3112     1.0  0.96657  0.67167  0.27119  1.0000
  H   H3113     1.0  0.83783  0.70632  0.31620  1.0000
  H   H3114     1.0  0.89432  0.80857  0.36806  1.0000
  C   C1841     1.0  0.76443  0.91380  0.33769  1.0000
  H   H3115     1.0  0.96019  0.52522  0.46264  1.0000
  C   C1842     1.0  0.75844  0.86633  0.24654  1.0000
  H   H3116     1.0  0.87479  0.89283  0.42438  1.0000
  C   C1843     1.0  0.90804  0.87797  0.28140  1.0000
  H   H3117     1.0  0.70669  0.95200  0.31299  1.0000
  C   C1844     1.0  0.88399  0.71407  0.31495  1.0000
  H   H3118     1.0  0.87670  0.67860  0.34317  1.0000
  H   H3119     1.0  0.78006  0.90808  0.33096  1.0000
  H   H3120     1.0  0.89464  0.67074  0.32332  1.0000
  C   C1845     1.0  0.84613  0.91233  0.42548  1.0000
  C   C1846     1.0  0.84609  0.69441  0.32625  1.0000
  H   H3121     1.0  0.76286  0.93843  0.31382  1.0000
  H   H3122     1.0  0.72548  0.90595  0.33390  1.0000
  H   H3123     1.0  0.87115  0.72397  0.32230  1.0000
  H   H3124     1.0  0.90196  0.88541  0.26773  1.0000
  Fe  Fe261     1.0  0.67523  0.92998  0.22794  1.0000
  C   C1847     1.0  0.98183  0.56193  0.44320  1.0000
  C   C1848     1.0  0.96032  0.52855  0.44665  1.0000
  H   H3125     1.0  0.90985  0.90976  0.28182  1.0000
  H   H3126     1.0  0.91015  0.83870  0.30192  1.0000
  H   H3127     1.0  0.97188  0.65273  0.25563  1.0000
  H   H3128     1.0  0.83102  0.90883  0.42574  1.0000
  H   H3129     1.0  0.67181  0.96818  0.33149  1.0000
  H   H3130     1.0  0.84585  0.67211  0.27700  1.0000
  H   H3131     1.0  0.97283  0.56848  0.43120  1.0000
  H   H3132     1.0  0.92243  0.50058  0.37429  1.0000
  H   H3133     1.0  0.85283  0.77456  0.41534  1.0000
  H   H3134     1.0  0.97109  0.64522  0.28152  1.0000
  H   H3135     1.0  0.70394  0.97195  0.33380  1.0000
  H   H3136     1.0  0.98273  0.59042  0.45262  1.0000
  H   H3137     1.0  0.86704  0.84391  0.45077  1.0000
  H   H3138     1.0  0.89663  0.82944  0.28033  1.0000
  S   S529      1.0  0.86183  0.93951  0.46297  1.0000
  C   C1849     1.0  0.98572  0.91709  0.44652  1.0000
  H   H3139     1.0  0.97906  0.53252  0.41899  1.0000
  C   C1850     1.0  0.86563  0.90085  0.29580  1.0000
  C   C1851     1.0  0.73729  0.87091  0.24081  1.0000
  S   S530      1.0  0.67869  0.91355  0.25845  1.0000
  H   H3140     1.0  0.76787  0.85341  0.23997  1.0000
  H   H3141     1.0  0.85148  0.69627  0.27772  1.0000
  H   H3142     1.0  0.72779  0.88176  0.25026  1.0000
  C   C1852     1.0  0.86085  0.89516  0.43549  1.0000
  H   H3143     1.0  0.96662  0.52234  0.34690  1.0000
  C   C1853     1.0  0.86151  0.67176  0.30123  1.0000
  C   C1854     1.0  0.97570  0.65674  0.26893  1.0000
  C   C1855     1.0  0.90110  0.85089  0.30987  1.0000
  H   H3144     1.0  0.71697  0.98121  0.34827  1.0000
  C   C1856     1.0  0.87152  0.85924  0.44698  1.0000
  N   N130      1.0  0.95477  0.50640  0.32882  1.0000
  H   H3145     1.0  0.70395  0.96032  0.35928  1.0000
  C   C1857     1.0  0.88318  0.86114  0.46315  1.0000
  H   H3146     1.0  0.98947  0.51257  0.43583  1.0000
  H   H3147     1.0  0.90367  0.84967  0.26087  1.0000
  H   H3148     1.0  0.69048  0.93856  0.34736  1.0000
  H   H3149     1.0  0.73791  0.94534  0.35403  1.0000
  H   H3150     1.0  0.96614  0.51387  0.39448  1.0000
  H   H3151     1.0  0.97058  0.55960  0.45679  1.0000
  C   C1858     1.0  0.73325  0.96170  0.29529  1.0000
  H   H3152     1.0  0.88524  0.88933  0.31709  1.0000
  C   C1859     1.0  0.69745  0.92423  0.34202  1.0000
  H   H3153     1.0  0.88049  0.84051  0.26305  1.0000
  H   H3154     1.0  0.93742  0.52027  0.36785  1.0000
  H   H3155     1.0  0.87594  0.66604  0.29210  1.0000
  C   C1860     1.0  0.72276  0.94532  0.30958  1.0000
  H   H3156     1.0  0.98297  0.97464  0.42849  1.0000
  H   H3157     1.0  0.92350  0.51832  0.33906  1.0000
  H   H3158     1.0  0.89783  0.85082  0.46167  1.0000
  C   C1861     1.0  0.72060  0.92032  0.34013  1.0000
  S   S531      1.0  0.97663  0.55284  0.37876  1.0000
  H   H3159     1.0  0.83053  0.66767  0.33119  1.0000
  H   H3160     1.0  0.81582  0.68920  0.33988  1.0000
  C   C1862     1.0  0.98166  0.52848  0.43453  1.0000
  C   C1863     1.0  0.87558  0.64928  0.33671  1.0000
  H   H3161     1.0  0.83526  0.67474  0.35327  1.0000
  H   H3162     1.0  0.85269  0.91688  0.40989  1.0000
  H   H3163     1.0  0.88470  0.64266  0.34851  1.0000
  H   H3164     1.0  0.95352  0.51653  0.44288  1.0000
  H   H3165     1.0  0.92088  0.86621  0.27677  1.0000
  H   H3166     1.0  0.69263  0.92380  0.32789  1.0000
  H   H3167     1.0  0.75746  0.90023  0.34458  1.0000
  H   H3168     1.0  0.88900  0.84387  0.32037  1.0000
  H   H3169     1.0  0.89331  0.72425  0.30436  1.0000
  H   H3170     1.0  0.88142  0.64022  0.32458  1.0000
  C   C1864     1.0  0.84666  0.68254  0.28714  1.0000
  H   H3171     1.0  0.72433  0.96787  0.28324  1.0000
  C   C1865     1.0  0.85408  0.86723  0.40920  1.0000
  H   H3172     1.0  0.89049  0.69345  0.29402  1.0000
  H   H3173     1.0  0.85541  0.65794  0.30884  1.0000
  H   H3174     1.0  0.96275  0.51161  0.29681  1.0000
  H   H3175     1.0  0.93921  0.52464  0.30591  1.0000
  H   H3176     1.0  0.98157  0.95822  0.40404  1.0000
  N   N131      1.0  0.73187  0.93664  0.32790  1.0000
  H   H3177     1.0  0.86639  0.87485  0.31846  1.0000
  Fe  Fe262     1.0  0.68261  0.97028  0.23766  1.0000
  H   H3178     1.0  0.85270  0.89618  0.29140  1.0000
  H   H3179     1.0  0.91966  0.84203  0.33277  1.0000
  H   H3180     1.0  0.76565  0.92250  0.34913  1.0000
  H   H3181     1.0  0.92958  0.85954  0.31278  1.0000
  Fe  Fe263     1.0  0.94373  0.70795  0.23821  1.0000
  N   N132      1.0  0.86535  0.68420  0.31543  1.0000
  H   H3182     1.0  0.83121  0.68641  0.29519  1.0000
  H   H3183     1.0  0.83870  0.85312  0.43645  1.0000
  N   N133      1.0  0.89197  0.86824  0.29590  1.0000
  C   C1866     1.0  0.87956  0.85980  0.28471  1.0000
  C   C1867     1.0  0.87763  0.88289  0.30775  1.0000
  C   C1868     1.0  0.96905  0.48694  0.33302  1.0000
  H   H3184     1.0  0.92909  0.49150  0.34277  1.0000
  H   H3185     1.0  0.98198  0.53139  0.30255  1.0000
  H   H3186     1.0  0.95033  0.54305  0.44291  1.0000
  C   C1869     1.0  0.65697  0.96787  0.32873  1.0000
  C   C1870     1.0  0.73276  0.95255  0.33989  1.0000
  S   S532      1.0  0.96145  0.91297  0.45838  1.0000
  H   H3187     1.0  0.84801  0.88047  0.47409  1.0000
  H   H3188     1.0  0.73413  0.97453  0.30253  1.0000
  H   H3189     1.0  0.74452  0.96201  0.33265  1.0000
  H   H3190     1.0  0.74843  0.95535  0.28813  1.0000
  C   C1871     1.0  0.98306  0.52866  0.31840  1.0000
  H   H3191     1.0  0.93848  0.49614  0.28780  1.0000
  H   H3192     1.0  0.98076  0.91501  0.41767  1.0000
  Fe  Fe264     1.0  0.65990  0.94192  0.26840  1.0000
  C   C1872     1.0  0.98244  0.72638  0.26195  1.0000
  H   H3193     1.0  0.94464  0.97700  0.43223  1.0000
  H   H3194     1.0  0.69894  0.86221  0.24148  1.0000
  C   C1873     1.0  0.93920  0.49353  0.30378  1.0000
  H   H3195     1.0  0.87848  0.97548  0.47341  1.0000
  H   H3196     1.0  0.83586  0.86116  0.46997  1.0000
  C   C1874     1.0  0.98880  0.96516  0.38946  1.0000
  H   H3197     1.0  0.98682  0.54269  0.32170  1.0000
  H   H3198     1.0  0.82053  0.81444  0.47312  1.0000
  C   C1875     1.0  0.98887  0.49253  0.38017  1.0000
  H   H3199     1.0  0.76616  0.87972  0.24306  1.0000
  H   H3200     1.0  0.94920  0.49404  0.36990  1.0000
  H   H3201     1.0  0.97515  0.48302  0.43186  1.0000
  C   C1876     1.0  0.98904  0.52869  0.37473  1.0000
  H   H3202     1.0  0.98991  0.63901  0.30751  1.0000
  Fe  Fe265     1.0  0.70625  0.93976  0.61495  1.0000
  S   S533      1.0  0.69807  0.94041  0.64750  1.0000
  S   S534      1.0  0.73764  0.93599  0.59742  1.0000
  C   C1877     1.0  0.86197  0.65553  0.71771  1.0000
  H   H3203     1.0  0.86318  0.81705  0.57483  1.0000
  C   C1878     1.0  0.65992  0.97896  0.56477  1.0000
  Fe  Fe266     1.0  0.67375  0.96617  0.63931  1.0000
  C   C1879     1.0  0.68801  0.89604  0.56553  1.0000
  Fe  Fe267     1.0  0.67580  0.92046  0.64642  1.0000
  C   C1880     1.0  0.86144  0.92001  0.48307  1.0000
  H   H3204     1.0  0.73500  0.93973  0.55301  1.0000
  S   S535      1.0  0.68570  0.91804  0.61445  1.0000
  Fe  Fe268     1.0  0.82574  0.80736  0.53828  1.0000
  S   S536      1.0  0.82438  0.82899  0.55895  1.0000
  S   S537      1.0  0.84163  0.77506  0.54440  1.0000
  Fe  Fe269     1.0  0.80575  0.83992  0.50864  1.0000
  S   S538      1.0  0.80308  0.86415  0.52719  1.0000
  H   H3205     1.0  0.97834  0.62335  0.54656  1.0000
  Fe  Fe270     1.0  0.83434  0.85009  0.53198  1.0000
  S   S539      1.0  0.85996  0.86604  0.53229  1.0000
  Fe  Fe271     1.0  0.79317  0.84102  0.55246  1.0000
  S   S540      1.0  0.76780  0.84743  0.57741  1.0000
  S   S541      1.0  0.83806  0.82783  0.51134  1.0000
  S   S542      1.0  0.79344  0.81750  0.53378  1.0000
  C   C1881     1.0  0.90579  0.78645  0.55926  1.0000
  N   N134      1.0  0.69736  0.91219  0.55073  1.0000
  Fe  Fe272     1.0  0.94033  0.69238  0.60089  1.0000
  S   S543      1.0  0.94148  0.72318  0.60721  1.0000
  S   S544      1.0  0.95328  0.68493  0.57060  1.0000
  Fe  Fe273     1.0  0.91801  0.67886  0.64178  1.0000
  S   S545      1.0  0.91751  0.70842  0.65157  1.0000
  S   S546      1.0  0.90515  0.65149  0.65951  1.0000
  Fe  Fe274     1.0  0.90939  0.72257  0.62185  1.0000
  S   S547      1.0  0.88469  0.74976  0.61969  1.0000
  Fe  Fe275     1.0  0.94966  0.70639  0.63601  1.0000
  H   H3206     1.0  0.69616  0.95765  0.69953  1.0000
  S   S548      1.0  0.90751  0.69312  0.61314  1.0000
  S   S549      1.0  0.95082  0.67561  0.62867  1.0000
  C   C1882     1.0  0.72482  0.88829  0.53089  1.0000
  N   N135      1.0  0.66817  0.94624  0.71168  1.0000
  H   H3207     1.0  0.86609  0.70947  0.68087  1.0000
  C   C1883     1.0  0.83003  0.73272  0.63164  1.0000
  C   C1884     1.0  0.88307  0.80740  0.53780  1.0000
  C   C1885     1.0  0.86397  0.63889  0.70810  1.0000
  C   C1886     1.0  0.87739  0.63774  0.69028  1.0000
  C   C1887     1.0  0.88878  0.65322  0.68199  1.0000
  C   C1888     1.0  0.88685  0.66976  0.69169  1.0000
  C   C1889     1.0  0.70217  0.88015  0.57734  1.0000
  H   H3208     1.0  0.92370  0.76811  0.58045  1.0000
  H   H3209     1.0  0.87887  0.62487  0.68284  1.0000
  H   H3210     1.0  0.89581  0.68157  0.68557  1.0000
  H   H3211     1.0  0.85086  0.67119  0.67141  1.0000
  H   H3212     1.0  0.96342  0.60707  0.49353  1.0000
  H   H3213     1.0  0.94734  0.62497  0.71741  1.0000
  N   N136      1.0  0.84303  0.69789  0.65048  1.0000
  H   H3214     1.0  0.86306  0.66282  0.61788  1.0000
  H   H3215     1.0  0.67886  0.96270  0.68303  1.0000
  N   N137      1.0  0.90038  0.80736  0.54820  1.0000
  H   H3216     1.0  0.98254  0.52368  0.48001  1.0000
  H   H3217     1.0  0.84699  0.72812  0.67061  1.0000
  C   C1890     1.0  0.85258  0.76721  0.56597  1.0000
  C   C1891     1.0  0.84681  0.77797  0.58181  1.0000
  C   C1892     1.0  0.85652  0.77218  0.59834  1.0000
  C   C1893     1.0  0.87207  0.75556  0.59922  1.0000
  C   C1894     1.0  0.87751  0.74439  0.58366  1.0000
  C   C1895     1.0  0.86775  0.75021  0.56709  1.0000
  H   H3218     1.0  0.83473  0.79065  0.58142  1.0000
  H   H3219     1.0  0.85208  0.78072  0.61044  1.0000
  H   H3220     1.0  0.88948  0.73153  0.58420  1.0000
  H   H3221     1.0  0.87223  0.74172  0.55495  1.0000
  C   C1896     1.0  0.70593  0.90477  0.53141  1.0000
  C   C1897     1.0  0.74663  0.91133  0.59225  1.0000
  C   C1898     1.0  0.76107  0.90820  0.57551  1.0000
  C   C1899     1.0  0.76745  0.88870  0.57057  1.0000
  C   C1900     1.0  0.75988  0.87218  0.58269  1.0000
  C   C1901     1.0  0.74582  0.87530  0.59965  1.0000
  C   C1902     1.0  0.73912  0.89482  0.60437  1.0000
  H   H3222     1.0  0.76695  0.92094  0.56610  1.0000
  H   H3223     1.0  0.77818  0.88648  0.55739  1.0000
  H   H3224     1.0  0.73996  0.86257  0.60913  1.0000
  H   H3225     1.0  0.72818  0.89705  0.61745  1.0000
  H   H3226     1.0  0.87391  0.83065  0.58837  1.0000
  C   C1903     1.0  0.71281  0.91957  0.55909  1.0000
  C   C1904     1.0  0.68092  0.92998  0.54712  1.0000
  H   H3227     1.0  0.97838  0.64859  0.52212  1.0000
  H   H3228     1.0  0.81129  0.69766  0.68639  1.0000
  H   H3229     1.0  0.72057  0.87295  0.53476  1.0000
  H   H3230     1.0  0.89284  0.88394  0.50802  1.0000
  H   H3231     1.0  0.82085  0.72208  0.66206  1.0000
  H   H3232     1.0  0.82691  0.67315  0.66447  1.0000
  H   H3233     1.0  0.87015  0.80212  0.54838  1.0000
  H   H3234     1.0  0.84267  0.73982  0.63347  1.0000
  C   C1905     1.0  0.82685  0.68972  0.68737  1.0000
  C   C1906     1.0  0.87941  0.90885  0.48844  1.0000
  H   H3235     1.0  0.67599  0.93748  0.56042  1.0000
  C   C1907     1.0  0.95713  0.59802  0.50733  1.0000
  H   H3236     1.0  0.83303  0.72801  0.61692  1.0000
  H   H3237     1.0  0.92523  0.80060  0.52479  1.0000
  H   H3238     1.0  0.70578  0.92551  0.57301  1.0000
  H   H3239     1.0  0.91181  0.77536  0.54896  1.0000
  H   H3240     1.0  0.85518  0.62693  0.71438  1.0000
  C   C1908     1.0  0.86043  0.88716  0.51375  1.0000
  C   C1909     1.0  0.84248  0.89847  0.50847  1.0000
  H   H3241     1.0  0.87201  0.68378  0.71692  1.0000
  H   H3242     1.0  0.82817  0.89453  0.51600  1.0000
  N   N138      1.0  0.81850  0.87556  0.60194  1.0000
  C   C1910     1.0  0.81909  0.85441  0.61338  1.0000
  C   C1911     1.0  0.83742  0.88284  0.60372  1.0000
  C   C1912     1.0  0.81887  0.87408  0.58069  1.0000
  C   C1913     1.0  0.79944  0.88859  0.61010  1.0000
  C   C1914     1.0  0.80179  0.84325  0.61240  1.0000
  C   C1915     1.0  0.84022  0.88353  0.62487  1.0000
  C   C1916     1.0  0.81931  0.89377  0.56590  1.0000
  C   C1917     1.0  0.79923  0.91172  0.60663  1.0000
  H   H3243     1.0  0.83349  0.84460  0.60846  1.0000
  H   H3244     1.0  0.81857  0.85450  0.62931  1.0000
  H   H3245     1.0  0.83857  0.89809  0.59528  1.0000
  H   H3246     1.0  0.85098  0.87305  0.59697  1.0000
  H   H3247     1.0  0.83223  0.86317  0.57539  1.0000
  H   H3248     1.0  0.80544  0.86812  0.57892  1.0000
  H   H3249     1.0  0.78636  0.88587  0.60431  1.0000
  H   H3250     1.0  0.79588  0.88414  0.62635  1.0000
  H   H3251     1.0  0.80234  0.82924  0.62341  1.0000
  H   H3252     1.0  0.78668  0.85234  0.61580  1.0000
  H   H3253     1.0  0.80342  0.83833  0.59792  1.0000
  H   H3254     1.0  0.82643  0.89083  0.63358  1.0000
  H   H3255     1.0  0.84505  0.86817  0.63267  1.0000
  H   H3256     1.0  0.85241  0.89240  0.62428  1.0000
  H   H3257     1.0  0.80535  0.90476  0.56866  1.0000
  H   H3258     1.0  0.81989  0.89015  0.55103  1.0000
  H   H3259     1.0  0.83288  0.90066  0.56512  1.0000
  H   H3260     1.0  0.78408  0.91952  0.60370  1.0000
  H   H3261     1.0  0.81014  0.91757  0.59413  1.0000
  H   H3262     1.0  0.80118  0.91677  0.62020  1.0000
  H   H3263     1.0  0.69776  0.90264  0.69547  1.0000
  C   C1918     1.0  0.91858  0.81284  0.53373  1.0000
  H   H3264     1.0  0.98238  0.65357  0.49604  1.0000
  H   H3265     1.0  0.89922  0.79905  0.50916  1.0000
  H   H3266     1.0  0.70922  0.91746  0.51938  1.0000
  H   H3267     1.0  0.87713  0.82301  0.53124  1.0000
  H   H3268     1.0  0.72478  0.90715  0.56344  1.0000
  H   H3269     1.0  0.93341  0.61132  0.70595  1.0000
  H   H3270     1.0  0.96746  0.65173  0.59957  1.0000
  C   C1919     1.0  0.72356  0.93618  0.54550  1.0000
  N   N139      1.0  0.98585  0.60463  0.52336  1.0000
  C   C1920     1.0  0.87342  0.67094  0.70945  1.0000
  H   H3271     1.0  0.71557  0.87297  0.56814  1.0000
  H   H3272     1.0  0.97134  0.59001  0.56499  1.0000
  H   H3273     1.0  0.70622  0.92635  0.69198  1.0000
  H   H3274     1.0  0.87243  0.72923  0.66117  1.0000
  H   H3275     1.0  0.90407  0.83280  0.50980  1.0000
  H   H3276     1.0  0.67988  0.88762  0.55828  1.0000
  H   H3277     1.0  0.81652  0.74466  0.63185  1.0000
  H   H3278     1.0  0.85273  0.69832  0.61897  1.0000
  C   C1921     1.0  0.83734  0.68220  0.66795  1.0000
  H   H3279     1.0  0.69448  0.89831  0.52633  1.0000
  C   C1922     1.0  0.91509  0.83288  0.51943  1.0000
  C   C1923     1.0  0.96421  0.60182  0.52568  1.0000
  C   C1924     1.0  0.92170  0.78398  0.57274  1.0000
  H   H3280     1.0  0.69380  0.86792  0.58558  1.0000
  H   H3281     1.0  0.83205  0.68525  0.62910  1.0000
  C   C1925     1.0  0.82583  0.71518  0.64849  1.0000
  H   H3282     1.0  0.73550  0.88966  0.54033  1.0000
  C   C1926     1.0  0.97860  0.65225  0.58641  1.0000
  C   C1927     1.0  0.84652  0.68814  0.63217  1.0000
  H   H3283     1.0  0.89217  0.78100  0.56837  1.0000
  S   S550      1.0  0.97646  0.48921  0.52536  1.0000
  H   H3284     1.0  0.82544  0.67640  0.69911  1.0000
  H   H3285     1.0  0.96118  0.58857  0.53710  1.0000
  H   H3286     1.0  0.95365  0.61460  0.53168  1.0000
  H   H3287     1.0  0.88825  0.83776  0.55397  1.0000
  H   H3288     1.0  0.70702  0.88687  0.58849  1.0000
  H   H3289     1.0  0.81225  0.70960  0.64639  1.0000
  C   C1928     1.0  0.86162  0.71847  0.66709  1.0000
  H   H3290     1.0  0.91705  0.79369  0.58435  1.0000
  H   H3291     1.0  0.87368  0.79509  0.51520  1.0000
  C   C1929     1.0  0.87890  0.89256  0.50394  1.0000
  C   C1930     1.0  0.89403  0.82278  0.56197  1.0000
  C   C1931     1.0  0.88759  0.79404  0.52147  1.0000
  H   H3292     1.0  0.85530  0.65569  0.64361  1.0000
  H   H3293     1.0  0.66487  0.91866  0.52791  1.0000
  H   H3294     1.0  0.89199  0.77786  0.52722  1.0000
  H   H3295     1.0  0.87490  0.85646  0.47808  1.0000
  H   H3296     1.0  0.68645  0.94172  0.53508  1.0000
  H   H3297     1.0  0.83546  0.69928  0.69245  1.0000
  H   H3298     1.0  0.93254  0.63777  0.69928  1.0000
  S   S551      1.0  0.79325  0.85163  0.48038  1.0000
  C   C1932     1.0  0.86236  0.70475  0.65169  1.0000
  H   H3299     1.0  0.87416  0.69152  0.65483  1.0000
  H   H3300     1.0  0.94057  0.60287  0.50869  1.0000
  H   H3301     1.0  0.90714  0.82531  0.56788  1.0000
  H   H3302     1.0  0.93661  0.78670  0.56424  1.0000
  C   C1933     1.0  0.84298  0.91507  0.49336  1.0000
  H   H3303     1.0  0.71310  0.95051  0.54255  1.0000
  H   H3304     1.0  0.67639  0.90304  0.57687  1.0000
  H   H3305     1.0  0.88202  0.80411  0.58964  1.0000
  H   H3306     1.0  0.73166  0.93119  0.53152  1.0000
  H   H3307     1.0  0.89373  0.91282  0.48074  1.0000
  H   H3308     1.0  0.93075  0.81425  0.54159  1.0000
  C   C1934     1.0  0.86110  0.66788  0.63238  1.0000
  C   C1935     1.0  0.97507  0.66663  0.56991  1.0000
  C   C1936     1.0  0.69587  0.91676  0.70185  1.0000
  H   H3309     1.0  0.92953  0.83522  0.50960  1.0000
  H   H3310     1.0  0.86900  0.71257  0.63718  1.0000
  C   C1937     1.0  0.93315  0.62527  0.71196  1.0000
  C   C1938     1.0  0.67980  0.96190  0.69880  1.0000
  C   C1939     1.0  0.87735  0.81809  0.57961  1.0000
  Fe  Fe276     1.0  0.66286  0.94566  0.60905  1.0000
  H   H3311     1.0  0.91024  0.84612  0.52727  1.0000
  H   H3312     1.0  0.98693  0.71312  0.60799  1.0000
  H   H3313     1.0  0.82906  0.92375  0.48928  1.0000
  H   H3314     1.0  0.96133  0.64176  0.50851  1.0000
  C   C1940     1.0  0.97726  0.64245  0.50891  1.0000
  H   H3315     1.0  0.96068  0.58172  0.50593  1.0000
  S   S552      1.0  0.67291  0.89157  0.66762  1.0000
  H   H3316     1.0  0.73367  0.88966  0.51578  1.0000
  C   C1941     1.0  0.66171  0.92534  0.54162  1.0000
  H   H3317     1.0  0.67050  0.92961  0.68765  1.0000
  S   S553      1.0  0.68405  0.96749  0.60693  1.0000
  S   S554      1.0  0.97468  0.71204  0.65005  1.0000
  H   H3318     1.0  0.67355  0.97102  0.56991  1.0000
  H   H3319     1.0  0.87623  0.66937  0.63461  1.0000
  H   H3320     1.0  0.98621  0.67721  0.53961  1.0000
  H   H3321     1.0  0.70050  0.91233  0.71652  1.0000
  C   C1942     1.0  0.67366  0.92697  0.70293  1.0000
  H   H3322     1.0  0.66415  0.91557  0.71107  1.0000
  C   C1943     1.0  0.98909  0.60984  0.54241  1.0000
  H   H3323     1.0  0.81186  0.88991  0.47922  1.0000
  H   H3324     1.0  0.86066  0.97478  0.50492  1.0000
  H   H3325     1.0  0.66059  0.85910  0.69705  1.0000
  C   C1944     1.0  0.98697  0.59323  0.56061  1.0000
  H   H3326     1.0  0.90122  0.63272  0.72025  1.0000
  C   C1945     1.0  0.98903  0.66633  0.55251  1.0000
  Fe  Fe277     1.0  0.94809  0.54480  0.81186  1.0000
  H   H3327     1.0  0.83285  0.55657  0.80599  1.0000
  H   H3328     1.0  0.78286  0.51802  0.78213  1.0000
  S   S555      1.0  0.93532  0.57800  0.80803  1.0000
  H   H3329     1.0  0.90740  0.48577  0.75635  1.0000
  C   C1946     1.0  0.79618  0.51915  0.77110  1.0000
  H   H3330     1.0  0.88924  0.65475  0.75289  1.0000
  C   C1947     1.0  0.82974  0.52418  0.81011  1.0000
  S   S556      1.0  0.94492  0.49261  0.87348  1.0000
  Fe  Fe278     1.0  0.69907  0.69738  0.86665  1.0000
  S   S557      1.0  0.69621  0.72927  0.87212  1.0000
  S   S558      1.0  0.73016  0.67941  0.85987  1.0000
  H   H3331     1.0  0.82351  0.51354  0.82284  1.0000
  H   H3332     1.0  0.83132  0.49061  0.74202  1.0000
  Fe  Fe279     1.0  0.67208  0.73611  0.85325  1.0000
  H   H3333     1.0  0.93271  0.48692  0.91575  1.0000
  S   S559      1.0  0.67688  0.68856  0.89369  1.0000
  S   S560      1.0  0.67667  0.70479  0.84595  1.0000
  Fe  Fe280     1.0  0.82008  0.58890  0.75951  1.0000
  S   S561      1.0  0.84614  0.60054  0.76623  1.0000
  H   H3334     1.0  0.95030  0.59365  0.73600  1.0000
  Fe  Fe281     1.0  0.78934  0.62120  0.77830  1.0000
  S   S562      1.0  0.81298  0.63526  0.78631  1.0000
  S   S563      1.0  0.75631  0.63402  0.78566  1.0000
  Fe  Fe282     1.0  0.82995  0.63136  0.75617  1.0000
  Fe  Fe283     1.0  0.82702  0.60340  0.79549  1.0000
  S   S564      1.0  0.84049  0.59434  0.82312  1.0000
  S   S565      1.0  0.80513  0.61978  0.74710  1.0000
  S   S566      1.0  0.80212  0.58927  0.78987  1.0000
  H   H3335     1.0  0.70856  0.65116  0.89400  1.0000
  H   H3336     1.0  0.79521  0.55100  0.77136  1.0000
  C   C1948     1.0  0.73702  0.66683  0.83921  1.0000
  C   C1949     1.0  0.75642  0.65572  0.83572  1.0000
  C   C1950     1.0  0.76246  0.64556  0.81937  1.0000
  C   C1951     1.0  0.74914  0.64651  0.80633  1.0000
  C   C1952     1.0  0.72966  0.65746  0.80990  1.0000
  C   C1953     1.0  0.72360  0.66758  0.82629  1.0000
  H   H3337     1.0  0.76687  0.65496  0.84569  1.0000
  H   H3338     1.0  0.77739  0.63688  0.81696  1.0000
  H   H3339     1.0  0.71925  0.65813  0.79992  1.0000
  H   H3340     1.0  0.70857  0.67595  0.82883  1.0000
  S   S567      1.0  0.97023  0.53193  0.83237  1.0000
  H   H3341     1.0  0.78026  0.70680  0.79964  1.0000
  C   C1954     1.0  0.89209  0.62146  0.75832  1.0000
  C   C1955     1.0  0.67889  0.72652  0.94424  1.0000
  C   C1956     1.0  0.69720  0.71338  0.94165  1.0000
  H   H3342     1.0  0.92242  0.58864  0.72962  1.0000
  C   C1957     1.0  0.67347  0.94293  0.73204  1.0000
  H   H3343     1.0  0.89648  0.59742  0.73142  1.0000
  H   H3344     1.0  0.70278  0.70810  0.92769  1.0000
  H   H3345     1.0  0.72647  0.77723  0.78109  1.0000
  H   H3346     1.0  0.73792  0.74015  0.77175  1.0000
  C   C1958     1.0  0.74636  0.72984  0.81928  1.0000
  H   H3347     1.0  0.86308  0.56621  0.88586  1.0000
  H   H3348     1.0  0.93284  0.62646  0.75760  1.0000
  Fe  Fe284     1.0  0.94922  0.50486  0.79886  1.0000
  H   H3349     1.0  0.66953  0.92490  0.76115  1.0000
  Fe  Fe285     1.0  0.95285  0.50615  0.84142  1.0000
  C   C1959     1.0  0.82029  0.53942  0.75069  1.0000
  C   C1960     1.0  0.77191  0.70874  0.78717  1.0000
  H   H3350     1.0  0.74322  0.70554  0.78172  1.0000
  H   H3351     1.0  0.88977  0.57976  0.76515  1.0000
  H   H3352     1.0  0.71613  0.71013  0.82258  1.0000
  Fe  Fe286     1.0  0.67190  0.72129  0.89715  1.0000
  H   H3353     1.0  0.81093  0.54988  0.82224  1.0000
  H   H3354     1.0  0.77490  0.72256  0.77670  1.0000
  C   C1961     1.0  0.82722  0.54458  0.81756  1.0000
  C   C1962     1.0  0.73797  0.74497  0.78606  1.0000
  C   C1963     1.0  0.90899  0.58311  0.81021  1.0000
  C   C1964     1.0  0.89807  0.56798  0.80961  1.0000
  C   C1965     1.0  0.87701  0.57166  0.81328  1.0000
  C   C1966     1.0  0.86675  0.59062  0.81698  1.0000
  C   C1967     1.0  0.87759  0.60612  0.81667  1.0000
  C   C1968     1.0  0.89873  0.60237  0.81323  1.0000
  H   H3355     1.0  0.90580  0.55346  0.80626  1.0000
  H   H3356     1.0  0.86860  0.55978  0.81368  1.0000
  H   H3357     1.0  0.86965  0.62087  0.81945  1.0000
  H   H3358     1.0  0.90712  0.61425  0.81338  1.0000
  C   C1969     1.0  0.94914  0.52972  0.92018  1.0000
  C   C1970     1.0  0.90922  0.59466  0.73987  1.0000
  S   S568      1.0  0.96693  0.53029  0.78690  1.0000
  H   H3359     1.0  0.70604  0.73548  0.81621  1.0000
  H   H3360     1.0  0.97689  0.57794  0.92607  1.0000
  C   C1971     1.0  0.95664  0.53569  0.90040  1.0000
  C   C1972     1.0  0.88776  0.57816  0.86362  1.0000
  H   H3361     1.0  0.93470  0.50737  0.94113  1.0000
  H   H3362     1.0  0.70573  0.59512  0.91360  1.0000
  C   C1973     1.0  0.88510  0.50021  0.81296  1.0000
  H   H3363     1.0  0.91924  0.60120  0.84676  1.0000
  C   C1974     1.0  0.80316  0.53782  0.76505  1.0000
  H   H3364     1.0  0.85686  0.57559  0.86223  1.0000
  N   N140      1.0  0.90310  0.57073  0.87714  1.0000
  N   N141      1.0  0.91172  0.61409  0.74579  1.0000
  C   C1975     1.0  0.90167  0.54939  0.88729  1.0000
  C   C1976     1.0  0.89926  0.58434  0.89251  1.0000
  C   C1977     1.0  0.83035  0.52230  0.74243  1.0000
  H   H3365     1.0  0.94477  0.58990  0.84708  1.0000
  C   C1978     1.0  0.90113  0.53411  0.87385  1.0000
  H   H3366     1.0  0.88041  0.53735  0.75845  1.0000
  H   H3367     1.0  0.69009  0.94035  0.73148  1.0000
  H   H3368     1.0  0.93565  0.56272  0.87356  1.0000
  C   C1979     1.0  0.92967  0.59198  0.85641  1.0000
  H   H3369     1.0  0.88840  0.54880  0.89922  1.0000
  H   H3370     1.0  0.91470  0.54316  0.89508  1.0000
  H   H3371     1.0  0.89891  0.60044  0.88559  1.0000
  H   H3372     1.0  0.93092  0.60045  0.86802  1.0000
  H   H3373     1.0  0.86520  0.52571  0.82202  1.0000
  C   C1980     1.0  0.82351  0.50363  0.74861  1.0000
  H   H3374     1.0  0.85875  0.59308  0.87791  1.0000
  H   H3375     1.0  0.81947  0.52627  0.79913  1.0000
  H   H3376     1.0  0.74844  0.60374  0.85499  1.0000
  H   H3377     1.0  0.90124  0.51884  0.88279  1.0000
  H   H3378     1.0  0.88727  0.53765  0.86711  1.0000
  H   H3379     1.0  0.91462  0.53310  0.86227  1.0000
  H   H3380     1.0  0.91066  0.59100  0.91710  1.0000
  H   H3381     1.0  0.93009  0.57947  0.89991  1.0000
  H   H3382     1.0  0.88404  0.58375  0.90151  1.0000
  H   H3383     1.0  0.73890  0.76247  0.82028  1.0000
  H   H3384     1.0  0.77829  0.69562  0.77934  1.0000
  C   C1981     1.0  0.94051  0.51208  0.92581  1.0000
  C   C1982     1.0  0.94816  0.59711  0.75108  1.0000
  H   H3385     1.0  0.75238  0.75088  0.78441  1.0000
  H   H3386     1.0  0.98369  0.57486  0.96130  1.0000
  H   H3387     1.0  0.87924  0.62278  0.75031  1.0000
  H   H3388     1.0  0.68874  0.71838  0.80075  1.0000
  H   H3389     1.0  0.70684  0.72732  0.78061  1.0000
  H   H3390     1.0  0.91583  0.64451  0.73165  1.0000
  H   H3391     1.0  0.69696  0.62980  0.90724  1.0000
  S   S569      1.0  0.97116  0.48792  0.81851  1.0000
  H   H3392     1.0  0.74655  0.71599  0.83065  1.0000
  H   H3393     1.0  0.69698  0.65617  0.86285  1.0000
  H   H3394     1.0  0.96134  0.60399  0.75196  1.0000
  S   S570      1.0  0.92915  0.52032  0.82277  1.0000
  H   H3395     1.0  0.76233  0.73200  0.81440  1.0000
  C   C1983     1.0  0.73640  0.74797  0.82982  1.0000
  C   C1984     1.0  0.70513  0.71714  0.79489  1.0000
  H   H3396     1.0  0.94926  0.58275  0.76161  1.0000
  H   H3397     1.0  0.88875  0.59401  0.85657  1.0000
  H   H3398     1.0  0.96339  0.54929  0.89598  1.0000
  C   C1985     1.0  0.72053  0.76303  0.78786  1.0000
  H   H3399     1.0  0.72191  0.63181  0.90915  1.0000
  H   H3400     1.0  0.89555  0.51067  0.80485  1.0000
  C   C1986     1.0  0.91460  0.62981  0.72770  1.0000
  H   H3401     1.0  0.73671  0.58281  0.85231  1.0000
  C   C1987     1.0  0.93937  0.50057  0.91144  1.0000
  H   H3402     1.0  0.67122  0.91050  0.74203  1.0000
  S   S571      1.0  0.84559  0.65755  0.74012  1.0000
  H   H3403     1.0  0.87627  0.64442  0.77587  1.0000
  C   C1988     1.0  0.70827  0.70699  0.95727  1.0000
  N   N142      1.0  0.85091  0.51569  0.80146  1.0000
  S   S572      1.0  0.82998  0.56231  0.74293  1.0000
  C   C1989     1.0  0.85853  0.53141  0.78485  1.0000
  C   C1990     1.0  0.86352  0.51142  0.81759  1.0000
  H   H3404     1.0  0.68583  0.66933  0.94916  1.0000
  C   C1991     1.0  0.87527  0.52401  0.76848  1.0000
  C   C1992     1.0  0.89046  0.64199  0.76521  1.0000
  S   S573      1.0  0.66381  0.73407  0.92562  1.0000
  H   H3405     1.0  0.92557  0.56282  0.85226  1.0000
  H   H3406     1.0  0.84604  0.53990  0.77711  1.0000
  C   C1993     1.0  0.90534  0.57721  0.75694  1.0000
  C   C1994     1.0  0.74921  0.70844  0.79441  1.0000
  H   H3407     1.0  0.84352  0.52349  0.73120  1.0000
  H   H3408     1.0  0.71051  0.70126  0.79249  1.0000
  H   H3409     1.0  0.67824  0.62865  0.88640  1.0000
  H   H3410     1.0  0.86419  0.54300  0.79053  1.0000
  H   H3411     1.0  0.88858  0.51482  0.77422  1.0000
  C   C1995     1.0  0.92859  0.61153  0.75748  1.0000
  H   H3412     1.0  0.86953  0.51549  0.75930  1.0000
  H   H3413     1.0  0.72242  0.69682  0.95525  1.0000
  H   H3414     1.0  0.74360  0.74713  0.84291  1.0000
  H   H3415     1.0  0.68858  0.64737  0.84339  1.0000
  H   H3416     1.0  0.88902  0.61051  0.77199  1.0000
  H   H3417     1.0  0.90695  0.56300  0.75083  1.0000
  H   H3418     1.0  0.83461  0.54321  0.83058  1.0000
  H   H3419     1.0  0.67497  0.68392  0.96795  1.0000
  H   H3420     1.0  0.90300  0.64251  0.77286  1.0000
  C   C1996     1.0  0.95518  0.52444  0.88617  1.0000
  H   H3421     1.0  0.74800  0.69478  0.80574  1.0000
  H   H3422     1.0  0.69330  0.57563  0.91034  1.0000
  H   H3423     1.0  0.72015  0.74802  0.83537  1.0000
  C   C1997     1.0  0.66504  0.92543  0.74665  1.0000
  C   C1998     1.0  0.86544  0.57827  0.87315  1.0000
  C   C1999     1.0  0.71601  0.72271  0.80996  1.0000
  S   S574      1.0  0.95061  0.54538  0.93684  1.0000
  H   H3424     1.0  0.96066  0.52957  0.87107  1.0000
  H   H3425     1.0  0.72775  0.63515  0.86958  1.0000
  C   C2000     1.0  0.67207  0.67241  0.96018  1.0000
  C   C2001     1.0  0.80643  0.50196  0.76301  1.0000
  C   C2002     1.0  0.91425  0.57939  0.90722  1.0000
  H   H3426     1.0  0.97186  0.60074  0.93608  1.0000
  H   H3427     1.0  0.70886  0.76217  0.77918  1.0000
  C   C2003     1.0  0.94663  0.50683  0.89150  1.0000
  H   H3428     1.0  0.71327  0.76508  0.80299  1.0000
  H   H3429     1.0  0.91297  0.56463  0.91680  1.0000
  H   H3430     1.0  0.89098  0.56979  0.85091  1.0000
  C   C2004     1.0  0.98418  0.58875  0.93111  1.0000
  C   C2005     1.0  0.92381  0.57098  0.86498  1.0000
  H   H3431     1.0  0.66785  0.95672  0.73905  1.0000
  H   H3432     1.0  0.74354  0.60113  0.83166  1.0000
  N   N143      1.0  0.73713  0.72703  0.80231  1.0000
  N   N144      1.0  0.70710  0.61420  0.87198  1.0000
  C   C2006     1.0  0.71647  0.61227  0.85091  1.0000
  C   C2007     1.0  0.68645  0.62666  0.87154  1.0000
  C   C2008     1.0  0.70488  0.59325  0.88279  1.0000
  C   C2009     1.0  0.72074  0.62364  0.88087  1.0000
  C   C2010     1.0  0.73746  0.59913  0.84768  1.0000
  C   C2011     1.0  0.68600  0.64797  0.85939  1.0000
  C   C2012     1.0  0.69553  0.59152  0.90472  1.0000
  C   C2013     1.0  0.71105  0.63455  0.89871  1.0000
  H   H3433     1.0  0.70633  0.60627  0.84355  1.0000
  H   H3434     1.0  0.71857  0.62729  0.84223  1.0000
  H   H3435     1.0  0.68048  0.60082  0.90738  1.0000
  H   H3436     1.0  0.67676  0.61872  0.86554  1.0000
  H   H3437     1.0  0.69563  0.58609  0.87544  1.0000
  H   H3438     1.0  0.71975  0.58331  0.88245  1.0000
  H   H3439     1.0  0.73355  0.61212  0.88534  1.0000
  H   H3440     1.0  0.92330  0.60568  0.77316  1.0000
  H   H3441     1.0  0.67091  0.65703  0.86273  1.0000
  H   H3442     1.0  0.82645  0.48285  0.81530  1.0000
  C   C2014     1.0  0.67185  0.73333  0.96238  1.0000
  H   H3443     1.0  0.98550  0.49736  0.91110  1.0000
  H   H3444     1.0  0.66315  0.79922  0.80231  1.0000
  S   S575      1.0  0.67226  0.76484  0.83124  1.0000
  H   H3445     1.0  0.89048  0.49277  0.82691  1.0000
  H   H3446     1.0  0.91618  0.57463  0.76731  1.0000
  C   C2015     1.0  0.84975  0.49691  0.79358  1.0000
  S   S576      1.0  0.93688  0.49496  0.77530  1.0000
  Fe  Fe287     1.0  0.98722  0.51477  0.80851  1.0000
  H   H3447     1.0  0.85594  0.50314  0.83140  1.0000
  Fe  Fe288     1.0  0.94038  0.53926  0.96960  1.0000
  H   H3448     1.0  0.76782  0.48603  0.82257  1.0000
  H   H3449     1.0  0.83959  0.50069  0.78239  1.0000
  H   H3450     1.0  0.98942  0.54116  0.95346  1.0000
  H   H3451     1.0  0.88596  0.48768  0.80484  1.0000
  H   H3452     1.0  0.67060  0.65799  0.97015  1.0000
  H   H3453     1.0  0.86444  0.49056  0.78558  1.0000
  H   H3454     1.0  0.77872  0.67781  0.97464  1.0000
  H   H3455     1.0  0.65781  0.69371  0.93888  1.0000
  H   H3456     1.0  0.65782  0.74368  0.96442  1.0000
  C   C2016     1.0  0.70091  0.71343  0.97558  1.0000
