data_image0
_chemical_formula_structural       FeS2CHCH2NFeS2FeS2FeSFeS3HSH3C6H4C2HCH3C2HC3H2CHC6H10FeH3CH4CHCHCHCNH2C3HCH3CH3C2HSCH2CSH8CH2CHC3HC2H6CHCH2NCH5CNFeHC5H2CH5CH3CH4CH5CH8CH2CHFeS2FeS2FeSFeS4HFeS2FeS2FeS2FeHFeS3FeS2FeS2FeSFeCS2FeS2H2FeS2FeS2FeS2C2H2FeC6H4C6H4C6H5C6H4C6H5C7H4C6H7CHCH2C4H2CSH5CH2CH2CSH4CH5NC5HNCH8CHFeCH6NC8H22CH4NC8H16C2H2CHCHSH5CH7CH2CH4CHC3HCH9CH5C4H5C2HC3HSH10C3HNC2H3NH2FeCH4CHCHC3HNC2HCHNHCH2CH7SH3CHSH5FeCHCSHC2H6C3FeHCH3SH3FeSCFeS2FeS2FeSFeS3FeS2CSC2H2C8H4CHC2H2C3H2C6H7CH11CH3CH3NC8H20CH2C2HC2HCH3CH3CSH5CH2C2HNH7CHFeHCHCH2CH2CH3C2H2FeHSCNCSC3HC2H2CHNHC2H8CH3CHC2H4NH3CH2CFeSHSFeS2FeS2FeSFeS3H2SC6H4C2HCH3C6H4C2H3SFeCH3CH3SH3CH4CHFeCNH4SCH7CHC2H4CH2C2H3CNH2CH2C3HCHNHNCH6C3H2CHC2H2C2HCH3CH2CHNH4CH3C2H3CH3CH4C4HCH2FeS2FeS2FeSFeS3FeSH2CFeSFeSHSHSCHNFeSHFeS2FeS2FeHFeS3FeS2FeS2FeHFeS3FeS2H3FeS2FeSFeS3HCH4CHC6H4C7HNHC6H6C6H4C6H4C4HCH4C2H2CHC2HFeC6H4C6H6C2HC2HSNHC3HNHNH7C2H2CH3CH3CNC8H11CH9CH2CHCHC3HCHCH4CH5C2H4C2HCSFeH2CH6NC5H12C2H2NC2H3CH2NCHCHCH3SHC4H3CHNH2CHCHCH3CH2CH9CHSC2HC2HC3H2C2H2SHCHCH4SH5CH7SH3SH4CH4CS2H4CH6CH4C2H5CH5FeSCSCFeS2FeS2FeSFeS3FeHSH3CH2C6H5CHCHC2H3C6H7CH4C4H2C4H2CH6CH4NHSH2CHC2HCH2NCH4CH7C3H2NC6H18CHFeC2HSNCH2CHFeHCH2CH11CHCHSHCH2SFeCSCH3CS2FeHSCFe2H2SHFeS2FeS2FeSFeS3FeS2FeS2FeSFeS3CSHSHCFeSC7H9C6H5C2H2C2HC6H10C6H6CFeH2CH3NC3HSCH7CHCH3NC5HC2H12CH5CH3CH2CH2NC3FeCSH5CH9SNH4C6H3CH2CFeCHNCHCH3SHSH3NC8H16CH2CH3CH2CHNH2CH2CHC2HCH2CHSH3CH4SCHSCSH3CHC2HFeSHCSCNSCHCSC5HCH3C2HC2H4C6H4SH2CH6CH4C2H5CH4CHNH2CSH3C2HCH2CHCHCHCHCHCHCH2SHNSH4CHC2H2CHCHNH5CH5SC3HC2HC2H4CH2FeCFeHCH2FeS2FeSFeS2H2SFeS2FeS2FeSFeS3FeS2FeS2FeSFeS3FeSHFeSHFeSFeSCSH4C6H5CH3SHC8H4CH6NHC6H6C6H8CHC2NC8H24CHC2HC3H9C3HCH3CH3NH3CH3CH3CHCNC2H2CH2SC2H2CH4C2HNH5CHC2HCHCH3CNH2NC3H2C3H4C4H2SHCH6CH3CHCFeHCH3C2HCHCH3CHCSFeHCHSCHSCHFeSCFeS2FeS2FeSFeS3FeS2FeS2FeSFeS5FeSFeSH3CHC7H5CH3C6H4C3H2CH2C6H5SCH4C6H6NC8H17CH2CHCHC2HNC8H23SH2NH2CH12C2H2CHCHCH2C2H2CH9CH7CHC2H2NHC4H5C2HCH3C2H2NCH2C6H2CHCHC2H6C2HCHCFeH4CH6CHC2H4CFeH3SHCH2SHS2HCSCFeHSHNSH2C2SC2HC7H3FeHC6H4CH2CHC3H3CHFeHFeH4CH9C2HFeH3CHC2H2SH2C2HCH2CH2SH2CH2CHSFeCSH4NSCHC2H4CHC2HCH2NCH3C2H4SCSNCH2CSH2CH2CH2C5SHCHC2H2CHFeH2CHCH5CH3CSHS3FeS2FeS2FeSFeS3FeS2FeS2FeSFeS3HSH2SCFeSFeSHSHC5HC6H4CHC6H6CHC2NH2C7H5CHC3HC6H5NCH2C2H2CHFeCHC2HCH9CH2NC4HC3H8CH3NH7NC8H25CH8FeC3HCH4CHCH5CH7CH2CH2C2HCH2NC3H3C2H3CH3CH4C2HCHCHC2H2CFeCH2NCHCH3NH2CH9CH14FeSFeHSC2SFeHFeHSH2S2FeS2FeS2FeSFeS3CSHSHFeSCH2FeS2FeS2FeSFeHS2C3H2C3FeCH2C6H4C6H5C2H2C6H4SH3C2NCH2C6H11C4HCHNC5HC2H11C3H4FeH2CH3CHCH2CHCH2SH2FeHCH2CHCHC2SH2NHNCH2NC8H20NHC6H8CH11SH4CH3CH6CHCH3CH2CHNC2H3C3HSNHCH2CNH2CHCH3CH10C2HCHC2HCH8CHSHCHCH2C2SHCHCH5CH2CH4FeHSH2S2FeHFeS2H2S4H2CHC3H3C3HFeCH4C6H3C2H4CH3CHNCH3NCHSCH2C2H3C2NCHCHCHFeC2H2CSFeSH3C2SC3H4CH4C3H2CFeCSHC3H5C2FeH6SHFeS2HSFeS2FeS2FeSFeS3FeSHFeSCFeSFeSCSFeS2FeS2FeSFeHS2HCH2CHCH2CH3C6H4C6H4C2H4FeHC6H4C6H9SH3CH5CSCHCH2CH2CH3CSHCHCH5NHCH4CHCHNHCH2NH3CH5CH4NC4H4CH5NC8H12CH2CHCNCSHCHCH4SC2H5CHFeH4CH2CH3C3H2CHCH5CHCH3SC2HCHCSH3FeH2CH2CH2CH2C2H3CHCHSCFeH3SCH3CH3FeSHSHFeSHSHSHFeSFeSHFeS2FeS2FeSFeS3FeS2FeS2FeSFeS3H2C4H3CH2CHC6H4C3H4C6H4C2H2C8H9C7H5NH2CH3C2H6FeH2CHC4H9C2H6C2HC2H9C3HCH3CHCHCHNCHCHC2H4SCH2CH6SH7CH5CNHNSH4C2HCHCHNCH2CH2CHFeH9CHC4SC2HCNC7H7CHSH6SH2CHCHCH2C2HC2H2FeHCNC2HCSCNHCH3C2H2CFeH9CHFeHS2CH2SHCFeS2H2SHCHC2HCH2C11H5C2HC6H3CHC2NCFeCH12NHC2H7C3H6CH2CH2NC2H4CHSH3C2FeH2C2H2SH2SH6C2SCH3CH2CH3C2H3CHSHCH3NSC2H6CH3SCHNHCH2SHCHC2SHFeSCFeSFeS2HFeS2FeS2FeSFeS3FeSFe2S2FeSFeS3C7H4CHCHCHCHC6H4CH2CHC6H4CH2C2H2FeH2C6H4CHCHCHC3H9C2HSC2SH8CHSCHC2HCH8NHNH3CH2CH2C2H2CH5C2H2SH2CH5CHCH3CNH4C3H4CH3C2HC4H9CH2NCHCHCH12NHCHCH5CH2CNH2C2H3CHCHCFeCH3C2H12C2H3FeCSHS2FeS2FeS2FeSFeS3C4H3C3H3C6H6C6H5SHC2NC8H20C2HC2H3C3NH3CHCH3NH3SHCH2CH2CH2CH2CH2CHC2H5C2H11CH8SCH3CH2CH2CFeS2FeS2FeSFeS3CHSHSC2H2FeS2HCH4FeS2FeS2FeSFeS3FeS2FeS2FeSFeHS2FeS2FeSFeHSHC2HC6H5CHC6H5C4FeCH6C6H4C2HC6H8C6H4C6H4NC3HC2HSHCSNC3H7FeCHCH2CHCHCHC2HCH2C3HCSCH3NFeCH5CHC2H6C2HCH2CH2CHCH4CH5CH8SH6CH4CHC2HNHNC8H14CH5NC2HC3H4CH5CH7C2H3CH7CHC3H4CH4CHCHSH4CNCH2CH2CHC2HCHCH3C2HNHNH4C3NH2CHCH7CH5SCH6C2H3C2NHCH7CHNCH3CH2CFeSHC2HCSCH3C2SH2CHCH4SHFeSHCFeS2FeS2FeS2FeSFeS3HC4H3C5H4C6H5CH2C6H12C2H4CHFeH2CHCH2CHC2H5C2NC8H21CSHC2H5CH4SC2H2NHC2HCH7C2H2CSCNHCHCHC3H2CH6CHCNH3NH7C2HCSHFeSH2SH2FeS2FeS2FeSFeS4C4H2C6H4CH3C6H5C2HCH2NC8H18SH2CHS2H4C4HNH4SHCH2CH7NC8H8FeHCH2CHFeCH3CH2C3FeH4FeS2FeS2FeSFeS3FeS2FeCFeCS2HSHFeSFe2C2FeS2FeS2FeS2FeSFeS3FeS2FeS2FeSFeS3CSH4CFeSHSNCH2C6HCH2C6H4C6H4SH2CH2C7H5C7H7C2HCH2C6H4C6H10CHSH3CNC8H20NC4H2CHCHCFeH5CH2NH3CFeH2S2H5SH4C3H11NC8H10FeH11SH5CH2CHCHCHCH4S2CH9CH3C2HCH4CHNH3NCHCH3C2H2CHCHSCHCH2CH3CH3CHC2H4CHC2HCH2C2HCH3C4FeH8NCHC2HNC2NCH4C2H2C3H3SHC3H3CHC3H3SFeS2FeS2FeSFeS3H3FeSH5C6H4CHC3HC2H4C6H5CHCHC2H2CHCHCHCHNCHNH5SH2C2H2CH2CH5CH4C2H6CH2CHC2HCH2CHNFeH2SHC2HSH2SH2CH2C2H7SHCH2CH2S
_chemical_formula_sum              "Fe288 S576 C2016 H3456 N144"
_cell_length_a       71.0782
_cell_length_b       71.0104
_cell_length_c       71.0269
_cell_angle_alpha    84.7181
_cell_angle_beta     85.7186
_cell_angle_gamma    85.2425

_space_group_name_H-M_alt    "P 1"
_space_group_IT_number       1

loop_
  _space_group_symop_operation_xyz
  'x, y, z'

loop_
  _atom_site_type_symbol
  _atom_site_label
  _atom_site_symmetry_multiplicity
  _atom_site_fract_x
  _atom_site_fract_y
  _atom_site_fract_z
  _atom_site_occupancy
  Fe  Fe1       1.0  0.02541  0.38967  0.10965  1.0000
  S   S1        1.0  0.03194  0.39645  0.07830  1.0000
  S   S2        1.0  0.04556  0.37228  0.12921  1.0000
  C   C1        1.0  0.24542  0.35434  0.13182  1.0000
  H   H1        1.0  0.14539  0.34699  0.09904  1.0000
  C   C2        1.0  0.04736  0.45903  0.12308  1.0000
  H   H2        1.0  0.07794  0.28204  0.30894  1.0000
  H   H3        1.0  0.01208  0.47367  0.02395  1.0000
  N   N1        1.0  0.15351  0.41529  0.27332  1.0000
  Fe  Fe2       1.0  0.13295  0.39845  0.18711  1.0000
  S   S3        1.0  0.13574  0.40495  0.21729  1.0000
  S   S4        1.0  0.10700  0.41020  0.17136  1.0000
  Fe  Fe3       1.0  0.17464  0.38291  0.18174  1.0000
  S   S5        1.0  0.18032  0.38841  0.21137  1.0000
  S   S6        1.0  0.19398  0.37072  0.15758  1.0000
  Fe  Fe4       1.0  0.15224  0.37652  0.22078  1.0000
  S   S7        1.0  0.15351  0.35656  0.24821  1.0000
  Fe  Fe5       1.0  0.16333  0.41642  0.20618  1.0000
  S   S8        1.0  0.17315  0.44241  0.21811  1.0000
  S   S9        1.0  0.14751  0.36905  0.19121  1.0000
  S   S10       1.0  0.15963  0.41189  0.17589  1.0000
  H   H4        1.0  0.15463  0.45596  0.27884  1.0000
  S   S11       1.0  0.09808  0.33495  0.32115  1.0000
  H   H5        1.0  0.12260  0.40942  0.29919  1.0000
  H   H6        1.0  0.25046  0.34911  0.11838  1.0000
  H   H7        1.0  0.14917  0.34421  0.13108  1.0000
  C   C3        1.0  0.13774  0.35077  0.26826  1.0000
  C   C4        1.0  0.14513  0.34063  0.28441  1.0000
  C   C5        1.0  0.13335  0.33589  0.30079  1.0000
  C   C6        1.0  0.11389  0.34099  0.30116  1.0000
  C   C7        1.0  0.10650  0.35110  0.28499  1.0000
  C   C8        1.0  0.11832  0.35603  0.26868  1.0000
  H   H8        1.0  0.16016  0.33660  0.28433  1.0000
  H   H9        1.0  0.13939  0.32856  0.31319  1.0000
  H   H10       1.0  0.09148  0.35516  0.28508  1.0000
  H   H11       1.0  0.11237  0.36382  0.25642  1.0000
  C   C9        1.0  0.21892  0.36559  0.15331  1.0000
  C   C10       1.0  0.22587  0.35887  0.13585  1.0000
  H   H12       1.0  0.13653  0.39757  0.25930  1.0000
  C   C11       1.0  0.23188  0.36784  0.16668  1.0000
  H   H13       1.0  0.21604  0.35702  0.12538  1.0000
  H   H14       1.0  0.14590  0.38930  0.08912  1.0000
  H   H15       1.0  0.22683  0.37292  0.18019  1.0000
  C   C12       1.0  0.16581  0.46603  0.20988  1.0000
  C   C13       1.0  0.17103  0.48122  0.21930  1.0000
  H   H16       1.0  0.11442  0.38979  0.28906  1.0000
  C   C14       1.0  0.16211  0.40145  0.30722  1.0000
  C   C15       1.0  0.02379  0.48978  0.07370  1.0000
  C   C16       1.0  0.15535  0.46999  0.19391  1.0000
  H   H17       1.0  0.17916  0.47830  0.23166  1.0000
  H   H18       1.0  0.16558  0.38773  0.30115  1.0000
  C   C17       1.0  0.14287  0.35307  0.14224  1.0000
  H   H19       1.0  0.15122  0.45847  0.18655  1.0000
  C   C18       1.0  0.06237  0.38293  0.14122  1.0000
  C   C19       1.0  0.06274  0.40263  0.14058  1.0000
  C   C20       1.0  0.07618  0.41066  0.15035  1.0000
  C   C21       1.0  0.08953  0.39912  0.16072  1.0000
  C   C22       1.0  0.08897  0.37940  0.16165  1.0000
  C   C23       1.0  0.07545  0.37137  0.15192  1.0000
  H   H20       1.0  0.05274  0.41168  0.13246  1.0000
  H   H21       1.0  0.07648  0.42592  0.14959  1.0000
  H   H22       1.0  0.09900  0.37036  0.16977  1.0000
  H   H23       1.0  0.07516  0.35611  0.15262  1.0000
  H   H24       1.0  0.13924  0.41437  0.10999  1.0000
  H   H25       1.0  0.03672  0.49175  0.06497  1.0000
  H   H26       1.0  0.02295  0.49592  0.11822  1.0000
  H   H27       1.0  0.15406  0.35619  0.15136  1.0000
  H   H28       1.0  0.16874  0.45056  0.25753  1.0000
  H   H29       1.0  0.11882  0.36700  0.12880  1.0000
  Fe  Fe6       1.0  0.01896  0.42547  0.08384  1.0000
  H   H30       1.0  0.06768  0.48797  0.16972  1.0000
  H   H31       1.0  0.11020  0.30445  0.29081  1.0000
  H   H32       1.0  0.11062  0.40451  0.09879  1.0000
  C   C24       1.0  0.14387  0.43326  0.26417  1.0000
  H   H33       1.0  0.04805  0.47879  0.16136  1.0000
  H   H34       1.0  0.10265  0.39476  0.12214  1.0000
  H   H35       1.0  0.00575  0.41612  0.16971  1.0000
  H   H36       1.0  0.12618  0.27698  0.24855  1.0000
  C   C25       1.0  0.13185  0.37141  0.13440  1.0000
  H   H37       1.0  0.14630  0.46329  0.25601  1.0000
  C   C26       1.0  0.06284  0.48184  0.15723  1.0000
  H   H38       1.0  0.14169  0.27406  0.33269  1.0000
  C   C27       1.0  0.01821  0.47149  0.07885  1.0000
  H   H39       1.0  0.19082  0.39493  0.27976  1.0000
  C   C28       1.0  0.12097  0.40345  0.28560  1.0000
  N   N2        1.0  0.05244  0.49498  0.12387  1.0000
  H   H40       1.0  0.05332  0.47857  0.09940  1.0000
  H   H41       1.0  0.19462  0.38976  0.25566  1.0000
  C   C29       1.0  0.14219  0.28671  0.32235  1.0000
  C   C30       1.0  0.13985  0.28201  0.30192  1.0000
  C   C31       1.0  0.01999  0.38099  0.02445  1.0000
  H   H42       1.0  0.15866  0.36035  0.08061  1.0000
  C   C32       1.0  0.17458  0.39867  0.11197  1.0000
  H   H43       1.0  0.13297  0.34437  0.15146  1.0000
  H   H44       1.0  0.13154  0.29790  0.32692  1.0000
  H   H45       1.0  0.08527  0.27755  0.28485  1.0000
  C   C33       1.0  0.14194  0.37792  0.10023  1.0000
  H   H46       1.0  0.10453  0.41963  0.11740  1.0000
  H   H47       1.0  0.07911  0.49829  0.09078  1.0000
  H   H48       1.0  0.13528  0.29301  0.26292  1.0000
  C   C34       1.0  0.01823  0.37974  0.17599  1.0000
  C   C35       1.0  0.18344  0.39249  0.26709  1.0000
  H   H49       1.0  0.17569  0.39432  0.09731  1.0000
  S   S12       1.0  0.03214  0.45185  0.07123  1.0000
  C   C36       1.0  0.02825  0.38150  0.00578  1.0000
  H   H50       1.0  0.01768  0.38903  0.18786  1.0000
  H   H51       1.0  0.16985  0.41392  0.11209  1.0000
  C   C37       1.0  0.16198  0.38607  0.12555  1.0000
  S   S13       1.0  0.01455  0.41926  0.11528  1.0000
  H   H52       1.0  0.04934  0.45572  0.13834  1.0000
  H   H53       1.0  0.13188  0.40929  0.13423  1.0000
  H   H54       1.0  0.14121  0.43149  0.24916  1.0000
  H   H55       1.0  0.18914  0.39708  0.11698  1.0000
  H   H56       1.0  0.03203  0.46046  0.12066  1.0000
  H   H57       1.0  0.14246  0.49182  0.17478  1.0000
  H   H58       1.0  0.12723  0.37547  0.09722  1.0000
  H   H59       1.0  0.19808  0.48645  0.18808  1.0000
  C   C38       1.0  0.15040  0.48892  0.18728  1.0000
  H   H60       1.0  0.16139  0.39157  0.13980  1.0000
  H   H61       1.0  0.02837  0.38330  0.03601  1.0000
  C   C39       1.0  0.15422  0.45158  0.26429  1.0000
  H   H62       1.0  0.15628  0.29224  0.32296  1.0000
  C   C40       1.0  0.11130  0.40550  0.11422  1.0000
  C   C41       1.0  0.03172  0.49684  0.13038  1.0000
  C   C42       1.0  0.03205  0.36242  0.18113  1.0000
  H   H63       1.0  0.12701  0.37902  0.14714  1.0000
  C   C43       1.0  0.12255  0.26827  0.27873  1.0000
  C   C44       1.0  0.12356  0.28381  0.26206  1.0000
  H   H64       1.0  0.11777  0.03050  0.32287  1.0000
  H   H65       1.0  0.14634  0.38600  0.27947  1.0000
  H   H66       1.0  0.07823  0.30103  0.29019  1.0000
  H   H67       1.0  0.17007  0.37209  0.12727  1.0000
  H   H68       1.0  0.16635  0.40777  0.24619  1.0000
  H   H69       1.0  0.18024  0.42178  0.25812  1.0000
  C   C45       1.0  0.13995  0.39993  0.27391  1.0000
  H   H70       1.0  0.11078  0.41287  0.27727  1.0000
  C   C46       1.0  0.13196  0.40390  0.11993  1.0000
  H   H71       1.0  0.15168  0.27144  0.29818  1.0000
  H   H72       1.0  0.14270  0.29510  0.29263  1.0000
  N   N3        1.0  0.14223  0.38439  0.11982  1.0000
  C   C47       1.0  0.15897  0.41893  0.29272  1.0000
  H   H73       1.0  0.13544  0.25842  0.27683  1.0000
  H   H74       1.0  0.12973  0.43663  0.27133  1.0000
  H   H75       1.0  0.17202  0.42679  0.29143  1.0000
  H   H76       1.0  0.14770  0.42841  0.29955  1.0000
  H   H77       1.0  0.17409  0.40365  0.31577  1.0000
  C   C48       1.0  0.00604  0.43115  0.00185  1.0000
  N   N4        1.0  0.12098  0.27524  0.29826  1.0000
  Fe  Fe7       1.0  0.00196  0.39000  0.07491  1.0000
  H   H78       1.0  0.16708  0.35697  0.10336  1.0000
  C   C49       1.0  0.11549  0.25932  0.31260  1.0000
  C   C50       1.0  0.10613  0.29153  0.29977  1.0000
  C   C51       1.0  0.17070  0.41008  0.26050  1.0000
  C   C52       1.0  0.12982  0.24179  0.31402  1.0000
  C   C53       1.0  0.08582  0.28758  0.29576  1.0000
  H   H79       1.0  0.17577  0.37945  0.26960  1.0000
  H   H80       1.0  0.11066  0.25958  0.27668  1.0000
  C   C54       1.0  0.15390  0.35948  0.09590  1.0000
  H   H81       1.0  0.10182  0.25412  0.30942  1.0000
  H   H82       1.0  0.11004  0.29274  0.26109  1.0000
  H   H83       1.0  0.14964  0.40023  0.31754  1.0000
  H   H84       1.0  0.07270  0.47286  0.11384  1.0000
  H   H85       1.0  0.21779  0.48139  0.17115  1.0000
  C   C55       1.0  0.02039  0.48635  0.02194  1.0000
  H   H86       1.0  0.05347  0.44655  0.11570  1.0000
  H   H87       1.0  0.24363  0.49456  0.15487  1.0000
  H   H88       1.0  0.07155  0.46838  0.15507  1.0000
  C   C56       1.0  0.05717  0.47674  0.11444  1.0000
  H   H89       1.0  0.08019  0.49418  0.13460  1.0000
  H   H90       1.0  0.02644  0.35276  0.19289  1.0000
  H   H91       1.0  0.02549  0.38768  0.16362  1.0000
  H   H92       1.0  0.13154  0.23467  0.30069  1.0000
  C   C57       1.0  0.20267  0.48626  0.17285  1.0000
  H   H93       1.0  0.04301  0.38419  0.00308  1.0000
  H   H94       1.0  0.02765  0.48495  0.14067  1.0000
  H   H95       1.0  0.19467  0.47530  0.16749  1.0000
  H   H96       1.0  0.01015  0.43913  0.01352  1.0000
  H   H97       1.0  0.10490  0.29618  0.31431  1.0000
  C   C58       1.0  0.16598  0.50020  0.21271  1.0000
  H   H98       1.0  0.03154  0.48436  0.03224  1.0000
  H   H99       1.0  0.14380  0.24525  0.31810  1.0000
  H   H100      1.0  0.04523  0.36753  0.18567  1.0000
  H   H101      1.0  0.11275  0.26438  0.32701  1.0000
  H   H102      1.0  0.00823  0.36268  0.14594  1.0000
  H   H103      1.0  0.03636  0.35441  0.16860  1.0000
  H   H104      1.0  0.00641  0.34646  0.16602  1.0000
  H   H105      1.0  0.12442  0.23135  0.32536  1.0000
  C   C59       1.0  0.06507  0.49626  0.13977  1.0000
  H   H106      1.0  0.02692  0.48635  0.00732  1.0000
  H   H107      1.0  0.00521  0.41628  0.00803  1.0000
  C   C60       1.0  0.00161  0.46894  0.09032  1.0000
  H   H108      1.0  0.10772  0.05097  0.33437  1.0000
  Fe  Fe8       1.0  0.08905  0.40242  0.48856  1.0000
  S   S14       1.0  0.06928  0.38962  0.51149  1.0000
  S   S15       1.0  0.08742  0.39630  0.45771  1.0000
  Fe  Fe9       1.0  0.10441  0.42800  0.51576  1.0000
  S   S16       1.0  0.08592  0.41662  0.54050  1.0000
  S   S17       1.0  0.12304  0.44989  0.52412  1.0000
  Fe  Fe10      1.0  0.09380  0.38806  0.53009  1.0000
  S   S18       1.0  0.10191  0.36112  0.54858  1.0000
  Fe  Fe11      1.0  0.06348  0.41938  0.51988  1.0000
  S   S19       1.0  0.03488  0.43266  0.52876  1.0000
  S   S20       1.0  0.11419  0.39901  0.50648  1.0000
  S   S21       1.0  0.08122  0.43263  0.49575  1.0000
  S   S22       1.0  0.09388  0.04028  0.43120  1.0000
  H   H109      1.0  0.11300  0.01806  0.50097  1.0000
  Fe  Fe12      1.0  0.12113  0.01515  0.60821  1.0000
  S   S23       1.0  0.13756  0.03219  0.62597  1.0000
  S   S24       1.0  0.10340  0.02749  0.58474  1.0000
  Fe  Fe13      1.0  0.17973  0.10783  0.41973  1.0000
  S   S25       1.0  0.20793  0.10529  0.43251  1.0000
  S   S26       1.0  0.17169  0.07862  0.41359  1.0000
  Fe  Fe14      1.0  0.17509  0.15130  0.42199  1.0000
  S   S27       1.0  0.20309  0.15104  0.43530  1.0000
  S   S28       1.0  0.15417  0.17812  0.42189  1.0000
  Fe  Fe15      1.0  0.21457  0.13101  0.41324  1.0000
  H   H110      1.0  0.14361  0.07700  0.51216  1.0000
  Fe  Fe16      1.0  0.19431  0.12509  0.45337  1.0000
  S   S29       1.0  0.19590  0.11461  0.48468  1.0000
  S   S30       1.0  0.18702  0.13273  0.39891  1.0000
  S   S31       1.0  0.16576  0.12619  0.44158  1.0000
  Fe  Fe17      1.0  0.17950  0.13200  0.60969  1.0000
  S   S32       1.0  0.20802  0.12046  0.59816  1.0000
  S   S33       1.0  0.15229  0.11876  0.60521  1.0000
  Fe  Fe18      1.0  0.19428  0.16904  0.62039  1.0000
  S   S34       1.0  0.22386  0.16024  0.60868  1.0000
  S   S35       1.0  0.19073  0.19641  0.63574  1.0000
  Fe  Fe19      1.0  0.21012  0.15003  0.58418  1.0000
  S   S36       1.0  0.21900  0.15816  0.55311  1.0000
  Fe  Fe20      1.0  0.21949  0.13147  0.62370  1.0000
  C   C61       1.0  0.03943  0.36875  0.40115  1.0000
  S   S37       1.0  0.18115  0.16126  0.59468  1.0000
  S   S38       1.0  0.19034  0.14061  0.63633  1.0000
  Fe  Fe21      1.0  0.10855  0.32793  0.65597  1.0000
  S   S39       1.0  0.09083  0.30443  0.65069  1.0000
  S   S40       1.0  0.11309  0.35504  0.63710  1.0000
  H   H111      1.0  0.06748  0.22123  0.64235  1.0000
  H   H112      1.0  0.06037  0.07324  0.64029  1.0000
  Fe  Fe22      1.0  0.10681  0.27657  0.37047  1.0000
  S   S41       1.0  0.12219  0.30339  0.36674  1.0000
  S   S42       1.0  0.12544  0.24911  0.36544  1.0000
  Fe  Fe23      1.0  0.06804  0.29912  0.37802  1.0000
  S   S43       1.0  0.08134  0.32701  0.37487  1.0000
  S   S44       1.0  0.03714  0.30149  0.38973  1.0000
  Fe  Fe24      1.0  0.10397  0.31205  0.39232  1.0000
  S   S45       1.0  0.11594  0.32056  0.41888  1.0000
  S   S46       1.0  0.08999  0.28460  0.39694  1.0000
  C   C62       1.0  0.01659  0.29730  0.37837  1.0000
  C   C63       1.0  0.18657  0.38307  0.66204  1.0000
  H   H113      1.0  0.14244  0.11285  0.52705  1.0000
  H   H114      1.0  0.12572  0.06647  0.36535  1.0000
  Fe  Fe25      1.0  0.08208  0.00683  0.59613  1.0000
  C   C64       1.0  0.13940  0.23974  0.64659  1.0000
  C   C65       1.0  0.13726  0.22339  0.63733  1.0000
  C   C66       1.0  0.15274  0.21005  0.63381  1.0000
  C   C67       1.0  0.17064  0.21284  0.63958  1.0000
  C   C68       1.0  0.17277  0.22915  0.64890  1.0000
  C   C69       1.0  0.15729  0.24252  0.65237  1.0000
  H   H115      1.0  0.19703  0.06128  0.49048  1.0000
  H   H116      1.0  0.15082  0.19762  0.62666  1.0000
  H   H117      1.0  0.14255  0.09147  0.45972  1.0000
  H   H118      1.0  0.24605  0.09497  0.39076  1.0000
  C   C70       1.0  0.14603  0.19728  0.40555  1.0000
  C   C71       1.0  0.15426  0.20048  0.38712  1.0000
  C   C72       1.0  0.14765  0.21625  0.37505  1.0000
  C   C73       1.0  0.13280  0.22915  0.38119  1.0000
  C   C74       1.0  0.12446  0.22588  0.39957  1.0000
  C   C75       1.0  0.13104  0.21010  0.41162  1.0000
  H   H119      1.0  0.16577  0.19083  0.38217  1.0000
  H   H120      1.0  0.15420  0.21850  0.36087  1.0000
  H   H121      1.0  0.11288  0.23548  0.40448  1.0000
  H   H122      1.0  0.12445  0.20777  0.42577  1.0000
  C   C76       1.0  0.20357  0.12674  0.50312  1.0000
  C   C77       1.0  0.20837  0.14554  0.50026  1.0000
  C   C78       1.0  0.21355  0.15481  0.51562  1.0000
  C   C79       1.0  0.21359  0.14554  0.53401  1.0000
  C   C80       1.0  0.20905  0.12665  0.53678  1.0000
  C   C81       1.0  0.20433  0.11725  0.52135  1.0000
  H   H123      1.0  0.20788  0.15301  0.48631  1.0000
  H   H124      1.0  0.21712  0.16940  0.51335  1.0000
  H   H125      1.0  0.20923  0.11928  0.55080  1.0000
  H   H126      1.0  0.20091  0.10262  0.52366  1.0000
  H   H127      1.0  0.09600  0.04371  0.38948  1.0000
  C   C82       1.0  0.14345  0.05551  0.61822  1.0000
  C   C83       1.0  0.13423  0.06624  0.60362  1.0000
  C   C84       1.0  0.13736  0.08555  0.59952  1.0000
  C   C85       1.0  0.15022  0.09409  0.60950  1.0000
  C   C86       1.0  0.16002  0.08318  0.62355  1.0000
  C   C87       1.0  0.15642  0.06403  0.62807  1.0000
  H   H128      1.0  0.12414  0.05988  0.59601  1.0000
  H   H129      1.0  0.12963  0.09392  0.58873  1.0000
  H   H130      1.0  0.16986  0.08966  0.63140  1.0000
  H   H131      1.0  0.16357  0.05585  0.63942  1.0000
  C   C88       1.0  0.11578  0.05068  0.42798  1.0000
  C   C89       1.0  0.11596  0.07054  0.42695  1.0000
  C   C90       1.0  0.13305  0.07938  0.42322  1.0000
  C   C91       1.0  0.15009  0.06838  0.42036  1.0000
  C   C92       1.0  0.14993  0.04852  0.42177  1.0000
  C   C93       1.0  0.13290  0.03967  0.42570  1.0000
  H   H132      1.0  0.10276  0.07917  0.42869  1.0000
  H   H133      1.0  0.13297  0.09469  0.42202  1.0000
  H   H134      1.0  0.16309  0.03993  0.41960  1.0000
  H   H135      1.0  0.13297  0.02438  0.42656  1.0000
  H   H136      1.0  0.21555  0.14240  0.66694  1.0000
  C   C94       1.0  0.15009  0.27303  0.40584  1.0000
  C   C95       1.0  0.09557  0.37506  0.44734  1.0000
  C   C96       1.0  0.10430  0.35947  0.45772  1.0000
  C   C97       1.0  0.11057  0.34290  0.44880  1.0000
  C   C98       1.0  0.10795  0.34167  0.42953  1.0000
  C   C99       1.0  0.09921  0.35724  0.41917  1.0000
  C   C100      1.0  0.09308  0.37383  0.42803  1.0000
  H   H137      1.0  0.10632  0.36024  0.47257  1.0000
  H   H138      1.0  0.11740  0.33097  0.45692  1.0000
  H   H139      1.0  0.09744  0.35661  0.40425  1.0000
  H   H140      1.0  0.08647  0.38587  0.41986  1.0000
  C   C101      1.0  0.10335  0.35955  0.57350  1.0000
  C   C102      1.0  0.10858  0.34190  0.58306  1.0000
  C   C103      1.0  0.11085  0.34021  0.60269  1.0000
  C   C104      1.0  0.10837  0.35629  0.61286  1.0000
  C   C105      1.0  0.10301  0.37394  0.60334  1.0000
  C   C106      1.0  0.10009  0.37548  0.58384  1.0000
  H   H141      1.0  0.11101  0.32947  0.57522  1.0000
  H   H142      1.0  0.11504  0.32656  0.60984  1.0000
  H   H143      1.0  0.10088  0.38641  0.61114  1.0000
  H   H144      1.0  0.09544  0.38900  0.57677  1.0000
  H   H145      1.0  0.06661  0.27601  0.61612  1.0000
  H   H146      1.0  0.08611  0.23544  0.64611  1.0000
  H   H147      1.0  0.16164  0.02327  0.36672  1.0000
  C   C107      1.0  0.11887  0.47391  0.51535  1.0000
  H   H148      1.0  0.24978  0.19077  0.62974  1.0000
  C   C108      1.0  0.12381  0.01849  0.37665  1.0000
  H   H149      1.0  0.01924  0.35687  0.46629  1.0000
  H   H150      1.0  0.12205  0.48463  0.54228  1.0000
  C   C109      1.0  0.09046  0.03453  0.65236  1.0000
  C   C110      1.0  0.02372  0.41898  0.49711  1.0000
  C   C111      1.0  0.01880  0.42279  0.51588  1.0000
  C   C112      1.0  0.06469  0.48750  0.49004  1.0000
  H   H151      1.0  0.03752  0.42205  0.49060  1.0000
  H   H152      1.0  0.09728  0.03159  0.63824  1.0000
  C   C113      1.0  0.07150  0.26469  0.62691  1.0000
  S   S47       1.0  0.05162  0.01933  0.59436  1.0000
  H   H153      1.0  0.07406  0.30708  0.44041  1.0000
  H   H154      1.0  0.08375  0.02832  0.53212  1.0000
  H   H155      1.0  0.00973  0.46346  0.49892  1.0000
  H   H156      1.0  0.01438  0.40883  0.47198  1.0000
  H   H157      1.0  0.11320  0.26601  0.45057  1.0000
  C   C114      1.0  0.06697  0.05856  0.64026  1.0000
  H   H158      1.0  0.07558  0.03978  0.61750  1.0000
  H   H159      1.0  0.00749  0.35686  0.59972  1.0000
  C   C115      1.0  0.09978  0.06678  0.64505  1.0000
  H   H160      1.0  0.18422  0.27302  0.42529  1.0000
  H   H161      1.0  0.18057  0.23306  0.44403  1.0000
  C   C116      1.0  0.12228  0.05362  0.37479  1.0000
  S   S48       1.0  0.23846  0.11470  0.64543  1.0000
  H   H162      1.0  0.17400  0.26395  0.44696  1.0000
  H   H163      1.0  0.12702  0.05607  0.38886  1.0000
  H   H164      1.0  0.06914  0.34117  0.44321  1.0000
  H   H165      1.0  0.17324  0.26651  0.38434  1.0000
  C   C117      1.0  0.00521  0.34778  0.42754  1.0000
  H   H166      1.0  0.00731  0.34005  0.62055  1.0000
  H   H167      1.0  0.04477  0.33836  0.40357  1.0000
  H   H168      1.0  0.11971  0.08828  0.47111  1.0000
  H   H169      1.0  0.13294  0.11963  0.55939  1.0000
  H   H170      1.0  0.09494  0.06826  0.38183  1.0000
  N   N5        1.0  0.15935  0.05612  0.48027  1.0000
  C   C118      1.0  0.17358  0.06977  0.47189  1.0000
  C   C119      1.0  0.13958  0.06344  0.47517  1.0000
  C   C120      1.0  0.16425  0.03755  0.47156  1.0000
  C   C121      1.0  0.16019  0.05224  0.50145  1.0000
  C   C122      1.0  0.04009  0.23778  0.66522  1.0000
  H   H171      1.0  0.05151  0.30599  0.43118  1.0000
  N   N6        1.0  0.08355  0.05523  0.65256  1.0000
  C   C123      1.0  0.15790  0.06965  0.51301  1.0000
  H   H172      1.0  0.17250  0.07234  0.45626  1.0000
  H   H173      1.0  0.17067  0.08394  0.47736  1.0000
  H   H174      1.0  0.12870  0.05740  0.48561  1.0000
  H   H175      1.0  0.13644  0.05866  0.46132  1.0000
  H   H176      1.0  0.16599  0.04001  0.45584  1.0000
  H   H177      1.0  0.17806  0.03079  0.47608  1.0000
  H   H178      1.0  0.14897  0.04290  0.50744  1.0000
  H   H179      1.0  0.17379  0.04425  0.50498  1.0000
  C   C124      1.0  0.17209  0.22810  0.43326  1.0000
  H   H180      1.0  0.14385  0.02595  0.34051  1.0000
  Fe  Fe26      1.0  0.09139  0.00851  0.43173  1.0000
  C   C125      1.0  0.04671  0.48542  0.53015  1.0000
  H   H181      1.0  0.12353  0.22105  0.63278  1.0000
  H   H182      1.0  0.02487  0.32365  0.42651  1.0000
  H   H183      1.0  0.15927  0.28798  0.37908  1.0000
  H   H184      1.0  0.16895  0.07967  0.50886  1.0000
  H   H185      1.0  0.15942  0.06475  0.52818  1.0000
  H   H186      1.0  0.02382  0.37038  0.40236  1.0000
  N   N7        1.0  0.15450  0.40381  0.55464  1.0000
  C   C126      1.0  0.15980  0.39672  0.53539  1.0000
  C   C127      1.0  0.16291  0.42263  0.55477  1.0000
  C   C128      1.0  0.13316  0.40650  0.55692  1.0000
  C   C129      1.0  0.16194  0.38904  0.56945  1.0000
  C   C130      1.0  0.15237  0.37756  0.53200  1.0000
  C   C131      1.0  0.18471  0.42208  0.55302  1.0000
  C   C132      1.0  0.12439  0.42049  0.57117  1.0000
  C   C133      1.0  0.16000  0.39412  0.59018  1.0000
  H   H187      1.0  0.15477  0.40741  0.52395  1.0000
  H   H188      1.0  0.17539  0.39470  0.53268  1.0000
  H   H189      1.0  0.15841  0.42969  0.56781  1.0000
  H   H190      1.0  0.15752  0.43274  0.54305  1.0000
  H   H191      1.0  0.12727  0.41176  0.54316  1.0000
  H   H192      1.0  0.12701  0.39271  0.56095  1.0000
  H   H193      1.0  0.15441  0.37587  0.56959  1.0000
  H   H194      1.0  0.17697  0.38416  0.56587  1.0000
  H   H195      1.0  0.13692  0.37729  0.53515  1.0000
  H   H196      1.0  0.15523  0.37501  0.51681  1.0000
  H   H197      1.0  0.15969  0.36552  0.54034  1.0000
  H   H198      1.0  0.19122  0.41215  0.56409  1.0000
  H   H199      1.0  0.19065  0.41870  0.53874  1.0000
  H   H200      1.0  0.18901  0.43644  0.55495  1.0000
  H   H201      1.0  0.12642  0.43540  0.56569  1.0000
  H   H202      1.0  0.12975  0.41760  0.58540  1.0000
  H   H203      1.0  0.10887  0.41938  0.57295  1.0000
  H   H204      1.0  0.14618  0.39017  0.59718  1.0000
  H   H205      1.0  0.16178  0.40917  0.59180  1.0000
  H   H206      1.0  0.17147  0.38606  0.59804  1.0000
  H   H207      1.0  0.04387  0.36850  0.38582  1.0000
  H   H208      1.0  0.20321  0.07550  0.46932  1.0000
  C   C134      1.0  0.03946  0.36467  0.44219  1.0000
  H   H209      1.0  0.08100  0.26084  0.66648  1.0000
  H   H210      1.0  0.19985  0.05122  0.46763  1.0000
  H   H211      1.0  0.10604  0.09418  0.63087  1.0000
  H   H212      1.0  0.03118  0.02516  0.53595  1.0000
  N   N8        1.0  0.14580  0.14568  0.54899  1.0000
  C   C135      1.0  0.13808  0.15492  0.56660  1.0000
  C   C136      1.0  0.16558  0.15176  0.54434  1.0000
  C   C137      1.0  0.14689  0.12449  0.55386  1.0000
  C   C138      1.0  0.13276  0.15159  0.53329  1.0000
  C   C139      1.0  0.11835  0.14960  0.57497  1.0000
  C   C140      1.0  0.16727  0.17337  0.54104  1.0000
  C   C141      1.0  0.15324  0.11200  0.53765  1.0000
  C   C142      1.0  0.14140  0.15079  0.51264  1.0000
  H   H213      1.0  0.14794  0.15165  0.57812  1.0000
  H   H214      1.0  0.13690  0.17064  0.56391  1.0000
  H   H215      1.0  0.17245  0.14544  0.53167  1.0000
  H   H216      1.0  0.17490  0.14637  0.55594  1.0000
  H   H217      1.0  0.15668  0.12044  0.56536  1.0000
  H   H218      1.0  0.12700  0.16657  0.53435  1.0000
  H   H219      1.0  0.11897  0.13516  0.58248  1.0000
  H   H220      1.0  0.10773  0.15088  0.56419  1.0000
  H   H221      1.0  0.16620  0.17997  0.55469  1.0000
  H   H222      1.0  0.18150  0.17607  0.53425  1.0000
  H   H223      1.0  0.15663  0.18056  0.53167  1.0000
  H   H224      1.0  0.15485  0.09700  0.54367  1.0000
  H   H225      1.0  0.13035  0.14710  0.50363  1.0000
  H   H226      1.0  0.14540  0.16501  0.50661  1.0000
  H   H227      1.0  0.06220  0.47292  0.49619  1.0000
  H   H228      1.0  0.10623  0.06190  0.63148  1.0000
  C   C143      1.0  0.03323  0.36278  0.46351  1.0000
  C   C144      1.0  0.05634  0.33347  0.44190  1.0000
  H   H229      1.0  0.11598  0.27491  0.42642  1.0000
  H   H230      1.0  0.07828  0.49651  0.54454  1.0000
  C   C145      1.0  0.06786  0.50060  0.50551  1.0000
  H   H231      1.0  0.15354  0.14025  0.51056  1.0000
  C   C146      1.0  0.02320  0.33650  0.43454  1.0000
  H   H232      1.0  0.12029  0.14291  0.53495  1.0000
  S   S49       1.0  0.08359  0.28877  0.35158  1.0000
  H   H233      1.0  0.04034  0.47629  0.52078  1.0000
  H   H234      1.0  0.15942  0.23722  0.40714  1.0000
  H   H235      1.0  0.02934  0.37553  0.43555  1.0000
  H   H236      1.0  0.16711  0.11536  0.53072  1.0000
  H   H237      1.0  0.07913  0.25320  0.61909  1.0000
  C   C147      1.0  0.13510  0.08517  0.47280  1.0000
  H   H238      1.0  0.03362  0.01687  0.55963  1.0000
  H   H239      1.0  0.17318  0.34065  0.66327  1.0000
  H   H240      1.0  0.04603  0.00321  0.49114  1.0000
  H   H241      1.0  0.07198  0.02047  0.51345  1.0000
  H   H242      1.0  0.01925  0.49461  0.54449  1.0000
  H   H243      1.0  0.24677  0.15286  0.45823  1.0000
  H   H244      1.0  0.13870  0.09248  0.48497  1.0000
  C   C148      1.0  0.24290  0.11516  0.46571  1.0000
  H   H245      1.0  0.02061  0.33493  0.59876  1.0000
  H   H246      1.0  0.03118  0.28177  0.35635  1.0000
  C   C149      1.0  0.14995  0.02224  0.47629  1.0000
  H   H247      1.0  0.05819  0.05834  0.61159  1.0000
  H   H248      1.0  0.24705  0.15047  0.43355  1.0000
  H   H249      1.0  0.10873  0.01849  0.37372  1.0000
  H   H250      1.0  0.04649  0.24936  0.62993  1.0000
  C   C150      1.0  0.15277  0.03479  0.37349  1.0000
  H   H251      1.0  0.13354  0.24426  0.43150  1.0000
  C   C151      1.0  0.11106  0.00346  0.50599  1.0000
  C   C152      1.0  0.11512  0.49806  0.48906  1.0000
  C   C153      1.0  0.01755  0.28699  0.36242  1.0000
  H   H252      1.0  0.09367  0.05158  0.36475  1.0000
  C   C154      1.0  0.01070  0.41141  0.48662  1.0000
  H   H253      1.0  0.06718  0.00915  0.55633  1.0000
  H   H254      1.0  0.12363  0.01818  0.39240  1.0000
  H   H255      1.0  0.18650  0.23150  0.65344  1.0000
  H   H256      1.0  0.03917  0.49331  0.55924  1.0000
  H   H257      1.0  0.17608  0.30085  0.43867  1.0000
  H   H258      1.0  0.01304  0.03081  0.58767  1.0000
  H   H259      1.0  0.07840  0.02529  0.65483  1.0000
  H   H260      1.0  0.11323  0.15943  0.58588  1.0000
  H   H261      1.0  0.14033  0.26477  0.39887  1.0000
  C   C155      1.0  0.01269  0.30240  0.64872  1.0000
  H   H262      1.0  0.05296  0.49309  0.48119  1.0000
  H   H263      1.0  0.23167  0.12694  0.46504  1.0000
  H   H264      1.0  0.06989  0.31863  0.41770  1.0000
  H   H265      1.0  0.13948  0.05048  0.34010  1.0000
  H   H266      1.0  0.05937  0.03560  0.53053  1.0000
  C   C156      1.0  0.01326  0.01703  0.59557  1.0000
  C   C157      1.0  0.02893  0.30413  0.65851  1.0000
  C   C158      1.0  0.12364  0.27161  0.43948  1.0000
  C   C159      1.0  0.01109  0.00534  0.54684  1.0000
  H   H267      1.0  0.18684  0.39627  0.65236  1.0000
  H   H268      1.0  0.14473  0.25124  0.45103  1.0000
  H   H269      1.0  0.22600  0.17517  0.64513  1.0000
  H   H270      1.0  0.14908  0.01731  0.49159  1.0000
  H   H271      1.0  0.04250  0.30570  0.65079  1.0000
  C   C160      1.0  0.11625  0.47886  0.49617  1.0000
  C   C161      1.0  0.11972  0.48835  0.52747  1.0000
  H   H272      1.0  0.12805  0.28485  0.44420  1.0000
  C   C162      1.0  0.10051  0.05404  0.37765  1.0000
  C   C163      1.0  0.13356  0.03706  0.34621  1.0000
  C   C164      1.0  0.03058  0.00784  0.60089  1.0000
  H   H273      1.0  0.06326  0.35121  0.41009  1.0000
  S   S50       1.0  0.12617  0.01138  0.53822  1.0000
  H   H274      1.0  0.05549  0.04939  0.64599  1.0000
  H   H275      1.0  0.00308  0.48731  0.48884  1.0000
  H   H276      1.0  0.18059  0.21614  0.42688  1.0000
  H   H277      1.0  0.03489  0.22895  0.65479  1.0000
  H   H278      1.0  0.13560  0.02698  0.47172  1.0000
  H   H279      1.0  0.08154  0.27080  0.63535  1.0000
  H   H280      1.0  0.01392  0.30252  0.63345  1.0000
  H   H281      1.0  0.08934  0.20476  0.66387  1.0000
  H   H282      1.0  0.16195  0.37240  0.65190  1.0000
  H   H283      1.0  0.04522  0.38139  0.40601  1.0000
  C   C165      1.0  0.06309  0.31535  0.43205  1.0000
  C   C166      1.0  0.14011  0.25635  0.43668  1.0000
  C   C167      1.0  0.06579  0.00568  0.54153  1.0000
  H   H284      1.0  0.15914  0.22205  0.44019  1.0000
  N   N9        1.0  0.15683  0.26181  0.42349  1.0000
  C   C168      1.0  0.07004  0.02357  0.52851  1.0000
  C   C169      1.0  0.17029  0.27218  0.43349  1.0000
  H   H285      1.0  0.08025  0.49392  0.51293  1.0000
  H   H286      1.0  0.18118  0.24678  0.40956  1.0000
  H   H287      1.0  0.05148  0.32854  0.45664  1.0000
  N   N10       1.0  0.05840  0.24583  0.65751  1.0000
  H   H288      1.0  0.15313  0.03094  0.38900  1.0000
  H   H289      1.0  0.11591  0.46786  0.48664  1.0000
  Fe  Fe27      1.0  0.09824  0.31605  0.34935  1.0000
  C   C170      1.0  0.16744  0.24378  0.41735  1.0000
  H   H290      1.0  0.15687  0.06500  0.37658  1.0000
  H   H291      1.0  0.15657  0.29188  0.45343  1.0000
  H   H292      1.0  0.05323  0.37134  0.44064  1.0000
  H   H293      1.0  0.22733  0.20706  0.65180  1.0000
  C   C171      1.0  0.03865  0.00647  0.50497  1.0000
  H   H294      1.0  0.14143  0.28620  0.40899  1.0000
  C   C172      1.0  0.16362  0.29234  0.43892  1.0000
  H   H295      1.0  0.15419  0.30054  0.42896  1.0000
  C   C173      1.0  0.04766  0.35033  0.41178  1.0000
  C   C174      1.0  0.07129  0.05491  0.61924  1.0000
  C   C175      1.0  0.16602  0.37737  0.66539  1.0000
  H   H296      1.0  0.08216  0.06396  0.61213  1.0000
  N   N11       1.0  0.04124  0.34650  0.43246  1.0000
  C   C176      1.0  0.16580  0.27893  0.39080  1.0000
  C   C177      1.0  0.16351  0.05291  0.36897  1.0000
  H   H297      1.0  0.07769  0.48632  0.48039  1.0000
  C   C178      1.0  0.19451  0.06376  0.47521  1.0000
  H   H298      1.0  0.05973  0.47686  0.53456  1.0000
  N   N12       1.0  0.13268  0.03597  0.36756  1.0000
  H   H299      1.0  0.01999  0.33063  0.44941  1.0000
  C   C179      1.0  0.00715  0.34173  0.60484  1.0000
  H   H300      1.0  0.17603  0.28746  0.39659  1.0000
  H   H301      1.0  0.24051  0.15403  0.64937  1.0000
  C   C180      1.0  0.09585  0.08848  0.64219  1.0000
  H   H302      1.0  0.08177  0.09310  0.63708  1.0000
  H   H303      1.0  0.15483  0.00965  0.46854  1.0000
  H   H304      1.0  0.02973  0.47217  0.55356  1.0000
  H   H305      1.0  0.04139  0.02119  0.50699  1.0000
  H   H306      1.0  0.24949  0.11429  0.47944  1.0000
  H   H307      1.0  0.11166  0.06433  0.65454  1.0000
  H   H308      1.0  0.15699  0.39065  0.66700  1.0000
  S   S51       1.0  0.24390  0.13543  0.39798  1.0000
  H   H309      1.0  0.17801  0.05008  0.37398  1.0000
  H   H310      1.0  0.16509  0.05716  0.35357  1.0000
  H   H311      1.0  0.23569  0.10189  0.46547  1.0000
  C   C181      1.0  0.03288  0.48677  0.54783  1.0000
  H   H312      1.0  0.24971  0.11726  0.43551  1.0000
  S   S52       1.0  0.11919  0.25595  0.65063  1.0000
  H   H313      1.0  0.09782  0.09515  0.65538  1.0000
  H   H314      1.0  0.03180  0.37712  0.46877  1.0000
  H   H315      1.0  0.02402  0.00500  0.42187  1.0000
  H   H316      1.0  0.04395  0.35435  0.47200  1.0000
  H   H317      1.0  0.15921  0.25496  0.65952  1.0000
  Fe  Fe28      1.0  0.11722  0.00373  0.56884  1.0000
  C   C182      1.0  0.05425  0.25749  0.63916  1.0000
  H   H318      1.0  0.10969  0.01194  0.66434  1.0000
  C   C183      1.0  0.07285  0.22984  0.65286  1.0000
  S   S53       1.0  0.13271  0.30827  0.66676  1.0000
  H   H319      1.0  0.00410  0.36289  0.43035  1.0000
  C   C184      1.0  0.03131  0.01202  0.54560  1.0000
  C   C185      1.0  0.10510  0.02692  0.66681  1.0000
  H   H320      1.0  0.11807  0.03472  0.66504  1.0000
  H   H321      1.0  0.10479  0.02704  0.34470  1.0000
  H   H322      1.0  0.19579  0.37205  0.65498  1.0000
  H   H323      1.0  0.04476  0.27034  0.64194  1.0000
  H   H324      1.0  0.01630  0.47053  0.47482  1.0000
  H   H325      1.0  0.01815  0.26053  0.65753  1.0000
  C   C186      1.0  0.11478  0.03648  0.33680  1.0000
  C   C187      1.0  0.00479  0.47220  0.48617  1.0000
  C   C188      1.0  0.23933  0.16939  0.65151  1.0000
  Fe  Fe29      1.0  0.11401  0.28465  0.66368  1.0000
  H   H326      1.0  0.00407  0.34652  0.41219  1.0000
  C   C189      1.0  0.22816  0.20803  0.66720  1.0000
  H   H327      1.0  0.02335  0.00570  0.50322  1.0000
  H   H328      1.0  0.00169  0.27476  0.34244  1.0000
  H   H329      1.0  0.20194  0.48296  0.86437  1.0000
  S   S54       1.0  0.02262  0.41375  0.92543  1.0000
  H   H330      1.0  0.25079  0.42740  0.86669  1.0000
  H   H331      1.0  0.05848  0.27288  0.66927  1.0000
  H   H332      1.0  0.03513  0.42219  0.99311  1.0000
  Fe  Fe30      1.0  0.02275  0.39937  0.89871  1.0000
  S   S55       1.0  0.04372  0.40739  0.87409  1.0000
  C   C190      1.0  0.22067  0.42490  0.86180  1.0000
  Fe  Fe31      1.0  0.19048  0.38785  0.82631  1.0000
  S   S56       1.0  0.18244  0.40811  0.80094  1.0000
  S   S57       1.0  0.22244  0.38184  0.83027  1.0000
  Fe  Fe32      1.0  0.14892  0.38446  0.83981  1.0000
  S   S58       1.0  0.13858  0.40424  0.81592  1.0000
  S   S59       1.0  0.12835  0.37127  0.86225  1.0000
  Fe  Fe33      1.0  0.15990  0.38822  0.79714  1.0000
  S   S60       1.0  0.14790  0.38377  0.76866  1.0000
  Fe  Fe34      1.0  0.16160  0.42236  0.82156  1.0000
  S   S61       1.0  0.15162  0.45326  0.82545  1.0000
  S   S62       1.0  0.16925  0.36710  0.82100  1.0000
  S   S63       1.0  0.17073  0.40337  0.84693  1.0000
  Fe  Fe35      1.0  0.11751  0.31115  0.69569  1.0000
  S   S64       1.0  0.10062  0.28599  0.69336  1.0000
  S   S65       1.0  0.13349  0.31347  0.72237  1.0000
  C   C191      1.0  0.09010  0.45293  0.87477  1.0000
  S   S66       1.0  0.04769  0.30470  0.69151  1.0000
  C   C192      1.0  0.14236  0.35721  0.68185  1.0000
  C   C193      1.0  0.06886  0.44966  0.87792  1.0000
  H   H333      1.0  0.24966  0.32815  0.98743  1.0000
  H   H334      1.0  0.24079  0.44793  0.83370  1.0000
  C   C194      1.0  0.05630  0.48298  0.87586  1.0000
  C   C195      1.0  0.24158  0.19208  0.67628  1.0000
  C   C196      1.0  0.14314  0.36359  0.75706  1.0000
  C   C197      1.0  0.12992  0.36587  0.74304  1.0000
  C   C198      1.0  0.12630  0.35058  0.73276  1.0000
  C   C199      1.0  0.13629  0.33289  0.73595  1.0000
  C   C200      1.0  0.14927  0.33053  0.75020  1.0000
  C   C201      1.0  0.15259  0.34570  0.76078  1.0000
  H   H335      1.0  0.12240  0.37959  0.74010  1.0000
  H   H336      1.0  0.11591  0.35253  0.72224  1.0000
  H   H337      1.0  0.15700  0.31688  0.75294  1.0000
  H   H338      1.0  0.16284  0.34368  0.77146  1.0000
  C   C202      1.0  0.23622  0.37129  0.84917  1.0000
  H   H339      1.0  0.02761  0.44479  0.98217  1.0000
  C   C203      1.0  0.00182  0.49910  0.92683  1.0000
  C   C204      1.0  0.22803  0.36453  0.86678  1.0000
  H   H340      1.0  0.09746  0.44086  0.86755  1.0000
  H   H341      1.0  0.21278  0.36529  0.86915  1.0000
  C   C205      1.0  0.18128  0.47439  0.81040  1.0000
  C   C206      1.0  0.16394  0.47407  0.82108  1.0000
  C   C207      1.0  0.15625  0.49067  0.82905  1.0000
  H   H342      1.0  0.18718  0.46179  0.80400  1.0000
  H   H343      1.0  0.15018  0.39708  0.69586  1.0000
  C   C208      1.0  0.06728  0.39732  0.87159  1.0000
  C   C209      1.0  0.07407  0.38190  0.88355  1.0000
  C   C210      1.0  0.09289  0.37417  0.88072  1.0000
  C   C211      1.0  0.10512  0.38197  0.86612  1.0000
  C   C212      1.0  0.09837  0.39762  0.85444  1.0000
  C   C213      1.0  0.07951  0.40509  0.85702  1.0000
  H   H344      1.0  0.06478  0.37579  0.89485  1.0000
  H   H345      1.0  0.09798  0.36207  0.88985  1.0000
  H   H346      1.0  0.10758  0.40389  0.84328  1.0000
  H   H347      1.0  0.07438  0.41699  0.84767  1.0000
  H   H348      1.0  0.16804  0.44987  0.86873  1.0000
  H   H349      1.0  0.23926  0.45750  0.86409  1.0000
  H   H350      1.0  0.00862  0.30149  0.70341  1.0000
  C   C214      1.0  0.02287  0.43050  0.98676  1.0000
  H   H351      1.0  0.08770  0.22338  0.67902  1.0000
  H   H352      1.0  0.06149  0.07825  0.69127  1.0000
  H   H353      1.0  0.07717  0.43875  0.91489  1.0000
  H   H354      1.0  0.24627  0.37108  0.96457  1.0000
  H   H355      1.0  0.15991  0.32090  0.69043  1.0000
  H   H356      1.0  0.14283  0.49056  0.83731  1.0000
  H   H357      1.0  0.11275  0.36742  0.68323  1.0000
  H   H358      1.0  0.21627  0.44045  0.80619  1.0000
  H   H359      1.0  0.23273  0.37575  0.93430  1.0000
  H   H360      1.0  0.13933  0.34617  0.69354  1.0000
  H   H361      1.0  0.24194  0.36025  0.99599  1.0000
  C   C215      1.0  0.24446  0.36452  0.93604  1.0000
  H   H362      1.0  0.21077  0.42305  0.82501  1.0000
  H   H363      1.0  0.09270  0.46593  0.86538  1.0000
  H   H364      1.0  0.22038  0.46195  0.82656  1.0000
  C   C216      1.0  0.06473  0.25192  0.69217  1.0000
  H   H365      1.0  0.02845  0.46543  0.90255  1.0000
  H   H366      1.0  0.23298  0.35122  0.89473  1.0000
  H   H367      1.0  0.06069  0.23735  0.69605  1.0000
  N   N13       1.0  0.09949  0.35470  0.80741  1.0000
  C   C217      1.0  0.08954  0.37431  0.80828  1.0000
  C   C218      1.0  0.08856  0.34155  0.82124  1.0000
  C   C219      1.0  0.09852  0.34905  0.78755  1.0000
  C   C220      1.0  0.11975  0.35554  0.81214  1.0000
  C   C221      1.0  0.09625  0.38973  0.79308  1.0000
  C   C222      1.0  0.08776  0.34600  0.84215  1.0000
  C   C223      1.0  0.10674  0.32896  0.78352  1.0000
  C   C224      1.0  0.13085  0.33662  0.81858  1.0000
  H   H368      1.0  0.07400  0.37393  0.80723  1.0000
  H   H369      1.0  0.09114  0.37986  0.82218  1.0000
  H   H370      1.0  0.09405  0.32656  0.82090  1.0000
  H   H371      1.0  0.07367  0.34166  0.81725  1.0000
  H   H372      1.0  0.08356  0.35048  0.78353  1.0000
  H   H373      1.0  0.10636  0.35870  0.77713  1.0000
  H   H374      1.0  0.12814  0.36225  0.79985  1.0000
  H   H375      1.0  0.12044  0.36504  0.82366  1.0000
  H   H376      1.0  0.11183  0.39006  0.79178  1.0000
  H   H377      1.0  0.09112  0.38789  0.77903  1.0000
  H   H378      1.0  0.09029  0.40387  0.79711  1.0000
  H   H379      1.0  0.07901  0.35933  0.84465  1.0000
  H   H380      1.0  0.08100  0.33449  0.85120  1.0000
  H   H381      1.0  0.10205  0.34673  0.84716  1.0000
  H   H382      1.0  0.09963  0.31763  0.79236  1.0000
  H   H383      1.0  0.12224  0.32726  0.78472  1.0000
  H   H384      1.0  0.10455  0.32681  0.76855  1.0000
  H   H385      1.0  0.14469  0.33547  0.81022  1.0000
  H   H386      1.0  0.12395  0.32358  0.81697  1.0000
  H   H387      1.0  0.13420  0.33660  0.83363  1.0000
  C   C225      1.0  0.22516  0.44777  0.83333  1.0000
  H   H388      1.0  0.24050  0.19343  0.69184  1.0000
  H   H389      1.0  0.07202  0.45362  0.93385  1.0000
  C   C226      1.0  0.04367  0.49966  0.88379  1.0000
  C   C227      1.0  0.02759  0.30372  0.67830  1.0000
  H   H390      1.0  0.21279  0.41442  0.85544  1.0000
  C   C228      1.0  0.06316  0.07623  0.67589  1.0000
  C   C229      1.0  0.18317  0.44588  0.87128  1.0000
  H   H391      1.0  0.18220  0.36625  0.70253  1.0000
  C   C230      1.0  0.02276  0.47429  0.94137  1.0000
  H   H392      1.0  0.05448  0.47787  0.91433  1.0000
  H   H393      1.0  0.03240  0.45028  0.86283  1.0000
  H   H394      1.0  0.18944  0.43882  0.84273  1.0000
  C   C231      1.0  0.01754  0.37862  0.99059  1.0000
  H   H395      1.0  0.24713  0.41547  0.84590  1.0000
  H   H396      1.0  0.23178  0.35258  0.96253  1.0000
  H   H397      1.0  0.15619  0.39027  0.71945  1.0000
  C   C232      1.0  0.19103  0.49103  0.80818  1.0000
  S   S67       1.0  0.09447  0.33197  0.68500  1.0000
  H   H398      1.0  0.24326  0.32260  0.95427  1.0000
  H   H399      1.0  0.23471  0.42464  0.81544  1.0000
  H   H400      1.0  0.24354  0.40383  0.86900  1.0000
  H   H401      1.0  0.03776  0.44252  0.89773  1.0000
  H   H402      1.0  0.12614  0.37865  0.69837  1.0000
  C   C233      1.0  0.06666  0.44956  0.92060  1.0000
  H   H403      1.0  0.06783  0.43534  0.88557  1.0000
  H   H404      1.0  0.18723  0.45521  0.88172  1.0000
  C   C234      1.0  0.17322  0.32751  0.69186  1.0000
  C   C235      1.0  0.00981  0.30184  0.68810  1.0000
  H   H405      1.0  0.06773  0.20906  0.67770  1.0000
  N   N14       1.0  0.05655  0.46445  0.88803  1.0000
  H   H406      1.0  0.21956  0.45496  0.88055  1.0000
  H   H407      1.0  0.01181  0.24514  0.67780  1.0000
  H   H408      1.0  0.09906  0.02690  0.68166  1.0000
  H   H409      1.0  0.03574  0.46985  0.94811  1.0000
  H   H410      1.0  0.17406  0.33066  0.70676  1.0000
  H   H411      1.0  0.21568  0.17309  0.69511  1.0000
  H   H412      1.0  0.07781  0.47410  0.90457  1.0000
  C   C236      1.0  0.17530  0.34509  0.67759  1.0000
  H   H413      1.0  0.05258  0.48132  0.86118  1.0000
  Fe  Fe36      1.0  0.01296  0.38677  0.94062  1.0000
  H   H414      1.0  0.19118  0.46279  0.84571  1.0000
  C   C237      1.0  0.21725  0.47976  0.86066  1.0000
  H   H415      1.0  0.01982  0.42320  0.97430  1.0000
  C   C238      1.0  0.23958  0.35659  0.88134  1.0000
  H   H416      1.0  0.18401  0.43089  0.87733  1.0000
  H   H417      1.0  0.09691  0.45324  0.88826  1.0000
  C   C239      1.0  0.24565  0.35804  0.95727  1.0000
  H   H418      1.0  0.07875  0.25258  0.69788  1.0000
  H   H419      1.0  0.17411  0.39789  0.70260  1.0000
  C   C240      1.0  0.06407  0.46746  0.90671  1.0000
  H   H420      1.0  0.19651  0.14850  0.68363  1.0000
  H   H421      1.0  0.05308  0.44317  0.92464  1.0000
  H   H422      1.0  0.06380  0.44833  0.86369  1.0000
  C   C241      1.0  0.22138  0.43305  0.81952  1.0000
  C   C242      1.0  0.16675  0.36868  0.70058  1.0000
  H   H423      1.0  0.21588  0.42357  0.87711  1.0000
  H   H424      1.0  0.21866  0.13901  0.69211  1.0000
  Fe  Fe37      1.0  0.07853  0.30683  0.68046  1.0000
  H   H425      1.0  0.18486  0.31658  0.68874  1.0000
  S   S68       1.0  0.01529  0.37141  0.91386  1.0000
  C   C243      1.0  0.01010  0.46087  0.93842  1.0000
  N   N15       1.0  0.21606  0.44482  0.85314  1.0000
  C   C244      1.0  0.06595  0.25847  0.67069  1.0000
  S   S69       1.0  0.02855  0.37945  0.96740  1.0000
  C   C245      1.0  0.02511  0.45834  0.87426  1.0000
  C   C246      1.0  0.02377  0.25255  0.67034  1.0000
  C   C247      1.0  0.03697  0.45755  0.89166  1.0000
  H   H426      1.0  0.02796  0.26264  0.67997  1.0000
  C   C248      1.0  0.24180  0.41780  0.86064  1.0000
  C   C249      1.0  0.19495  0.44832  0.85222  1.0000
  H   H427      1.0  0.05481  0.26185  0.70002  1.0000
  H   H428      1.0  0.15984  0.35968  0.71232  1.0000
  C   C250      1.0  0.12662  0.37325  0.68420  1.0000
  H   H429      1.0  0.19264  0.38589  0.67534  1.0000
  N   N16       1.0  0.16249  0.36255  0.68162  1.0000
  H   H430      1.0  0.08990  0.06061  0.68089  1.0000
  C   C251      1.0  0.22352  0.45855  0.86525  1.0000
  C   C252      1.0  0.16138  0.38966  0.70433  1.0000
  H   H431      1.0  0.03089  0.49523  0.89233  1.0000
  H   H432      1.0  0.20451  0.49115  0.80004  1.0000
  H   H433      1.0  0.01322  0.44621  0.94325  1.0000
  H   H434      1.0  0.19044  0.34806  0.67738  1.0000
  H   H435      1.0  0.24123  0.35280  0.92781  1.0000
  H   H436      1.0  0.04184  0.22779  0.67795  1.0000
  H   H437      1.0  0.07075  0.48807  0.87377  1.0000
  H   H438      1.0  0.02122  0.47315  0.86870  1.0000
  C   C253      1.0  0.01872  0.49339  0.93528  1.0000
  H   H439      1.0  0.01169  0.45164  0.87861  1.0000
  H   H440      1.0  0.22058  0.48474  0.84562  1.0000
  H   H441      1.0  0.12743  0.38491  0.67276  1.0000
  C   C254      1.0  0.21802  0.16891  0.68031  1.0000
  H   H442      1.0  0.04892  0.07374  0.67158  1.0000
  C   C255      1.0  0.07738  0.05897  0.67278  1.0000
  C   C256      1.0  0.21209  0.14846  0.68068  1.0000
  H   H443      1.0  0.22494  0.48843  0.86934  1.0000
  H   H444      1.0  0.07037  0.04659  0.68017  1.0000
  H   H445      1.0  0.21367  0.20813  0.67423  1.0000
  H   H446      1.0  0.20741  0.17794  0.67203  1.0000
  N   N17       1.0  0.23795  0.17221  0.67238  1.0000
  H   H447      1.0  0.24862  0.14330  0.68039  1.0000
  H   H448      1.0  0.24882  0.15907  0.69849  1.0000
  H   H449      1.0  0.14006  0.35080  0.66852  1.0000
  C   C257      1.0  0.07945  0.21615  0.66957  1.0000
  H   H450      1.0  0.23347  0.22200  0.66895  1.0000
  H   H451      1.0  0.06780  0.08960  0.66854  1.0000
  C   C258      1.0  0.25129  0.15806  0.68292  1.0000
  Fe  Fe38      1.0  0.02929  0.57009  0.11335  1.0000
  S   S70       1.0  0.05286  0.56059  0.13306  1.0000
  H   H452      1.0  0.05406  0.52820  0.00429  1.0000
  S   S71       1.0  0.02866  0.55213  0.08906  1.0000
  Fe  Fe39      1.0  0.18057  0.59067  0.18128  1.0000
  S   S72       1.0  0.17722  0.57041  0.20764  1.0000
  S   S73       1.0  0.20984  0.59099  0.16480  1.0000
  Fe  Fe40      1.0  0.13711  0.59675  0.17916  1.0000
  S   S74       1.0  0.13131  0.57709  0.20506  1.0000
  S   S75       1.0  0.11286  0.61111  0.16270  1.0000
  Fe  Fe41      1.0  0.15380  0.59178  0.21757  1.0000
  S   S76       1.0  0.14950  0.59796  0.24894  1.0000
  Fe  Fe42      1.0  0.15487  0.55766  0.19310  1.0000
  S   S77       1.0  0.15004  0.52755  0.18653  1.0000
  S   S78       1.0  0.15848  0.61276  0.19209  1.0000
  S   S79       1.0  0.15926  0.57676  0.16634  1.0000
  H   H453      1.0  0.07177  0.62344  0.25977  1.0000
  H   H454      1.0  0.05402  0.52510  0.11568  1.0000
  S   S80       1.0  0.11066  0.66691  0.29421  1.0000
  C   C259      1.0  0.12209  0.64769  0.28207  1.0000
  C   C260      1.0  0.12533  0.65010  0.26220  1.0000
  C   C261      1.0  0.13409  0.63527  0.25187  1.0000
  C   C262      1.0  0.13938  0.61763  0.26125  1.0000
  C   C263      1.0  0.13639  0.61533  0.28114  1.0000
  C   C264      1.0  0.12789  0.63024  0.29150  1.0000
  H   H455      1.0  0.12102  0.66355  0.25473  1.0000
  H   H456      1.0  0.13659  0.63739  0.23665  1.0000
  H   H457      1.0  0.14054  0.60182  0.28860  1.0000
  H   H458      1.0  0.12557  0.62811  0.30675  1.0000
  C   C265      1.0  0.22727  0.60759  0.15831  1.0000
  C   C266      1.0  0.00670  0.69142  0.32111  1.0000
  H   H459      1.0  0.04681  0.57034  0.00518  1.0000
  C   C267      1.0  0.22500  0.62636  0.16310  1.0000
  H   H460      1.0  0.10428  0.62930  0.19728  1.0000
  H   H461      1.0  0.15052  0.73293  0.29360  1.0000
  H   H462      1.0  0.21229  0.63121  0.17116  1.0000
  C   C268      1.0  0.06961  0.57500  0.14064  1.0000
  C   C269      1.0  0.06903  0.59459  0.13579  1.0000
  C   C270      1.0  0.08251  0.60547  0.14240  1.0000
  C   C271      1.0  0.09671  0.59688  0.15383  1.0000
  C   C272      1.0  0.09731  0.57730  0.15862  1.0000
  C   C273      1.0  0.08380  0.56646  0.15209  1.0000
  H   H463      1.0  0.05818  0.60135  0.12699  1.0000
  H   H464      1.0  0.08191  0.62061  0.13864  1.0000
  H   H465      1.0  0.10813  0.57049  0.16742  1.0000
  H   H466      1.0  0.08439  0.55133  0.15593  1.0000
  C   C274      1.0  0.09938  0.61183  0.23225  1.0000
  C   C275      1.0  0.02228  0.58300  0.02038  1.0000
  H   H467      1.0  0.13246  0.69552  0.30745  1.0000
  H   H468      1.0  0.05234  0.63957  0.25328  1.0000
  H   H469      1.0  0.23728  0.65336  0.16132  1.0000
  S   S81       1.0  0.03292  0.57946  0.04234  1.0000
  Fe  Fe43      1.0  0.01800  0.57853  0.07197  1.0000
  C   C276      1.0  0.16500  0.68119  0.25989  1.0000
  H   H470      1.0  0.10231  0.66200  0.20252  1.0000
  H   H471      1.0  0.22818  0.66499  0.06523  1.0000
  H   H472      1.0  0.21870  0.64303  0.10294  1.0000
  C   C277      1.0  0.23596  0.65112  0.06909  1.0000
  H   H473      1.0  0.09971  0.58077  0.23697  1.0000
  H   H474      1.0  0.18149  0.53020  0.13541  1.0000
  H   H475      1.0  0.10575  0.59218  0.25676  1.0000
  S   S82       1.0  0.02062  0.59714  0.09580  1.0000
  H   H476      1.0  0.23428  0.61440  0.10707  1.0000
  H   H477      1.0  0.03167  0.54307  0.02650  1.0000
  H   H478      1.0  0.10170  0.62274  0.24181  1.0000
  C   C278      1.0  0.09106  0.63439  0.20537  1.0000
  H   H479      1.0  0.18213  0.50838  0.16439  1.0000
  H   H480      1.0  0.22667  0.52014  0.14065  1.0000
  H   H481      1.0  0.10485  0.65013  0.22543  1.0000
  H   H482      1.0  0.07584  0.64595  0.24703  1.0000
  C   C279      1.0  0.17860  0.70376  0.29070  1.0000
  H   H483      1.0  0.13857  0.68760  0.27557  1.0000
  Fe  Fe44      1.0  0.10471  0.67254  0.32564  1.0000
  C   C280      1.0  0.21901  0.67290  0.10402  1.0000
  N   N18       1.0  0.08402  0.61858  0.21910  1.0000
  H   H484      1.0  0.09428  0.59727  0.19998  1.0000
  H   H485      1.0  0.21430  0.50993  0.19424  1.0000
  H   H486      1.0  0.07605  0.58998  0.21690  1.0000
  H   H487      1.0  0.07617  0.52355  0.08812  1.0000
  S   S83       1.0  0.09234  0.70217  0.33097  1.0000
  C   C281      1.0  0.24399  0.60160  0.14783  1.0000
  H   H488      1.0  0.15081  0.70760  0.26685  1.0000
  H   H489      1.0  0.05691  0.63496  0.22022  1.0000
  H   H490      1.0  0.24051  0.69149  0.07784  1.0000
  H   H491      1.0  0.23577  0.64991  0.11751  1.0000
  H   H492      1.0  0.17917  0.70703  0.32202  1.0000
  H   H493      1.0  0.05675  0.61253  0.23332  1.0000
  H   H494      1.0  0.17741  0.71544  0.27914  1.0000
  C   C282      1.0  0.09612  0.59343  0.24499  1.0000
  H   H495      1.0  0.05200  0.61218  0.19893  1.0000
  C   C283      1.0  0.06586  0.60653  0.19274  1.0000
  C   C284      1.0  0.08083  0.60238  0.20760  1.0000
  H   H496      1.0  0.16380  0.66576  0.26350  1.0000
  H   H497      1.0  0.08188  0.66073  0.21849  1.0000
  H   H498      1.0  0.00576  0.54674  0.04862  1.0000
  H   H499      1.0  0.08140  0.59311  0.25127  1.0000
  C   C285      1.0  0.24442  0.61435  0.09441  1.0000
  H   H500      1.0  0.11327  0.60950  0.22410  1.0000
  H   H501      1.0  0.17010  0.51175  0.22003  1.0000
  C   C286      1.0  0.22970  0.65322  0.10347  1.0000
  C   C287      1.0  0.06557  0.62478  0.22957  1.0000
  H   H502      1.0  0.07074  0.61624  0.18058  1.0000
  H   H503      1.0  0.08072  0.63904  0.19460  1.0000
  H   H504      1.0  0.06402  0.51081  0.14467  1.0000
  C   C288      1.0  0.06675  0.63395  0.24835  1.0000
  N   N19       1.0  0.20788  0.52232  0.16588  1.0000
  H   H505      1.0  0.12979  0.73098  0.30937  1.0000
  H   H506      1.0  0.21252  0.67769  0.09052  1.0000
  C   C289      1.0  0.19660  0.54004  0.15835  1.0000
  H   H507      1.0  0.12943  0.72391  0.28600  1.0000
  H   H508      1.0  0.08704  0.51235  0.10840  1.0000
  C   C290      1.0  0.05050  0.52021  0.01812  1.0000
  C   C291      1.0  0.24968  0.64606  0.05206  1.0000
  C   C292      1.0  0.03263  0.57698  0.00405  1.0000
  H   H509      1.0  0.18419  0.55499  0.13367  1.0000
  C   C293      1.0  0.19152  0.54087  0.13751  1.0000
  H   H510      1.0  0.25004  0.63070  0.05009  1.0000
  N   N20       1.0  0.24490  0.65089  0.08767  1.0000
  H   H511      1.0  0.06146  0.52284  0.02773  1.0000
  N   N21       1.0  0.01370  0.52298  0.01716  1.0000
  C   C294      1.0  0.18461  0.71308  0.30799  1.0000
  H   H512      1.0  0.00777  0.69061  0.30593  1.0000
  H   H513      1.0  0.20419  0.53938  0.12755  1.0000
  H   H514      1.0  0.19063  0.69386  0.28594  1.0000
  H   H515      1.0  0.20029  0.71156  0.30806  1.0000
  H   H516      1.0  0.22455  0.64118  0.07024  1.0000
  H   H517      1.0  0.06355  0.59306  0.18670  1.0000
  C   C295      1.0  0.14526  0.70373  0.30553  1.0000
  C   C296      1.0  0.20817  0.52325  0.18701  1.0000
  C   C297      1.0  0.23925  0.63888  0.15751  1.0000
  H   H518      1.0  0.18075  0.72861  0.30665  1.0000
  H   H519      1.0  0.17329  0.65556  0.32623  1.0000
  C   C298      1.0  0.16410  0.67355  0.30176  1.0000
  H   H520      1.0  0.20419  0.55289  0.15947  1.0000
  C   C299      1.0  0.09518  0.65268  0.21382  1.0000
  C   C300      1.0  0.05595  0.51134  0.10921  1.0000
  H   H521      1.0  0.23434  0.53775  0.18843  1.0000
  H   H522      1.0  0.18301  0.54211  0.16699  1.0000
  C   C301      1.0  0.03094  0.52748  0.02667  1.0000
  C   C302      1.0  0.15285  0.69308  0.27411  1.0000
  H   H523      1.0  0.05167  0.50486  0.01637  1.0000
  C   C303      1.0  0.02332  0.69153  0.33081  1.0000
  H   H524      1.0  0.03264  0.51732  0.15196  1.0000
  H   H525      1.0  0.22828  0.68353  0.10798  1.0000
  H   H526      1.0  0.23323  0.53632  0.15563  1.0000
  C   C304      1.0  0.00404  0.59173  0.01872  1.0000
  H   H527      1.0  0.24516  0.65438  0.03892  1.0000
  H   H528      1.0  0.14938  0.70447  0.32014  1.0000
  C   C305      1.0  0.21913  0.53923  0.19324  1.0000
  H   H529      1.0  0.03703  0.69081  0.32309  1.0000
  N   N22       1.0  0.16053  0.69372  0.29332  1.0000
  H   H530      1.0  0.24597  0.58712  0.14408  1.0000
  H   H531      1.0  0.15952  0.68444  0.24561  1.0000
  H   H532      1.0  0.21828  0.53848  0.20898  1.0000
  H   H533      1.0  0.20729  0.67211  0.11528  1.0000
  C   C306      1.0  0.13860  0.72406  0.29797  1.0000
  H   H534      1.0  0.15067  0.66629  0.30341  1.0000
  H   H535      1.0  0.17390  0.66511  0.29227  1.0000
  H   H536      1.0  0.02508  0.52785  0.12925  1.0000
  C   C307      1.0  0.22737  0.52218  0.15591  1.0000
  C   C308      1.0  0.07579  0.51102  0.09871  1.0000
  H   H537      1.0  0.21300  0.55352  0.18836  1.0000
  H   H538      1.0  0.00958  0.51433  0.14472  1.0000
  H   H539      1.0  0.03002  0.52227  0.04195  1.0000
  C   C309      1.0  0.17315  0.67080  0.32095  1.0000
  H   H540      1.0  0.04550  0.51223  0.09818  1.0000
  H   H541      1.0  0.18006  0.68437  0.25874  1.0000
  H   H542      1.0  0.01698  0.51960  0.07597  1.0000
  C   C310      1.0  0.02466  0.51520  0.13959  1.0000
  H   H543      1.0  0.18809  0.67444  0.31940  1.0000
  H   H544      1.0  0.23695  0.61262  0.08160  1.0000
  H   H545      1.0  0.19344  0.52494  0.19354  1.0000
  H   H546      1.0  0.16519  0.67881  0.33199  1.0000
  C   C311      1.0  0.15575  0.50413  0.19654  1.0000
  C   C312      1.0  0.00703  0.50412  0.02529  1.0000
  C   C313      1.0  0.01275  0.50552  0.08007  1.0000
  C   C314      1.0  0.24252  0.50704  0.16335  1.0000
  H   H547      1.0  0.00458  0.50392  0.04093  1.0000
  C   C315      1.0  0.19771  0.50548  0.16167  1.0000
  H   H548      1.0  0.19995  0.50303  0.14638  1.0000
  H   H549      1.0  0.24022  0.50216  0.17850  1.0000
  Fe  Fe45      1.0  0.07984  0.59903  0.49096  1.0000
  S   S84       1.0  0.11001  0.59147  0.49747  1.0000
  S   S85       1.0  0.06879  0.62101  0.46836  1.0000
  Fe  Fe46      1.0  0.06536  0.57544  0.52638  1.0000
  S   S86       1.0  0.09437  0.56635  0.53610  1.0000
  S   S87       1.0  0.03834  0.56621  0.54162  1.0000
  Fe  Fe47      1.0  0.10035  0.59690  0.52760  1.0000
  S   S88       1.0  0.11449  0.61948  0.54099  1.0000
  Fe  Fe48      1.0  0.10140  0.56170  0.50528  1.0000
  S   S89       1.0  0.11574  0.53633  0.49130  1.0000
  S   S90       1.0  0.07061  0.60604  0.52054  1.0000
  S   S91       1.0  0.07198  0.56899  0.49622  1.0000
  Fe  Fe49      1.0  0.06577  0.97833  0.42290  1.0000
  S   S92       1.0  0.08560  0.95455  0.43468  1.0000
  H   H550      1.0  0.14842  0.92069  0.48399  1.0000
  H   H551      1.0  0.13168  0.79878  0.36372  1.0000
  C   C316      1.0  0.03899  0.65060  0.39251  1.0000
  Fe  Fe50      1.0  0.10903  0.97044  0.41982  1.0000
  S   S93       1.0  0.13642  0.95682  0.40714  1.0000
  Fe  Fe51      1.0  0.08775  0.97286  0.45820  1.0000
  S   S94       1.0  0.08773  0.95906  0.48789  1.0000
  H   H552      1.0  0.19022  0.77975  0.54155  1.0000
  S   S95       1.0  0.24907  0.83275  0.64024  1.0000
  H   H553      1.0  0.19349  0.88964  0.63533  1.0000
  S   S96       1.0  0.09474  0.98389  0.57839  1.0000
  C   C317      1.0  0.04610  0.98056  0.55439  1.0000
  H   H554      1.0  0.03205  0.97467  0.55512  1.0000
  N   N23       1.0  0.04705  0.99759  0.53999  1.0000
  Fe  Fe52      1.0  0.11306  0.97465  0.60257  1.0000
  S   S97       1.0  0.11589  0.94375  0.61413  1.0000
  H   H555      1.0  0.09012  0.83169  0.41385  1.0000
  Fe  Fe53      1.0  0.19419  0.85830  0.60046  1.0000
  S   S98       1.0  0.22438  0.84942  0.59132  1.0000
  S   S99       1.0  0.18841  0.88971  0.59208  1.0000
  Fe  Fe54      1.0  0.18627  0.81761  0.61653  1.0000
  S   S100      1.0  0.21613  0.80663  0.60894  1.0000
  S   S101      1.0  0.16219  0.79959  0.62912  1.0000
  Fe  Fe55      1.0  0.22521  0.83327  0.61993  1.0000
  H   H556      1.0  0.05775  0.66634  0.62186  1.0000
  Fe  Fe56      1.0  0.21243  0.82412  0.58108  1.0000
  S   S102      1.0  0.22144  0.81240  0.55263  1.0000
  S   S103      1.0  0.19535  0.84312  0.62958  1.0000
  S   S104      1.0  0.18231  0.83416  0.58814  1.0000
  Fe  Fe57      1.0  0.17513  0.80403  0.41592  1.0000
  S   S105      1.0  0.20111  0.80636  0.43196  1.0000
  S   S106      1.0  0.15977  0.77675  0.41477  1.0000
  Fe  Fe58      1.0  0.16849  0.84762  0.40987  1.0000
  S   S107      1.0  0.19405  0.85317  0.42472  1.0000
  S   S108      1.0  0.14404  0.86791  0.40023  1.0000
  Fe  Fe59      1.0  0.20868  0.82931  0.40880  1.0000
  H   H557      1.0  0.15891  0.88132  0.47853  1.0000
  Fe  Fe60      1.0  0.18498  0.83012  0.44675  1.0000
  S   S109      1.0  0.17852  0.83697  0.47761  1.0000
  S   S110      1.0  0.18352  0.82547  0.39207  1.0000
  S   S111      1.0  0.15862  0.82605  0.43258  1.0000
  Fe  Fe61      1.0  0.11281  0.65420  0.64420  1.0000
  S   S112      1.0  0.10695  0.68402  0.63128  1.0000
  S   S113      1.0  0.11251  0.62685  0.62986  1.0000
  H   H558      1.0  0.04414  0.62872  0.36428  1.0000
  H   H559      1.0  0.00266  0.97222  0.51266  1.0000
  H   H560      1.0  0.06766  0.51288  0.56068  1.0000
  Fe  Fe62      1.0  0.10569  0.66148  0.36832  1.0000
  S   S114      1.0  0.09383  0.69006  0.37647  1.0000
  S   S115      1.0  0.11504  0.63724  0.38943  1.0000
  Fe  Fe63      1.0  0.07342  0.68794  0.35388  1.0000
  S   S116      1.0  0.04236  0.69496  0.36313  1.0000
  Fe  Fe64      1.0  0.11370  0.70203  0.35307  1.0000
  S   S117      1.0  0.13282  0.72692  0.35194  1.0000
  S   S118      1.0  0.08424  0.65845  0.34721  1.0000
  S   S119      1.0  0.12706  0.67328  0.34631  1.0000
  H   H561      1.0  0.06956  0.82347  0.36894  1.0000
  C   C318      1.0  0.02207  0.69331  0.35033  1.0000
  H   H562      1.0  0.06067  0.53135  0.52445  1.0000
  H   H563      1.0  0.09146  0.78394  0.37795  1.0000
  H   H564      1.0  0.17950  0.75558  0.52198  1.0000
  H   H565      1.0  0.13420  0.99841  0.35541  1.0000
  C   C319      1.0  0.15722  0.65045  0.48943  1.0000
  H   H566      1.0  0.04652  0.52641  0.48300  1.0000
  C   C320      1.0  0.15320  0.76259  0.39705  1.0000
  C   C321      1.0  0.15898  0.76587  0.37782  1.0000
  C   C322      1.0  0.15271  0.75474  0.36434  1.0000
  C   C323      1.0  0.14067  0.74009  0.36980  1.0000
  C   C324      1.0  0.13507  0.73666  0.38905  1.0000
  C   C325      1.0  0.14132  0.74782  0.40253  1.0000
  H   H567      1.0  0.16830  0.77696  0.37333  1.0000
  H   H568      1.0  0.15723  0.75750  0.34953  1.0000
  H   H569      1.0  0.12584  0.72549  0.39354  1.0000
  H   H570      1.0  0.13677  0.74507  0.41733  1.0000
  C   C326      1.0  0.16020  0.77456  0.63238  1.0000
  C   C327      1.0  0.14221  0.76773  0.63687  1.0000
  C   C328      1.0  0.13986  0.74806  0.63960  1.0000
  C   C329      1.0  0.15554  0.73490  0.63792  1.0000
  C   C330      1.0  0.17355  0.74171  0.63349  1.0000
  C   C331      1.0  0.17589  0.76137  0.63074  1.0000
  C   C332      1.0  0.15042  0.61521  0.46333  1.0000
  H   H571      1.0  0.18213  0.92535  0.65688  1.0000
  N   N24       1.0  0.17330  0.77211  0.56729  1.0000
  H   H572      1.0  0.18987  0.76631  0.62760  1.0000
  C   C333      1.0  0.20864  0.81757  0.53204  1.0000
  C   C334      1.0  0.19047  0.82677  0.53282  1.0000
  C   C335      1.0  0.18130  0.83212  0.51604  1.0000
  C   C336      1.0  0.19004  0.82810  0.49828  1.0000
  C   C337      1.0  0.20791  0.81823  0.49752  1.0000
  C   C338      1.0  0.21715  0.81297  0.51435  1.0000
  H   H573      1.0  0.18363  0.83009  0.54632  1.0000
  H   H574      1.0  0.16743  0.83965  0.51678  1.0000
  H   H575      1.0  0.21480  0.81502  0.48395  1.0000
  H   H576      1.0  0.12592  0.74312  0.64300  1.0000
  H   H577      1.0  0.03665  0.58678  0.50499  1.0000
  H   H578      1.0  0.23833  0.90643  0.61039  1.0000
  C   C339      1.0  0.13605  0.92876  0.60785  1.0000
  C   C340      1.0  0.15116  0.93569  0.59627  1.0000
  C   C341      1.0  0.16707  0.92347  0.59159  1.0000
  C   C342      1.0  0.16798  0.90423  0.59836  1.0000
  C   C343      1.0  0.15290  0.89723  0.60994  1.0000
  C   C344      1.0  0.13699  0.90950  0.61469  1.0000
  H   H579      1.0  0.15060  0.95047  0.59095  1.0000
  H   H580      1.0  0.17872  0.92899  0.58268  1.0000
  H   H581      1.0  0.15347  0.88243  0.61524  1.0000
  H   H582      1.0  0.12533  0.90407  0.62366  1.0000
  C   C345      1.0  0.14234  0.89243  0.40312  1.0000
  C   C346      1.0  0.15834  0.90229  0.40453  1.0000
  C   C347      1.0  0.15639  0.92207  0.40572  1.0000
  C   C348      1.0  0.13843  0.93198  0.40598  1.0000
  C   C349      1.0  0.12244  0.92202  0.40495  1.0000
  C   C350      1.0  0.12441  0.90237  0.40333  1.0000
  H   H583      1.0  0.17223  0.89479  0.40418  1.0000
  H   H584      1.0  0.16884  0.92971  0.40638  1.0000
  H   H585      1.0  0.10856  0.92955  0.40488  1.0000
  H   H586      1.0  0.11199  0.89486  0.40206  1.0000
  C   C351      1.0  0.09904  0.97330  0.50165  1.0000
  C   C352      1.0  0.01172  0.98425  0.47032  1.0000
  C   C353      1.0  0.20682  0.76707  0.58031  1.0000
  C   C354      1.0  0.06881  0.66216  0.61096  1.0000
  H   H587      1.0  0.11873  0.68009  0.42654  1.0000
  C   C355      1.0  0.10476  0.96609  0.51949  1.0000
  H   H588      1.0  0.01390  0.65210  0.59241  1.0000
  H   H589      1.0  0.23061  0.86752  0.38299  1.0000
  H   H590      1.0  0.11807  0.97201  0.54439  1.0000
  H   H591      1.0  0.10236  0.95164  0.52473  1.0000
  C   C356      1.0  0.04589  0.62051  0.37826  1.0000
  C   C357      1.0  0.14320  0.63436  0.45329  1.0000
  H   H592      1.0  0.05417  0.65154  0.39467  1.0000
  H   H593      1.0  0.15797  0.61670  0.47609  1.0000
  C   C358      1.0  0.01634  0.97777  0.41537  1.0000
  H   H594      1.0  0.12684  0.93482  0.48198  1.0000
  C   C359      1.0  0.11794  0.50760  0.52047  1.0000
  C   C360      1.0  0.01338  0.98195  0.61669  1.0000
  H   H595      1.0  0.11903  0.51860  0.52982  1.0000
  Fe  Fe65      1.0  0.12838  0.69202  0.65055  1.0000
  C   C361      1.0  0.08160  0.62513  0.44636  1.0000
  C   C362      1.0  0.09665  0.61259  0.44052  1.0000
  C   C363      1.0  0.10666  0.61639  0.42292  1.0000
  C   C364      1.0  0.10184  0.63280  0.41117  1.0000
  C   C365      1.0  0.08685  0.64540  0.41706  1.0000
  C   C366      1.0  0.07670  0.64152  0.43457  1.0000
  H   H596      1.0  0.10049  0.59990  0.44949  1.0000
  H   H597      1.0  0.11823  0.60657  0.41841  1.0000
  H   H598      1.0  0.08324  0.65823  0.40823  1.0000
  H   H599      1.0  0.06519  0.65136  0.43913  1.0000
  C   C367      1.0  0.11348  0.62143  0.56573  1.0000
  C   C368      1.0  0.11669  0.63884  0.57243  1.0000
  C   C369      1.0  0.11640  0.64079  0.59203  1.0000
  C   C370      1.0  0.11329  0.62519  0.60507  1.0000
  C   C371      1.0  0.11027  0.60775  0.59834  1.0000
  C   C372      1.0  0.11009  0.60592  0.57879  1.0000
  H   H600      1.0  0.11945  0.65088  0.56241  1.0000
  H   H601      1.0  0.11883  0.65427  0.59702  1.0000
  H   H602      1.0  0.10800  0.59557  0.60834  1.0000
  H   H603      1.0  0.10783  0.59240  0.57380  1.0000
  H   H604      1.0  0.09977  0.81147  0.35986  1.0000
  H   H605      1.0  0.11027  0.91917  0.50491  1.0000
  C   C373      1.0  0.02414  0.57908  0.50779  1.0000
  C   C374      1.0  0.02103  0.56838  0.52509  1.0000
  H   H606      1.0  0.17061  0.64407  0.48281  1.0000
  C   C375      1.0  0.06743  0.61756  0.38048  1.0000
  C   C376      1.0  0.10216  0.99199  0.49492  1.0000
  H   H607      1.0  0.04711  0.62272  0.64763  1.0000
  S   S120      1.0  0.08925  0.99300  0.40573  1.0000
  N   N25       1.0  0.11474  0.81417  0.38503  1.0000
  H   H608      1.0  0.00338  0.94950  0.47178  1.0000
  C   C377      1.0  0.10976  0.79621  0.39675  1.0000
  C   C378      1.0  0.11804  0.82947  0.39763  1.0000
  C   C379      1.0  0.10001  0.82115  0.37132  1.0000
  H   H609      1.0  0.02881  0.66969  0.59915  1.0000
  N   N26       1.0  0.21385  0.89648  0.65452  1.0000
  H   H610      1.0  0.07770  0.99516  0.53834  1.0000
  N   N27       1.0  0.05124  0.50410  0.51951  1.0000
  H   H611      1.0  0.14415  0.80337  0.38341  1.0000
  H   H612      1.0  0.04088  0.60634  0.37665  1.0000
  H   H613      1.0  0.02288  0.53496  0.48973  1.0000
  H   H614      1.0  0.12166  0.79063  0.40556  1.0000
  H   H615      1.0  0.13278  0.82771  0.40225  1.0000
  H   H616      1.0  0.11676  0.84372  0.38965  1.0000
  H   H617      1.0  0.25044  0.89140  0.36528  1.0000
  C   C380      1.0  0.03540  0.59978  0.41657  1.0000
  C   C381      1.0  0.05632  0.51811  0.53265  1.0000
  H   H618      1.0  0.23680  0.88509  0.54732  1.0000
  H   H619      1.0  0.22102  0.86873  0.64444  1.0000
  C   C382      1.0  0.01909  0.66028  0.66203  1.0000
  H   H620      1.0  0.05946  0.98458  0.51509  1.0000
  H   H621      1.0  0.04179  0.54167  0.50205  1.0000
  H   H622      1.0  0.18581  0.73170  0.63226  1.0000
  C   C383      1.0  0.24508  0.85826  0.53678  1.0000
  H   H623      1.0  0.10821  0.84388  0.42257  1.0000
  H   H624      1.0  0.10902  0.81871  0.42663  1.0000
  H   H625      1.0  0.19292  0.92629  0.63291  1.0000
  C   C384      1.0  0.03861  0.62106  0.41307  1.0000
  N   N28       1.0  0.21500  0.87987  0.52909  1.0000
  C   C385      1.0  0.23542  0.87852  0.53390  1.0000
  C   C386      1.0  0.20864  0.90044  0.52435  1.0000
  C   C387      1.0  0.21262  0.86892  0.51232  1.0000
  C   C388      1.0  0.20333  0.87149  0.54592  1.0000
  C   C389      1.0  0.03596  0.66954  0.65971  1.0000
  C   C390      1.0  0.20849  0.91344  0.54065  1.0000
  C   C391      1.0  0.22475  0.87441  0.49403  1.0000
  C   C392      1.0  0.18159  0.87509  0.54514  1.0000
  H   H626      1.0  0.01108  0.64193  0.51545  1.0000
  H   H627      1.0  0.00411  0.95246  0.40911  1.0000
  H   H628      1.0  0.19424  0.90193  0.51895  1.0000
  H   H629      1.0  0.21800  0.90680  0.51264  1.0000
  H   H630      1.0  0.21570  0.85350  0.51590  1.0000
  H   H631      1.0  0.19772  0.87035  0.50833  1.0000
  H   H632      1.0  0.20664  0.85590  0.54810  1.0000
  H   H633      1.0  0.20722  0.87714  0.55906  1.0000
  H   H634      1.0  0.01386  0.63981  0.36070  1.0000
  H   H635      1.0  0.00294  0.69589  0.37514  1.0000
  H   H636      1.0  0.01344  0.58853  0.48070  1.0000
  C   C393      1.0  0.11360  0.97762  0.53062  1.0000
  H   H637      1.0  0.20301  0.92799  0.53559  1.0000
  H   H638      1.0  0.19910  0.90891  0.55310  1.0000
  H   H639      1.0  0.24418  0.88673  0.52294  1.0000
  H   H640      1.0  0.13523  0.66009  0.42444  1.0000
  H   H641      1.0  0.23116  0.80573  0.51359  1.0000
  H   H642      1.0  0.17474  0.86285  0.55279  1.0000
  H   H643      1.0  0.17649  0.87684  0.53072  1.0000
  H   H644      1.0  0.17616  0.88739  0.55308  1.0000
  H   H645      1.0  0.07529  0.96671  0.55146  1.0000
  C   C394      1.0  0.22588  0.90128  0.61917  1.0000
  H   H646      1.0  0.12677  0.62762  0.48946  1.0000
  H   H647      1.0  0.07100  0.60783  0.39304  1.0000
  C   C395      1.0  0.14587  0.93809  0.45750  1.0000
  H   H648      1.0  0.10189  0.92646  0.46492  1.0000
  C   C396      1.0  0.17377  0.73646  0.58038  1.0000
  H   H649      1.0  0.07560  0.81488  0.39184  1.0000
  C   C397      1.0  0.11587  0.51252  0.50116  1.0000
  C   C398      1.0  0.13718  0.92527  0.47407  1.0000
  C   C399      1.0  0.14115  0.89618  0.45657  1.0000
  H   H650      1.0  0.16073  0.66109  0.49890  1.0000
  C   C400      1.0  0.16043  0.88967  0.46460  1.0000
  H   H651      1.0  0.11598  0.92335  0.44377  1.0000
  C   C401      1.0  0.17041  0.76056  0.53424  1.0000
  H   H652      1.0  0.13467  0.88298  0.45402  1.0000
  H   H653      1.0  0.14399  0.90348  0.44225  1.0000
  H   H654      1.0  0.22077  0.88904  0.48804  1.0000
  H   H655      1.0  0.16853  0.88018  0.45475  1.0000
  C   C402      1.0  0.19402  0.89752  0.64813  1.0000
  H   H656      1.0  0.16913  0.90173  0.46566  1.0000
  H   H657      1.0  0.16363  0.72527  0.58101  1.0000
  H   H658      1.0  0.13480  0.94558  0.44876  1.0000
  H   H659      1.0  0.10795  0.65347  0.44779  1.0000
  H   H660      1.0  0.00506  0.62206  0.54759  1.0000
  C   C403      1.0  0.07962  0.82509  0.37982  1.0000
  C   C404      1.0  0.16283  0.75607  0.57745  1.0000
  H   H661      1.0  0.14776  0.78448  0.55447  1.0000
  H   H662      1.0  0.01092  0.61398  0.38853  1.0000
  H   H663      1.0  0.04371  0.52293  0.54176  1.0000
  H   H664      1.0  0.24201  0.90279  0.64327  1.0000
  C   C405      1.0  0.00409  0.69438  0.36007  1.0000
  C   C406      1.0  0.13317  0.80960  0.37375  1.0000
  H   H665      1.0  0.03965  0.59459  0.43101  1.0000
  C   C407      1.0  0.03674  0.52977  0.49534  1.0000
  S   S121      1.0  0.23948  0.82754  0.39621  1.0000
  Fe  Fe66      1.0  0.08581  0.68689  0.65635  1.0000
  H   H666      1.0  0.12997  0.77775  0.63827  1.0000
  H   H667      1.0  0.01346  0.96846  0.62513  1.0000
  C   C408      1.0  0.24535  0.86372  0.37905  1.0000
  H   H668      1.0  0.16045  0.60757  0.45337  1.0000
  H   H669      1.0  0.14760  0.99633  0.37648  1.0000
  H   H670      1.0  0.19480  0.75604  0.55039  1.0000
  H   H671      1.0  0.11687  0.88295  0.48312  1.0000
  H   H672      1.0  0.13641  0.67278  0.48033  1.0000
  H   H673      1.0  0.07208  0.67570  0.60271  1.0000
  N   N29       1.0  0.04974  0.63350  0.60569  1.0000
  C   C409      1.0  0.03204  0.64189  0.61582  1.0000
  C   C410      1.0  0.05994  0.61880  0.61887  1.0000
  C   C411      1.0  0.06272  0.64836  0.59744  1.0000
  C   C412      1.0  0.02036  0.65758  0.60433  1.0000
  C   C413      1.0  0.06107  0.62338  0.63956  1.0000
  H   H674      1.0  0.00612  0.95010  0.50151  1.0000
  H   H675      1.0  0.03520  0.64821  0.62873  1.0000
  H   H676      1.0  0.02249  0.63055  0.62104  1.0000
  H   H677      1.0  0.05317  0.60509  0.61988  1.0000
  H   H678      1.0  0.07471  0.61557  0.61321  1.0000
  H   H679      1.0  0.07614  0.64150  0.59131  1.0000
  H   H680      1.0  0.05682  0.65692  0.58500  1.0000
  H   H681      1.0  0.17058  0.91670  0.63837  1.0000
  H   H682      1.0  0.01716  0.71463  0.65015  1.0000
  H   H683      1.0  0.01828  0.97678  0.48281  1.0000
  H   H684      1.0  0.06667  0.63723  0.64068  1.0000
  H   H685      1.0  0.07094  0.61251  0.64669  1.0000
  C   C414      1.0  0.12162  0.89675  0.48647  1.0000
  C   C415      1.0  0.04365  0.62350  0.58952  1.0000
  H   H686      1.0  0.03282  0.61341  0.59476  1.0000
  H   H687      1.0  0.03679  0.63378  0.57887  1.0000
  N   N30       1.0  0.12778  0.90847  0.46863  1.0000
  C   C416      1.0  0.11664  0.99634  0.52390  1.0000
  C   C417      1.0  0.14180  0.82644  0.36173  1.0000
  H   H688      1.0  0.06986  0.62151  0.57059  1.0000
  H   H689      1.0  0.07397  0.63108  0.38106  1.0000
  H   H690      1.0  0.04938  0.66146  0.66127  1.0000
  C   C418      1.0  0.06044  0.96345  0.55079  1.0000
  H   H691      1.0  0.16583  0.80038  0.55437  1.0000
  H   H692      1.0  0.03547  0.97996  0.52130  1.0000
  N   N31       1.0  0.13177  0.64831  0.46531  1.0000
  C   C419      1.0  0.10573  0.65048  0.49269  1.0000
  H   H693      1.0  0.18141  0.77892  0.59458  1.0000
  C   C420      1.0  0.11884  0.63798  0.47982  1.0000
  H   H694      1.0  0.10967  0.62929  0.47265  1.0000
  C   C421      1.0  0.11112  0.91571  0.45739  1.0000
  H   H695      1.0  0.14961  0.75415  0.57059  1.0000
  H   H696      1.0  0.09218  0.89244  0.46464  1.0000
  H   H697      1.0  0.15028  0.63963  0.49910  1.0000
  S   S122      1.0  0.11281  0.98712  0.44443  1.0000
  H   H698      1.0  0.11209  0.67310  0.46018  1.0000
  C   C422      1.0  0.01247  0.99642  0.42019  1.0000
  C   C423      1.0  0.22094  0.87592  0.65769  1.0000
  C   C424      1.0  0.01086  0.58027  0.49410  1.0000
  C   C425      1.0  0.05952  0.61217  0.57826  1.0000
  H   H699      1.0  0.06707  0.60086  0.58729  1.0000
  H   H700      1.0  0.20576  0.75164  0.58292  1.0000
  H   H701      1.0  0.09493  0.65931  0.48465  1.0000
  C   C426      1.0  0.04556  0.99124  0.52047  1.0000
  H   H702      1.0  0.15316  0.94929  0.46335  1.0000
  N   N32       1.0  0.03425  0.63022  0.39375  1.0000
  H   H703      1.0  0.21314  0.90858  0.61290  1.0000
  H   H704      1.0  0.16231  0.74852  0.54037  1.0000
  C   C427      1.0  0.13338  0.99935  0.37093  1.0000
  H   H705      1.0  0.05314  0.60499  0.56730  1.0000
  C   C428      1.0  0.12936  0.67066  0.43434  1.0000
  H   H706      1.0  0.09248  0.90974  0.49227  1.0000
  C   C429      1.0  0.18466  0.91772  0.64388  1.0000
  H   H707      1.0  0.13466  0.63043  0.44191  1.0000
  H   H708      1.0  0.15569  0.64091  0.44577  1.0000
  H   H709      1.0  0.04783  0.98470  0.56893  1.0000
  C   C430      1.0  0.18743  0.77858  0.57972  1.0000
  H   H710      1.0  0.11606  0.77504  0.37555  1.0000
  H   H711      1.0  0.13375  0.89289  0.49546  1.0000
  C   C431      1.0  0.18312  0.76725  0.54859  1.0000
  H   H712      1.0  0.01755  0.99837  0.46774  1.0000
  H   H713      1.0  0.15755  0.75965  0.59195  1.0000
  H   H714      1.0  0.15652  0.93033  0.44831  1.0000
  H   H715      1.0  0.02985  0.62823  0.42438  1.0000
  H   H716      1.0  0.13847  0.80927  0.57541  1.0000
  H   H717      1.0  0.18444  0.89029  0.65910  1.0000
  H   H718      1.0  0.01360  0.65893  0.41120  1.0000
  H   H719      1.0  0.07739  0.83975  0.38429  1.0000
  H   H720      1.0  0.22593  0.88588  0.61783  1.0000
  C   C432      1.0  0.10538  0.83080  0.41612  1.0000
  H   H721      1.0  0.05878  0.95765  0.53709  1.0000
  S   S123      1.0  0.06625  0.99556  0.44782  1.0000
  C   C433      1.0  0.00547  0.64163  0.37429  1.0000
  C   C434      1.0  0.09859  0.90055  0.45205  1.0000
  H   H722      1.0  0.12475  0.98776  0.37737  1.0000
  C   C435      1.0  0.03062  0.99012  0.61128  1.0000
  C   C436      1.0  0.10445  0.77998  0.38559  1.0000
  H   H723      1.0  0.18073  0.73492  0.59398  1.0000
  C   C437      1.0  0.10584  0.90623  0.49939  1.0000
  C   C438      1.0  0.01777  0.69941  0.65337  1.0000
  C   C439      1.0  0.15897  0.78862  0.56304  1.0000
  H   H724      1.0  0.07437  0.61097  0.36790  1.0000
  H   H725      1.0  0.10645  0.89069  0.44248  1.0000
  C   C440      1.0  0.22705  0.90617  0.63976  1.0000
  C   C441      1.0  0.14836  0.79721  0.58039  1.0000
  H   H726      1.0  0.10146  0.76755  0.39574  1.0000
  H   H727      1.0  0.13973  0.78692  0.58913  1.0000
  S   S124      1.0  0.15357  0.70988  0.64120  1.0000
  H   H728      1.0  0.22291  0.91457  0.54522  1.0000
  C   C442      1.0  0.11939  0.66130  0.45250  1.0000
  H   H729      1.0  0.16068  0.77233  0.52841  1.0000
  C   C443      1.0  0.01358  0.62877  0.39095  1.0000
  H   H730      1.0  0.11379  0.65939  0.50072  1.0000
  H   H731      1.0  0.05345  0.62281  0.41603  1.0000
  H   H732      1.0  0.04385  0.98291  0.61552  1.0000
  H   H733      1.0  0.10255  0.89618  0.51191  1.0000
  S   S125      1.0  0.03977  0.96763  0.41190  1.0000
  H   H734      1.0  0.15437  0.66712  0.46322  1.0000
  H   H735      1.0  0.02761  0.62235  0.52094  1.0000
  H   H736      1.0  0.09785  0.64107  0.50333  1.0000
  H   H737      1.0  0.13860  0.60598  0.46716  1.0000
  H   H738      1.0  0.19069  0.79345  0.57513  1.0000
  C   C444      1.0  0.14450  0.66040  0.47424  1.0000
  H   H739      1.0  0.19745  0.85807  0.66688  1.0000
  H   H740      1.0  0.14057  0.67963  0.43747  1.0000
  H   H741      1.0  0.08675  0.90778  0.44413  1.0000
  H   H742      1.0  0.15811  0.80302  0.58938  1.0000
  H   H743      1.0  0.21455  0.77137  0.59202  1.0000
  H   H744      1.0  0.18427  0.73311  0.56869  1.0000
  H   H745      1.0  0.10373  0.83478  0.36348  1.0000
  S   S126      1.0  0.09869  0.99633  0.62127  1.0000
  H   H746      1.0  0.09765  0.79869  0.40719  1.0000
  H   H747      1.0  0.00452  0.63176  0.40396  1.0000
  H   H748      1.0  0.08174  0.65619  0.61790  1.0000
  S   S127      1.0  0.13576  0.66158  0.66197  1.0000
  H   H749      1.0  0.23796  0.84969  0.54862  1.0000
  H   H750      1.0  0.21574  0.77021  0.56705  1.0000
  H   H751      1.0  0.22213  0.86477  0.48317  1.0000
  H   H752      1.0  0.22480  0.92189  0.63960  1.0000
  C   C445      1.0  0.01266  0.62626  0.51770  1.0000
  H   H753      1.0  0.23605  0.87425  0.66101  1.0000
  H   H754      1.0  0.01966  0.64510  0.66551  1.0000
  H   H755      1.0  0.05791  0.95189  0.56212  1.0000
  H   H756      1.0  0.02627  0.67796  0.40061  1.0000
  C   C446      1.0  0.03396  0.51234  0.50963  1.0000
  S   S128      1.0  0.13669  0.99265  0.59145  1.0000
  S   S129      1.0  0.05626  0.70149  0.65377  1.0000
  H   H757      1.0  0.13299  0.83205  0.34994  1.0000
  H   H758      1.0  0.03592  0.66285  0.42000  1.0000
  H   H759      1.0  0.02243  0.51683  0.52014  1.0000
  H   H760      1.0  0.01078  0.61971  0.50446  1.0000
  C   C447      1.0  0.03540  0.68918  0.65552  1.0000
  H   H761      1.0  0.01632  0.97660  0.45761  1.0000
  H   H762      1.0  0.09734  0.99780  0.48136  1.0000
  H   H763      1.0  0.00817  0.99632  0.56019  1.0000
  H   H764      1.0  0.00252  0.60249  0.53440  1.0000
  H   H765      1.0  0.15578  0.82136  0.35519  1.0000
  H   H766      1.0  0.03753  0.65765  0.37800  1.0000
  C   C448      1.0  0.02806  0.66310  0.40703  1.0000
  H   H767      1.0  0.14445  0.83809  0.37034  1.0000
  H   H768      1.0  0.04413  0.59115  0.40646  1.0000
  H   H769      1.0  0.02026  0.59722  0.41614  1.0000
  H   H770      1.0  0.24012  0.87263  0.49608  1.0000
  C   C449      1.0  0.07255  0.51135  0.54564  1.0000
  C   C450      1.0  0.00146  0.67046  0.65986  1.0000
  H   H771      1.0  0.08452  0.52048  0.54225  1.0000
  H   H772      1.0  0.07274  0.51418  0.49844  1.0000
  H   H773      1.0  0.00847  0.66328  0.61381  1.0000
  H   H774      1.0  0.24599  0.85062  0.52378  1.0000
  H   H775      1.0  0.00838  0.99766  0.53457  1.0000
  C   C451      1.0  0.00419  0.55940  0.52897  1.0000
  H   H776      1.0  0.00448  0.65678  0.37715  1.0000
  H   H777      1.0  0.11384  0.50174  0.47406  1.0000
  H   H778      1.0  0.00169  0.55118  0.54240  1.0000
  H   H779      1.0  0.02803  0.50149  0.50196  1.0000
  H   H780      1.0  0.06399  0.67074  0.91093  1.0000
  Fe  Fe67      1.0  0.02849  0.57331  0.89940  1.0000
  S   S130      1.0  0.04666  0.58822  0.87579  1.0000
  C   C452      1.0  0.13812  0.53817  0.77742  1.0000
  S   S131      1.0  0.03559  0.56551  0.92964  1.0000
  C   C453      1.0  0.07462  0.61631  0.93049  1.0000
  Fe  Fe68      1.0  0.19870  0.59451  0.83393  1.0000
  S   S132      1.0  0.19875  0.58199  0.80592  1.0000
  S   S133      1.0  0.22735  0.60583  0.83881  1.0000
  Fe  Fe69      1.0  0.15783  0.58420  0.84360  1.0000
  S   S134      1.0  0.15532  0.57108  0.81620  1.0000
  S   S135      1.0  0.13681  0.58154  0.86945  1.0000
  Fe  Fe70      1.0  0.18444  0.55747  0.82119  1.0000
  S   S136      1.0  0.19628  0.52805  0.81332  1.0000
  Fe  Fe71      1.0  0.16973  0.59660  0.80239  1.0000
  S   S137      1.0  0.16725  0.60842  0.77120  1.0000
  S   S138      1.0  0.18629  0.56884  0.84939  1.0000
  S   S139      1.0  0.17039  0.61084  0.82962  1.0000
  Fe  Fe72      1.0  0.11273  0.66645  0.68489  1.0000
  H   H781      1.0  0.19117  0.67116  0.70871  1.0000
  S   S140      1.0  0.11088  0.65907  0.71710  1.0000
  H   H782      1.0  0.13697  0.54535  0.79084  1.0000
  H   H783      1.0  0.08007  0.65018  0.90922  1.0000
  H   H784      1.0  0.13830  0.53688  0.74088  1.0000
  C   C454      1.0  0.15520  0.68309  0.71644  1.0000
  H   H785      1.0  0.03297  0.57487  0.97384  1.0000
  H   H786      1.0  0.12802  0.58989  0.74982  1.0000
  C   C455      1.0  0.12641  0.64434  0.73180  1.0000
  C   C456      1.0  0.14320  0.63517  0.72451  1.0000
  C   C457      1.0  0.15544  0.62430  0.73682  1.0000
  C   C458      1.0  0.15102  0.62225  0.75655  1.0000
  C   C459      1.0  0.13409  0.63118  0.76380  1.0000
  C   C460      1.0  0.12192  0.64221  0.75150  1.0000
  H   H787      1.0  0.14682  0.63651  0.70942  1.0000
  H   H788      1.0  0.16846  0.61741  0.73103  1.0000
  H   H789      1.0  0.13047  0.62976  0.77891  1.0000
  H   H790      1.0  0.10900  0.64922  0.75735  1.0000
  H   H791      1.0  0.14771  0.67530  0.70676  1.0000
  C   C461      1.0  0.04671  0.69893  0.74983  1.0000
  H   H792      1.0  0.17758  0.52761  0.77065  1.0000
  C   C462      1.0  0.15295  0.53732  0.74532  1.0000
  H   H793      1.0  0.13473  0.68416  0.74070  1.0000
  C   C463      1.0  0.23749  0.61561  0.85768  1.0000
  C   C464      1.0  0.22812  0.61700  0.87561  1.0000
  H   H794      1.0  0.15101  0.69831  0.68222  1.0000
  H   H795      1.0  0.21402  0.61225  0.87831  1.0000
  H   H796      1.0  0.22955  0.62562  0.90385  1.0000
  C   C465      1.0  0.07171  0.58514  0.87366  1.0000
  C   C466      1.0  0.08155  0.59300  0.85728  1.0000
  C   C467      1.0  0.10150  0.59146  0.85543  1.0000
  C   C468      1.0  0.11177  0.58240  0.87018  1.0000
  C   C469      1.0  0.10190  0.57454  0.88655  1.0000
  C   C470      1.0  0.08198  0.57564  0.88818  1.0000
  H   H797      1.0  0.07371  0.60037  0.84598  1.0000
  H   H798      1.0  0.10893  0.59769  0.84284  1.0000
  H   H799      1.0  0.10975  0.56749  0.89800  1.0000
  H   H800      1.0  0.07459  0.56925  0.90068  1.0000
  H   H801      1.0  0.17772  0.68909  0.74448  1.0000
  H   H802      1.0  0.20165  0.90238  0.68260  1.0000
  H   H803      1.0  0.02323  0.62129  0.89393  1.0000
  C   C471      1.0  0.04217  0.61835  0.94667  1.0000
  H   H804      1.0  0.02743  0.62481  0.94574  1.0000
  H   H805      1.0  0.09238  0.59016  0.93572  1.0000
  H   H806      1.0  0.16897  0.71863  0.72263  1.0000
  H   H807      1.0  0.06096  0.65062  0.94045  1.0000
  C   C472      1.0  0.23199  0.90299  0.68316  1.0000
  C   C473      1.0  0.13943  0.69378  0.72832  1.0000
  C   C474      1.0  0.17185  0.54250  0.77223  1.0000
  C   C475      1.0  0.07710  0.59501  0.93708  1.0000
  H   H808      1.0  0.18492  0.56975  0.76965  1.0000
  H   H809      1.0  0.03839  0.50941  0.87186  1.0000
  C   C476      1.0  0.00686  0.58888  0.98449  1.0000
  C   C477      1.0  0.05433  0.64599  0.92810  1.0000
  C   C478      1.0  0.16112  0.70649  0.68880  1.0000
  C   C479      1.0  0.17898  0.70719  0.71737  1.0000
  H   H810      1.0  0.12885  0.56883  0.73781  1.0000
  H   H811      1.0  0.08259  0.62395  0.93991  1.0000
  C   C480      1.0  0.14799  0.56772  0.76114  1.0000
  H   H812      1.0  0.12701  0.69808  0.71985  1.0000
  H   H813      1.0  0.06974  0.58638  0.92820  1.0000
  H   H814      1.0  0.19324  0.70772  0.74335  1.0000
  H   H815      1.0  0.00630  0.51981  0.96922  1.0000
  H   H816      1.0  0.14392  0.70623  0.73452  1.0000
  H   H817      1.0  0.14728  0.57377  0.77513  1.0000
  C   C481      1.0  0.18804  0.69696  0.73499  1.0000
  H   H818      1.0  0.13025  0.51251  0.79435  1.0000
  H   H819      1.0  0.15868  0.54324  0.71491  1.0000
  H   H820      1.0  0.05735  0.70639  0.75641  1.0000
  H   H821      1.0  0.16192  0.67147  0.72592  1.0000
  N   N33       1.0  0.15299  0.54660  0.76356  1.0000
  H   H822      1.0  0.20112  0.54938  0.77142  1.0000
  S   S141      1.0  0.03482  0.51009  0.93799  1.0000
  H   H823      1.0  0.16849  0.65894  0.68840  1.0000
  H   H824      1.0  0.20434  0.87127  0.68537  1.0000
  C   C482      1.0  0.04667  0.61809  0.91215  1.0000
  H   H825      1.0  0.02668  0.64267  0.90394  1.0000
  C   C483      1.0  0.18517  0.68115  0.69729  1.0000
  C   C484      1.0  0.02481  0.57950  0.98627  1.0000
  H   H826      1.0  0.19017  0.71485  0.70870  1.0000
  C   C485      1.0  0.16593  0.50734  0.82673  1.0000
  H   H827      1.0  0.03807  0.69115  0.76121  1.0000
  H   H828      1.0  0.05840  0.65254  0.89703  1.0000
  N   N34       1.0  0.16973  0.69471  0.70528  1.0000
  C   C486      1.0  0.04836  0.62351  0.96585  1.0000
  H   H829      1.0  0.12387  0.54042  0.77175  1.0000
  H   H830      1.0  0.02408  0.65611  0.70253  1.0000
  H   H831      1.0  0.01576  0.62341  0.91817  1.0000
  H   H832      1.0  0.15906  0.57534  0.75250  1.0000
  C   C487      1.0  0.01647  0.66732  0.71068  1.0000
  H   H833      1.0  0.06382  0.62412  0.96618  1.0000
  H   H834      1.0  0.15994  0.51996  0.83310  1.0000
  H   H835      1.0  0.11675  0.57009  0.76124  1.0000
  H   H836      1.0  0.04553  0.60254  0.91390  1.0000
  H   H837      1.0  0.20051  0.68729  0.73113  1.0000
  H   H838      1.0  0.16627  0.56097  0.72757  1.0000
  H   H839      1.0  0.13970  0.72468  0.70467  1.0000
  C   C488      1.0  0.01775  0.52384  0.99593  1.0000
  C   C489      1.0  0.16525  0.54549  0.72816  1.0000
  C   C490      1.0  0.18786  0.55526  0.76498  1.0000
  H   H840      1.0  0.03742  0.71021  0.74270  1.0000
  H   H841      1.0  0.19074  0.55608  0.74946  1.0000
  N   N35       1.0  0.04653  0.68168  0.71930  1.0000
  C   C491      1.0  0.05900  0.66851  0.70739  1.0000
  C   C492      1.0  0.04197  0.69989  0.70723  1.0000
  C   C493      1.0  0.02829  0.67319  0.72625  1.0000
  C   C494      1.0  0.05700  0.68508  0.73621  1.0000
  C   C495      1.0  0.06291  0.64799  0.71625  1.0000
  C   C496      1.0  0.05829  0.71295  0.70280  1.0000
  H   H842      1.0  0.04438  0.61245  0.97720  1.0000
  H   H843      1.0  0.05653  0.62035  0.89933  1.0000
  H   H844      1.0  0.05308  0.66763  0.69351  1.0000
  H   H845      1.0  0.07307  0.67420  0.70379  1.0000
  H   H846      1.0  0.02968  0.70844  0.71354  1.0000
  H   H847      1.0  0.03730  0.69684  0.69329  1.0000
  H   H848      1.0  0.03088  0.66061  0.73656  1.0000
  H   H849      1.0  0.01891  0.68341  0.73435  1.0000
  H   H850      1.0  0.05990  0.67158  0.74511  1.0000
  H   H851      1.0  0.07145  0.68968  0.73194  1.0000
  H   H852      1.0  0.07060  0.64738  0.72933  1.0000
  H   H853      1.0  0.04988  0.64037  0.71904  1.0000
  H   H854      1.0  0.07230  0.63994  0.70607  1.0000
  H   H855      1.0  0.05378  0.72484  0.69242  1.0000
  H   H856      1.0  0.06202  0.71926  0.71561  1.0000
  H   H857      1.0  0.07099  0.70544  0.69620  1.0000
  H   H858      1.0  0.01195  0.67958  0.70077  1.0000
  H   H859      1.0  0.00335  0.66140  0.71738  1.0000
  C   C497      1.0  0.02698  0.62709  0.90706  1.0000
  H   H860      1.0  0.21911  0.85152  0.67849  1.0000
  Fe  Fe73      1.0  0.00581  0.57674  0.93728  1.0000
  C   C498      1.0  0.14111  0.51662  0.78297  1.0000
  C   C499      1.0  0.18343  0.50755  0.81638  1.0000
  H   H861      1.0  0.17971  0.53822  0.72774  1.0000
  S   S142      1.0  0.01777  0.54514  0.89565  1.0000
  N   N36       1.0  0.05445  0.62469  0.92939  1.0000
  C   C500      1.0  0.15056  0.72573  0.69277  1.0000
  H   H862      1.0  0.08256  0.61806  0.91637  1.0000
  H   H863      1.0  0.07216  0.59209  0.95218  1.0000
  C   C501      1.0  0.06484  0.65513  0.91020  1.0000
  H   H864      1.0  0.15803  0.52207  0.74749  1.0000
  Fe  Fe74      1.0  0.02232  0.53853  0.92647  1.0000
  H   H865      1.0  0.04032  0.60287  0.94756  1.0000
  C   C502      1.0  0.23699  0.62462  0.89008  1.0000
  H   H866      1.0  0.17008  0.54381  0.78777  1.0000
  H   H867      1.0  0.14313  0.73149  0.68000  1.0000
  C   C503      1.0  0.12927  0.57413  0.75196  1.0000
  H   H868      1.0  0.03959  0.65268  0.92908  1.0000
  H   H869      1.0  0.23410  0.88813  0.68945  1.0000
  H   H870      1.0  0.02963  0.51363  0.99172  1.0000
  H   H871      1.0  0.04129  0.63737  0.96954  1.0000
  H   H872      1.0  0.16060  0.73629  0.69522  1.0000
  H   H873      1.0  0.23091  0.91220  0.69507  1.0000
  H   H874      1.0  0.19720  0.68904  0.69050  1.0000
  H   H875      1.0  0.15502  0.51245  0.78874  1.0000
  H   H876      1.0  0.05175  0.50772  0.89273  1.0000
  H   H877      1.0  0.02253  0.53803  0.99052  1.0000
  H   H878      1.0  0.13932  0.50819  0.77093  1.0000
  C   C504      1.0  0.21369  0.90632  0.67248  1.0000
  H   H879      1.0  0.17225  0.70994  0.67736  1.0000
  C   C505      1.0  0.17935  0.66857  0.68242  1.0000
  H   H880      1.0  0.24472  0.90661  0.67396  1.0000
  S   S143      1.0  0.10676  0.69726  0.67466  1.0000
  H   H881      1.0  0.19191  0.65939  0.67768  1.0000
  C   C506      1.0  0.20961  0.86367  0.67291  1.0000
  H   H882      1.0  0.17440  0.67703  0.66955  1.0000
  H   H883      1.0  0.21120  0.92196  0.66945  1.0000
  S   S144      1.0  0.09035  0.65674  0.66805  1.0000
  Fe  Fe75      1.0  0.40587  0.46389  0.10294  1.0000
  C   C507      1.0  0.49597  0.07829  0.00436  1.0000
  S   S145      1.0  0.40079  0.43443  0.11679  1.0000
  C   C508      1.0  0.49737  0.08127  0.02338  1.0000
  H   H884      1.0  0.35628  0.03256  0.09467  1.0000
  H   H885      1.0  0.36795  0.23557  0.07490  1.0000
  H   H886      1.0  0.45171  0.14892  0.04835  1.0000
  C   C509      1.0  0.40104  0.02947  0.08739  1.0000
  S   S146      1.0  0.42070  0.48541  0.11693  1.0000
  S   S147      1.0  0.42199  0.46916  0.07469  1.0000
  Fe  Fe76      1.0  0.41235  0.07549  0.03445  1.0000
  H   H887      1.0  0.42204  0.02280  0.33362  1.0000
  S   S148      1.0  0.39254  0.09401  0.05285  1.0000
  C   C510      1.0  0.35125  0.06711  0.06855  1.0000
  Fe  Fe77      1.0  0.42782  0.03498  0.02636  1.0000
  Fe  Fe78      1.0  0.45414  0.06690  0.02726  1.0000
  H   H888      1.0  0.42191  0.06191  0.26936  1.0000
  H   H889      1.0  0.46264  0.11008  0.10908  1.0000
  S   S149      1.0  0.43299  0.05435  0.04835  1.0000
  H   H890      1.0  0.46314  0.44591  0.04224  1.0000
  Fe  Fe79      1.0  0.33629  0.35488  0.09119  1.0000
  S   S150      1.0  0.30535  0.35375  0.08680  1.0000
  S   S151      1.0  0.34917  0.38179  0.07816  1.0000
  Fe  Fe80      1.0  0.33966  0.31370  0.11007  1.0000
  S   S152      1.0  0.30889  0.31000  0.10720  1.0000
  S   S153      1.0  0.36220  0.29282  0.12381  1.0000
  Fe  Fe81      1.0  0.31393  0.32457  0.07764  1.0000
  S   S154      1.0  0.30437  0.31247  0.05152  1.0000
  Fe  Fe82      1.0  0.30279  0.33973  0.11656  1.0000
  S   S155      1.0  0.28326  0.35083  0.14119  1.0000
  S   S156      1.0  0.34494  0.32662  0.08010  1.0000
  S   S157      1.0  0.33351  0.34244  0.12133  1.0000
  Fe  Fe83      1.0  0.41677  0.14085  0.14474  1.0000
  S   S158      1.0  0.42461  0.16773  0.12812  1.0000
  S   S159      1.0  0.41968  0.11230  0.13228  1.0000
  Fe  Fe84      1.0  0.41076  0.15941  0.18225  1.0000
  S   S160      1.0  0.41890  0.18782  0.16805  1.0000
  S   S161      1.0  0.40104  0.15847  0.21399  1.0000
  Fe  Fe85      1.0  0.40053  0.18239  0.14497  1.0000
  S   S162      1.0  0.37721  0.20231  0.13127  1.0000
  Fe  Fe86      1.0  0.44259  0.17117  0.15229  1.0000
  S   S163      1.0  0.47196  0.18048  0.14171  1.0000
  S   S164      1.0  0.39120  0.15484  0.15992  1.0000
  S   S165      1.0  0.43597  0.14338  0.16818  1.0000
  C   C511      1.0  0.25836  0.35639  0.14527  1.0000
  S   S166      1.0  0.38669  0.06872  0.31461  1.0000
  H   H891      1.0  0.39859  0.13068  0.31357  1.0000
  S   S167      1.0  0.34165  0.06378  0.31481  1.0000
  H   H892      1.0  0.28984  0.39587  0.10188  1.0000
  C   C512      1.0  0.45531  0.45596  0.03213  1.0000
  Fe  Fe87      1.0  0.36184  0.08504  0.30138  1.0000
  S   S168      1.0  0.36497  0.09191  0.26904  1.0000
  C   C513      1.0  0.36291  0.00400  0.08690  1.0000
  C   C514      1.0  0.39040  0.13997  0.22880  1.0000
  C   C515      1.0  0.38872  0.12205  0.22265  1.0000
  C   C516      1.0  0.38080  0.10765  0.23511  1.0000
  C   C517      1.0  0.37456  0.11083  0.25393  1.0000
  C   C518      1.0  0.37599  0.12883  0.26000  1.0000
  C   C519      1.0  0.38391  0.14325  0.24755  1.0000
  H   H893      1.0  0.39355  0.11926  0.20829  1.0000
  H   H894      1.0  0.37958  0.09389  0.23012  1.0000
  H   H895      1.0  0.37080  0.13168  0.27424  1.0000
  H   H896      1.0  0.38500  0.15706  0.25248  1.0000
  H   H897      1.0  0.35864  0.27656  0.01618  1.0000
  H   H898      1.0  0.34112  0.19984  0.17096  1.0000
  H   H899      1.0  0.39110  0.24137  0.06486  1.0000
  H   H900      1.0  0.48418  0.16120  0.17769  1.0000
  H   H901      1.0  0.39934  0.10801  0.28610  1.0000
  C   C520      1.0  0.36568  0.26759  0.12660  1.0000
  C   C521      1.0  0.35167  0.25584  0.12321  1.0000
  C   C522      1.0  0.35546  0.23593  0.12474  1.0000
  C   C523      1.0  0.37315  0.22748  0.13001  1.0000
  C   C524      1.0  0.38699  0.23921  0.13388  1.0000
  C   C525      1.0  0.38325  0.25912  0.13220  1.0000
  H   H902      1.0  0.33800  0.26211  0.11920  1.0000
  H   H903      1.0  0.34460  0.22699  0.12182  1.0000
  H   H904      1.0  0.40071  0.23299  0.13781  1.0000
  H   H905      1.0  0.39418  0.26806  0.13492  1.0000
  H   H906      1.0  0.39257  0.02953  0.04423  1.0000
  C   C526      1.0  0.31158  0.32173  0.02827  1.0000
  C   C527      1.0  0.32253  0.33732  0.02515  1.0000
  H   H907      1.0  0.38949  0.24765  0.17909  1.0000
  H   H908      1.0  0.32650  0.34421  0.03709  1.0000
  C   C528      1.0  0.30658  0.31297  0.01255  1.0000
  C   C529      1.0  0.43277  0.08621  0.28036  1.0000
  H   H909      1.0  0.45930  0.12808  0.12527  1.0000
  C   C530      1.0  0.39986  0.09906  0.07508  1.0000
  C   C531      1.0  0.41164  0.08598  0.08560  1.0000
  C   C532      1.0  0.41695  0.09004  0.10337  1.0000
  C   C533      1.0  0.41111  0.10748  0.11061  1.0000
  C   C534      1.0  0.39933  0.12063  0.10016  1.0000
  C   C535      1.0  0.39349  0.11628  0.08260  1.0000
  H   H910      1.0  0.41659  0.07266  0.08018  1.0000
  H   H911      1.0  0.42605  0.07978  0.11136  1.0000
  H   H912      1.0  0.39464  0.13408  0.10564  1.0000
  H   H913      1.0  0.38423  0.12642  0.07467  1.0000
  H   H914      1.0  0.39520  0.05277  0.06665  1.0000
  H   H915      1.0  0.45429  0.44858  0.01918  1.0000
  H   H916      1.0  0.45774  0.16451  0.06452  1.0000
  H   H917      1.0  0.34961  0.04660  0.04877  1.0000
  H   H918      1.0  0.39908  0.22427  0.17390  1.0000
  H   H919      1.0  0.36158  0.07555  0.07431  1.0000
  C   C536      1.0  0.38644  0.41986  0.10597  1.0000
  C   C537      1.0  0.37828  0.42606  0.08895  1.0000
  C   C538      1.0  0.36700  0.41417  0.08062  1.0000
  C   C539      1.0  0.36362  0.39604  0.08925  1.0000
  C   C540      1.0  0.37174  0.38982  0.10629  1.0000
  C   C541      1.0  0.38311  0.40170  0.11461  1.0000
  H   H920      1.0  0.38079  0.43997  0.08212  1.0000
  H   H921      1.0  0.36087  0.41905  0.06738  1.0000
  H   H922      1.0  0.36953  0.37576  0.11289  1.0000
  H   H923      1.0  0.38950  0.39675  0.12770  1.0000
  H   H924      1.0  0.45174  0.08949  0.31269  1.0000
  H   H925      1.0  0.47540  0.47376  0.10897  1.0000
  C   C542      1.0  0.44941  0.10515  0.31125  1.0000
  Fe  Fe88      1.0  0.43496  0.49225  0.08787  1.0000
  H   H926      1.0  0.41464  0.11537  0.25656  1.0000
  H   H927      1.0  0.37484  0.00302  0.03247  1.0000
  C   C543      1.0  0.39885  0.46325  0.02956  1.0000
  H   H928      1.0  0.38978  0.21266  0.20843  1.0000
  H   H929      1.0  0.39909  0.45808  0.04436  1.0000
  H   H930      1.0  0.34147  0.44210  0.11592  1.0000
  N   N37       1.0  0.36367  0.21858  0.19437  1.0000
  C   C544      1.0  0.35388  0.23402  0.18173  1.0000
  C   C545      1.0  0.36868  0.20164  0.18313  1.0000
  C   C546      1.0  0.35059  0.21370  0.21147  1.0000
  H   H931      1.0  0.35418  0.01176  0.04601  1.0000
  S   S169      1.0  0.40496  0.05520  0.01387  1.0000
  C   C547      1.0  0.35812  0.19751  0.22569  1.0000
  H   H932      1.0  0.36245  0.23685  0.16816  1.0000
  H   H933      1.0  0.34033  0.22950  0.17746  1.0000
  H   H934      1.0  0.37909  0.19124  0.19014  1.0000
  H   H935      1.0  0.35566  0.01647  0.30254  1.0000
  H   H936      1.0  0.34743  0.22619  0.21986  1.0000
  H   H937      1.0  0.33640  0.21058  0.20744  1.0000
  H   H938      1.0  0.42284  0.16544  0.05692  1.0000
  C   C548      1.0  0.35810  0.02531  0.08132  1.0000
  H   H939      1.0  0.48669  0.02533  0.05178  1.0000
  C   C549      1.0  0.36106  0.05163  0.05645  1.0000
  H   H940      1.0  0.36686  0.20299  0.23600  1.0000
  H   H941      1.0  0.36659  0.18593  0.21886  1.0000
  H   H942      1.0  0.34600  0.19064  0.23346  1.0000
  N   N38       1.0  0.31538  0.40423  0.13584  1.0000
  C   C550      1.0  0.31970  0.39064  0.15293  1.0000
  C   C551      1.0  0.29684  0.41521  0.14072  1.0000
  C   C552      1.0  0.33093  0.41767  0.13268  1.0000
  C   C553      1.0  0.31465  0.39287  0.11899  1.0000
  C   C554      1.0  0.33973  0.38036  0.15267  1.0000
  H   H943      1.0  0.40843  0.01903  0.07817  1.0000
  C   C555      1.0  0.32948  0.43297  0.11594  1.0000
  C   C556      1.0  0.30356  0.40226  0.10215  1.0000
  H   H944      1.0  0.31776  0.39806  0.16619  1.0000
  H   H945      1.0  0.30967  0.37924  0.15486  1.0000
  H   H946      1.0  0.29281  0.42610  0.12930  1.0000
  H   H947      1.0  0.29813  0.42344  0.15313  1.0000
  H   H948      1.0  0.33214  0.42500  0.14571  1.0000
  H   H949      1.0  0.34489  0.40984  0.12987  1.0000
  H   H950      1.0  0.32920  0.38849  0.11338  1.0000
  H   H951      1.0  0.30801  0.37936  0.12343  1.0000
  H   H952      1.0  0.34411  0.37472  0.13889  1.0000
  H   H953      1.0  0.35038  0.38987  0.15615  1.0000
  H   H954      1.0  0.33994  0.36815  0.16365  1.0000
  H   H955      1.0  0.46920  0.47860  0.04193  1.0000
  C   C557      1.0  0.35191  0.19068  0.17866  1.0000
  H   H956      1.0  0.27797  0.39362  0.13435  1.0000
  H   H957      1.0  0.33122  0.42657  0.10218  1.0000
  H   H958      1.0  0.31157  0.39898  0.08866  1.0000
  H   H959      1.0  0.30107  0.41783  0.10144  1.0000
  H   H960      1.0  0.43199  0.12225  0.05015  1.0000
  C   C558      1.0  0.40606  0.45143  0.01548  1.0000
  H   H961      1.0  0.48150  0.14113  0.04008  1.0000
  H   H962      1.0  0.31633  0.44242  0.11694  1.0000
  H   H963      1.0  0.34338  0.26367  0.17897  1.0000
  C   C559      1.0  0.34892  0.25319  0.19023  1.0000
  H   H964      1.0  0.33757  0.25216  0.20179  1.0000
  H   H965      1.0  0.41205  0.43724  0.01943  1.0000
  C   C560      1.0  0.38162  0.22487  0.20101  1.0000
  H   H966      1.0  0.37800  0.22575  0.05405  1.0000
  H   H967      1.0  0.36533  0.02683  0.02719  1.0000
  N   N39       1.0  0.42985  0.10739  0.28177  1.0000
  C   C561      1.0  0.44687  0.11327  0.29061  1.0000
  C   C562      1.0  0.42870  0.11683  0.26189  1.0000
  C   C563      1.0  0.41167  0.11125  0.29363  1.0000
  Fe  Fe89      1.0  0.36625  0.04922  0.32980  1.0000
  C   C564      1.0  0.43233  0.13804  0.25867  1.0000
  S   S170      1.0  0.42748  0.00420  0.03852  1.0000
  H   H968      1.0  0.44714  0.08231  0.27379  1.0000
  H   H969      1.0  0.34253  0.07731  0.05935  1.0000
  H   H970      1.0  0.44673  0.12887  0.29071  1.0000
  H   H971      1.0  0.46007  0.10921  0.28196  1.0000
  H   H972      1.0  0.43916  0.10960  0.25190  1.0000
  C   C565      1.0  0.43920  0.49807  0.02864  1.0000
  H   H973      1.0  0.43936  0.11379  0.08285  1.0000
  H   H974      1.0  0.37845  0.23530  0.21182  1.0000
  H   H975      1.0  0.40382  0.07965  0.27511  1.0000
  H   H976      1.0  0.42913  0.14326  0.24392  1.0000
  H   H977      1.0  0.44743  0.14032  0.25992  1.0000
  H   H978      1.0  0.42320  0.14697  0.26811  1.0000
  H   H979      1.0  0.39850  0.14034  0.28929  1.0000
  H   H980      1.0  0.43723  0.10973  0.32088  1.0000
  H   H981      1.0  0.34530  0.18332  0.19163  1.0000
  S   S171      1.0  0.38104  0.48413  0.09583  1.0000
  N   N40       1.0  0.37174  0.03525  0.06717  1.0000
  H   H982      1.0  0.31788  0.01669  0.31141  1.0000
  H   H983      1.0  0.41917  0.08296  0.25378  1.0000
  H   H984      1.0  0.44188  0.09849  0.05314  1.0000
  H   H985      1.0  0.26656  0.41266  0.14673  1.0000
  C   C566      1.0  0.48765  0.48112  0.10346  1.0000
  C   C567      1.0  0.39531  0.23370  0.18537  1.0000
  C   C568      1.0  0.46530  0.12497  0.11086  1.0000
  C   C569      1.0  0.40703  0.13151  0.29973  1.0000
  C   C570      1.0  0.38111  0.02240  0.05288  1.0000
  C   C571      1.0  0.45036  0.15140  0.06360  1.0000
  H   H986      1.0  0.28019  0.04096  0.31716  1.0000
  H   H987      1.0  0.33769  0.23497  0.06698  1.0000
  H   H988      1.0  0.37610  0.20603  0.16936  1.0000
  C   C572      1.0  0.49381  0.17814  0.15272  1.0000
  H   H989      1.0  0.40867  0.23612  0.19164  1.0000
  H   H990      1.0  0.41951  0.13891  0.30232  1.0000
  C   C573      1.0  0.42915  0.15639  0.06879  1.0000
  Fe  Fe90      1.0  0.39810  0.49098  0.06878  1.0000
  C   C574      1.0  0.46601  0.47411  0.02794  1.0000
  H   H991      1.0  0.45603  0.11617  0.04148  1.0000
  N   N41       1.0  0.45947  0.13500  0.07560  1.0000
  C   C575      1.0  0.25142  0.36324  0.16268  1.0000
  H   H992      1.0  0.39429  0.02236  0.10039  1.0000
  C   C576      1.0  0.36791  0.01569  0.03896  1.0000
  H   H993      1.0  0.42719  0.16462  0.08145  1.0000
  H   H994      1.0  0.38047  0.05293  0.08790  1.0000
  H   H995      1.0  0.29647  0.04058  0.29688  1.0000
  S   S172      1.0  0.35560  0.10450  0.32484  1.0000
  H   H996      1.0  0.33466  0.28488  0.02365  1.0000
  S   S173      1.0  0.47955  0.07505  0.04046  1.0000
  H   H997      1.0  0.34367  0.02625  0.07596  1.0000
  H   H998      1.0  0.38845  0.00947  0.05977  1.0000
  H   H999      1.0  0.42764  0.04699  0.32939  1.0000
  N   N42       1.0  0.35581  0.27094  0.05715  1.0000
  C   C577      1.0  0.35593  0.28891  0.04394  1.0000
  C   C578      1.0  0.36255  0.27540  0.07577  1.0000
  C   C579      1.0  0.33553  0.26590  0.06022  1.0000
  C   C580      1.0  0.36823  0.25547  0.04813  1.0000
  C   C581      1.0  0.34980  0.28747  0.02373  1.0000
  C   C582      1.0  0.38228  0.28317  0.07482  1.0000
  C   C583      1.0  0.33171  0.24800  0.07341  1.0000
  C   C584      1.0  0.37651  0.23890  0.06157  1.0000
  H   H1000     1.0  0.34670  0.30055  0.05014  1.0000
  H   H1001     1.0  0.37033  0.29410  0.04182  1.0000
  H   H1002     1.0  0.36302  0.26288  0.08618  1.0000
  H   H1003     1.0  0.35231  0.28585  0.08262  1.0000
  H   H1004     1.0  0.32643  0.27791  0.06598  1.0000
  H   H1005     1.0  0.32968  0.26351  0.04666  1.0000
  H   H1006     1.0  0.36047  0.24924  0.03742  1.0000
  H   H1007     1.0  0.38073  0.26167  0.04021  1.0000
  H   H1008     1.0  0.44018  0.13911  0.10035  1.0000
  H   H1009     1.0  0.43202  0.07835  0.29467  1.0000
  H   H1010     1.0  0.41089  0.10132  0.30667  1.0000
  H   H1011     1.0  0.38746  0.28195  0.08930  1.0000
  H   H1012     1.0  0.39287  0.27528  0.06569  1.0000
  H   H1013     1.0  0.38155  0.29850  0.06990  1.0000
  H   H1014     1.0  0.31616  0.24692  0.07540  1.0000
  H   H1015     1.0  0.33673  0.24848  0.08771  1.0000
  C   C585      1.0  0.38682  0.04354  0.07703  1.0000
  H   H1016     1.0  0.48782  0.12243  0.08019  1.0000
  H   H1017     1.0  0.28078  0.39458  0.15929  1.0000
  C   C586      1.0  0.49613  0.16769  0.17019  1.0000
  H   H1018     1.0  0.36134  0.25912  0.19533  1.0000
  H   H1019     1.0  0.46237  0.10420  0.07658  1.0000
  H   H1020     1.0  0.45968  0.15355  0.09833  1.0000
  C   C587      1.0  0.45560  0.13911  0.09611  1.0000
  H   H1021     1.0  0.44310  0.49977  0.04323  1.0000
  H   H1022     1.0  0.34167  0.06119  0.08024  1.0000
  C   C588      1.0  0.41851  0.07749  0.26894  1.0000
  H   H1023     1.0  0.35723  0.17954  0.16919  1.0000
  N   N43       1.0  0.45588  0.49028  0.01651  1.0000
  H   H1024     1.0  0.48584  0.11604  0.04772  1.0000
  H   H1025     1.0  0.30314  0.05052  0.31720  1.0000
  C   C589      1.0  0.29545  0.03900  0.31263  1.0000
  H   H1026     1.0  0.40634  0.00257  0.00480  1.0000
  H   H1027     1.0  0.41224  0.03759  0.09220  1.0000
  C   C590      1.0  0.39143  0.48175  0.02443  1.0000
  H   H1028     1.0  0.48068  0.12659  0.11061  1.0000
  C   C591      1.0  0.48062  0.13416  0.07128  1.0000
  C   C592      1.0  0.48786  0.13072  0.05082  1.0000
  H   H1029     1.0  0.48214  0.49884  0.00229  1.0000
  C   C593      1.0  0.45184  0.11626  0.07292  1.0000
  H   H1030     1.0  0.29821  0.30081  0.01484  1.0000
  H   H1031     1.0  0.42109  0.14361  0.07156  1.0000
  C   C594      1.0  0.44523  0.11349  0.05321  1.0000
  H   H1032     1.0  0.44091  0.45885  0.03878  1.0000
  S   S174      1.0  0.43390  0.08922  0.01410  1.0000
  H   H1033     1.0  0.35149  0.30130  0.01532  1.0000
  H   H1034     1.0  0.48007  0.46994  0.02094  1.0000
  H   H1035     1.0  0.46211  0.11074  0.31629  1.0000
  C   C595      1.0  0.27973  0.40315  0.14548  1.0000
  H   H1036     1.0  0.37063  0.05880  0.04535  1.0000
  H   H1037     1.0  0.38374  0.40911  0.00870  1.0000
  H   H1038     1.0  0.33667  0.35631  0.00433  1.0000
  H   H1039     1.0  0.43757  0.47367  0.00290  1.0000
  S   S175      1.0  0.46448  0.50093  0.07729  1.0000
  C   C596      1.0  0.48601  0.49511  0.08835  1.0000
  H   H1040     1.0  0.42811  0.48784  0.03082  1.0000
  S   S176      1.0  0.38416  0.49759  0.04146  1.0000
  C   C597      1.0  0.30386  0.01904  0.31935  1.0000
  S   S177      1.0  0.45132  0.04567  0.00635  1.0000
  H   H1041     1.0  0.26123  0.36482  0.17326  1.0000
  H   H1042     1.0  0.25878  0.34828  0.01120  1.0000
  H   H1043     1.0  0.48632  0.14750  0.07478  1.0000
  C   C598      1.0  0.32832  0.34413  0.00654  1.0000
  H   H1044     1.0  0.29449  0.00921  0.31406  1.0000
  C   C599      1.0  0.39088  0.48827  0.00532  1.0000
  C   C600      1.0  0.35734  0.00226  0.30945  1.0000
  H   H1045     1.0  0.44957  0.03281  0.35126  1.0000
  Fe  Fe91      1.0  0.48427  0.06258  0.41885  1.0000
  S   S178      1.0  0.45274  0.06107  0.41589  1.0000
  H   H1046     1.0  0.41498  0.10190  0.65420  1.0000
  C   C601      1.0  0.26116  0.12016  0.38586  1.0000
  S   S179      1.0  0.47860  0.10206  0.62170  1.0000
  C   C602      1.0  0.48480  0.10610  0.55632  1.0000
  N   N44       1.0  0.30584  0.01488  0.34037  1.0000
  S   S180      1.0  0.36104  0.06643  0.35495  1.0000
  C   C603      1.0  0.46314  0.02530  0.38443  1.0000
  H   H1047     1.0  0.46131  0.06625  0.59289  1.0000
  C   C604      1.0  0.27973  0.13409  0.46535  1.0000
  S   S181      1.0  0.30712  0.08141  0.35484  1.0000
  C   C605      1.0  0.42938  0.07398  0.65601  1.0000
  C   C606      1.0  0.28986  0.09682  0.36681  1.0000
  C   C607      1.0  0.29225  0.11600  0.36828  1.0000
  C   C608      1.0  0.27801  0.12754  0.37769  1.0000
  C   C609      1.0  0.26256  0.11574  0.65045  1.0000
  H   H1048     1.0  0.31472  0.04278  0.34471  1.0000
  C   C610      1.0  0.27305  0.08943  0.37510  1.0000
  H   H1049     1.0  0.28153  0.06959  0.65870  1.0000
  H   H1050     1.0  0.43614  0.03100  0.39846  1.0000
  H   H1051     1.0  0.32896  0.06465  0.62880  1.0000
  C   C611      1.0  0.45985  0.09108  0.63505  1.0000
  C   C612      1.0  0.46130  0.07164  0.64056  1.0000
  H   H1052     1.0  0.31309  0.03785  0.64119  1.0000
  C   C613      1.0  0.49718  0.00839  0.62526  1.0000
  C   C614      1.0  0.29250  0.11636  0.47168  1.0000
  H   H1053     1.0  0.49219  0.02309  0.62576  1.0000
  H   H1054     1.0  0.47415  0.06311  0.63694  1.0000
  H   H1055     1.0  0.27424  0.17308  0.45314  1.0000
  H   H1056     1.0  0.28732  0.00763  0.36503  1.0000
  C   C615      1.0  0.44006  0.07216  0.39683  1.0000
  C   C616      1.0  0.44879  0.08311  0.38182  1.0000
  C   C617      1.0  0.43816  0.09142  0.36681  1.0000
  C   C618      1.0  0.41887  0.08848  0.36646  1.0000
  C   C619      1.0  0.41020  0.07739  0.38138  1.0000
  C   C620      1.0  0.42072  0.06945  0.39659  1.0000
  H   H1057     1.0  0.46366  0.08535  0.38191  1.0000
  H   H1058     1.0  0.44494  0.10018  0.35546  1.0000
  H   H1059     1.0  0.39530  0.07528  0.38141  1.0000
  H   H1060     1.0  0.41383  0.06116  0.40825  1.0000
  S   S182      1.0  0.50026  0.08857  0.41911  1.0000
  H   H1061     1.0  0.27093  0.07467  0.37411  1.0000
  H   H1062     1.0  0.28916  0.14595  0.46372  1.0000
  C   C621      1.0  0.46251  0.07457  0.54418  1.0000
  H   H1063     1.0  0.44182  0.11701  0.63577  1.0000
  H   H1064     1.0  0.43140  0.08893  0.56480  1.0000
  H   H1065     1.0  0.44610  0.10676  0.55529  1.0000
  H   H1066     1.0  0.28205  0.10540  0.41943  1.0000
  H   H1067     1.0  0.44939  0.05510  0.52800  1.0000
  H   H1068     1.0  0.47162  0.01538  0.37549  1.0000
  C   C622      1.0  0.42788  0.09346  0.65053  1.0000
  H   H1069     1.0  0.29523  0.14235  0.43181  1.0000
  H   H1070     1.0  0.46016  0.00419  0.34870  1.0000
  H   H1071     1.0  0.48687  0.10445  0.54093  1.0000
  H   H1072     1.0  0.28290  0.03877  0.37141  1.0000
  C   C623      1.0  0.25642  0.15124  0.44531  1.0000
  C   C624      1.0  0.30110  0.11504  0.65920  1.0000
  H   H1073     1.0  0.28003  0.14236  0.37851  1.0000
  H   H1074     1.0  0.27153  0.13045  0.62388  1.0000
  H   H1075     1.0  0.26716  0.18300  0.64659  1.0000
  H   H1076     1.0  0.29952  0.10547  0.43674  1.0000
  H   H1077     1.0  0.44270  0.06034  0.58017  1.0000
  C   C625      1.0  0.32529  0.02358  0.36718  1.0000
  H   H1078     1.0  0.46797  0.03401  0.58683  1.0000
  H   H1079     1.0  0.44311  0.00648  0.39834  1.0000
  H   H1080     1.0  0.30361  0.11614  0.41319  1.0000
  H   H1081     1.0  0.28152  0.04899  0.64637  1.0000
  C   C626      1.0  0.44290  0.10341  0.58595  1.0000
  H   H1082     1.0  0.25470  0.18190  0.43971  1.0000
  N   N45       1.0  0.26958  0.13345  0.44755  1.0000
  H   H1083     1.0  0.25762  0.03702  0.66555  1.0000
  H   H1084     1.0  0.43346  0.04839  0.36328  1.0000
  C   C627      1.0  0.44510  0.09489  0.56661  1.0000
  S   S183      1.0  0.32554  0.11465  0.66371  1.0000
  H   H1085     1.0  0.29352  0.11573  0.48727  1.0000
  H   H1086     1.0  0.43010  0.11348  0.58642  1.0000
  H   H1087     1.0  0.40668  0.03759  0.38240  1.0000
  C   C628      1.0  0.45792  0.06321  0.57844  1.0000
  C   C629      1.0  0.29500  0.12363  0.64180  1.0000
  H   H1088     1.0  0.48034  0.08984  0.58316  1.0000
  C   C630      1.0  0.40994  0.02245  0.37960  1.0000
  H   H1089     1.0  0.30521  0.12984  0.63149  1.0000
  H   H1090     1.0  0.33549  0.01090  0.36868  1.0000
  C   C631      1.0  0.31935  0.06660  0.64166  1.0000
  H   H1091     1.0  0.33029  0.04103  0.65735  1.0000
  C   C632      1.0  0.44487  0.06601  0.53802  1.0000
  H   H1092     1.0  0.49176  0.07682  0.56508  1.0000
  C   C633      1.0  0.47981  0.08749  0.56795  1.0000
  H   H1093     1.0  0.46470  0.08715  0.53396  1.0000
  C   C634      1.0  0.31633  0.04695  0.65228  1.0000
  H   H1094     1.0  0.44740  0.04808  0.65512  1.0000
  C   C635      1.0  0.28347  0.13327  0.43033  1.0000
  H   H1095     1.0  0.30500  0.12200  0.36200  1.0000
  C   C636      1.0  0.29716  0.01134  0.66391  1.0000
  H   H1096     1.0  0.43537  0.07721  0.53085  1.0000
  C   C637      1.0  0.44308  0.10196  0.64005  1.0000
  H   H1097     1.0  0.49847  0.11019  0.56069  1.0000
  H   H1098     1.0  0.49267  0.01111  0.42215  1.0000
  S   S184      1.0  0.49491  0.04921  0.44653  1.0000
  H   H1099     1.0  0.28680  0.10284  0.46932  1.0000
  N   N46       1.0  0.46129  0.08002  0.56427  1.0000
  S   S185      1.0  0.37446  0.01786  0.33759  1.0000
  H   H1100     1.0  0.47531  0.06484  0.54112  1.0000
  H   H1101     1.0  0.46365  0.03803  0.56226  1.0000
  H   H1102     1.0  0.32646  0.07580  0.65023  1.0000
  H   H1103     1.0  0.26373  0.03794  0.35713  1.0000
  C   C638      1.0  0.46923  0.04440  0.57418  1.0000
  H   H1104     1.0  0.26975  0.13773  0.47757  1.0000
  C   C639      1.0  0.31977  0.02763  0.34653  1.0000
  C   C640      1.0  0.27587  0.12406  0.63745  1.0000
  H   H1105     1.0  0.43655  0.05876  0.54990  1.0000
  H   H1106     1.0  0.28450  0.01571  0.65592  1.0000
  C   C641      1.0  0.28683  0.01664  0.35135  1.0000
  H   H1107     1.0  0.44099  0.09240  0.59792  1.0000
  C   C642      1.0  0.40326  0.01042  0.39774  1.0000
  H   H1108     1.0  0.48444  0.04623  0.57090  1.0000
  N   N47       1.0  0.43046  0.01894  0.37269  1.0000
  H   H1109     1.0  0.27654  0.13963  0.41743  1.0000
  H   H1110     1.0  0.40744  0.04159  0.34454  1.0000
  H   H1111     1.0  0.45506  0.11157  0.58823  1.0000
  H   H1112     1.0  0.30605  0.07415  0.63685  1.0000
  H   H1113     1.0  0.47023  0.02490  0.39789  1.0000
  C   C643      1.0  0.25753  0.11680  0.44859  1.0000
  H   H1114     1.0  0.28420  0.04865  0.34703  1.0000
  H   H1115     1.0  0.40036  0.01982  0.36856  1.0000
  H   H1116     1.0  0.30950  0.00811  0.65388  1.0000
  H   H1117     1.0  0.30696  0.11697  0.46467  1.0000
  H   H1118     1.0  0.46375  0.04007  0.37788  1.0000
  S   S186      1.0  0.40595  0.09929  0.34747  1.0000
  C   C644      1.0  0.28247  0.05380  0.66075  1.0000
  C   C645      1.0  0.29259  0.11383  0.42495  1.0000
  C   C646      1.0  0.44612  0.06315  0.65092  1.0000
  H   H1119     1.0  0.27580  0.01110  0.34346  1.0000
  C   C647      1.0  0.27943  0.03670  0.35678  1.0000
  C   C648      1.0  0.44255  0.02007  0.38914  1.0000
  H   H1120     1.0  0.33259  0.03576  0.37113  1.0000
  C   C649      1.0  0.25884  0.10094  0.38457  1.0000
  C   C650      1.0  0.43475  0.03437  0.35726  1.0000
  H   H1121     1.0  0.47426  0.11810  0.55900  1.0000
  H   H1122     1.0  0.26610  0.10304  0.44890  1.0000
  H   H1123     1.0  0.27663  0.15547  0.66326  1.0000
  H   H1124     1.0  0.26212  0.16808  0.62922  1.0000
  C   C651      1.0  0.25556  0.17850  0.63900  1.0000
  H   H1125     1.0  0.38804  0.01450  0.40115  1.0000
  H   H1126     1.0  0.41084  0.01306  0.41022  1.0000
  Fe  Fe92      1.0  0.37978  0.08699  0.33865  1.0000
  C   C652      1.0  0.26594  0.17012  0.44129  1.0000
  Fe  Fe93      1.0  0.33702  0.08215  0.33947  1.0000
  H   H1127     1.0  0.33314  0.02663  0.33732  1.0000
  C   C653      1.0  0.42213  0.03626  0.34034  1.0000
  H   H1128     1.0  0.31285  0.02178  0.37733  1.0000
  H   H1129     1.0  0.27493  0.17069  0.42783  1.0000
  Fe  Fe94      1.0  0.39876  0.46532  0.91318  1.0000
  S   S187      1.0  0.38725  0.47359  0.94169  1.0000
  S   S188      1.0  0.37652  0.45187  0.89869  1.0000
  Fe  Fe95      1.0  0.43669  0.48180  0.91712  1.0000
  S   S189      1.0  0.46497  0.49067  0.90350  1.0000
  Fe  Fe96      1.0  0.41564  0.46244  0.95105  1.0000
  S   S190      1.0  0.41707  0.44461  0.97871  1.0000
  S   S191      1.0  0.42668  0.45229  0.92303  1.0000
  H   H1130     1.0  0.41803  0.12721  0.71708  1.0000
  H   H1131     1.0  0.29349  0.36647  0.97423  1.0000
  S   S192      1.0  0.42794  0.07090  0.96269  1.0000
  Fe  Fe97      1.0  0.33749  0.30691  0.90732  1.0000
  S   S193      1.0  0.31101  0.31500  0.92551  1.0000
  S   S194      1.0  0.34993  0.27588  0.90657  1.0000
  Fe  Fe98      1.0  0.34639  0.34850  0.89952  1.0000
  S   S195      1.0  0.32059  0.35950  0.91642  1.0000
  S   S196      1.0  0.37209  0.36432  0.88890  1.0000
  Fe  Fe99      1.0  0.32784  0.33552  0.93827  1.0000
  S   S197      1.0  0.33104  0.34482  0.96778  1.0000
  Fe  Fe100     1.0  0.30507  0.33861  0.90245  1.0000
  S   S198      1.0  0.27328  0.34515  0.89775  1.0000
  S   S199      1.0  0.35445  0.32578  0.92202  1.0000
  S   S200      1.0  0.33069  0.32918  0.88354  1.0000
  Fe  Fe101     1.0  0.41917  0.15720  0.88248  1.0000
  S   S201      1.0  0.43577  0.18263  0.87368  1.0000
  S   S202      1.0  0.41685  0.15065  0.91449  1.0000
  Fe  Fe102     1.0  0.41038  0.15233  0.84097  1.0000
  S   S203      1.0  0.42675  0.17731  0.82989  1.0000
  S   S204      1.0  0.39337  0.13416  0.82385  1.0000
  Fe  Fe103     1.0  0.44877  0.16558  0.85025  1.0000
  S   S205      1.0  0.48038  0.15793  0.84344  1.0000
  Fe  Fe104     1.0  0.41219  0.19223  0.85464  1.0000
  S   S206      1.0  0.39834  0.22264  0.84925  1.0000
  S   S207      1.0  0.43318  0.13963  0.85996  1.0000
  S   S208      1.0  0.39485  0.16773  0.86482  1.0000
  Fe  Fe105     1.0  0.34474  0.09686  0.68456  1.0000
  S   S209      1.0  0.33878  0.08938  0.71585  1.0000
  H   H1132     1.0  0.44145  0.13334  0.71007  1.0000
  Fe  Fe106     1.0  0.38462  0.07543  0.68482  1.0000
  S   S210      1.0  0.38079  0.06606  0.71592  1.0000
  H   H1133     1.0  0.40978  0.30025  0.91798  1.0000
  Fe  Fe107     1.0  0.35148  0.06000  0.70952  1.0000
  S   S211      1.0  0.33646  0.03305  0.71887  1.0000
  Fe  Fe108     1.0  0.36895  0.09613  0.71964  1.0000
  S   S212      1.0  0.38263  0.11599  0.73801  1.0000
  C   C654      1.0  0.25951  0.35530  0.87864  1.0000
  S   S213      1.0  0.37404  0.10558  0.68844  1.0000
  H   H1134     1.0  0.38130  0.31956  0.84619  1.0000
  H   H1135     1.0  0.25838  0.10124  0.67829  1.0000
  H   H1136     1.0  0.37143  0.02006  0.69823  1.0000
  H   H1137     1.0  0.34183  0.43692  0.95186  1.0000
  C   C655      1.0  0.39106  0.12909  0.79982  1.0000
  C   C656      1.0  0.37900  0.11516  0.79636  1.0000
  C   C657      1.0  0.37634  0.11082  0.77770  1.0000
  C   C658      1.0  0.38552  0.12054  0.76207  1.0000
  C   C659      1.0  0.39752  0.13455  0.76552  1.0000
  C   C660      1.0  0.40039  0.13871  0.78418  1.0000
  H   H1138     1.0  0.37167  0.10758  0.80824  1.0000
  H   H1139     1.0  0.36705  0.10003  0.77545  1.0000
  H   H1140     1.0  0.40461  0.14231  0.75363  1.0000
  H   H1141     1.0  0.40976  0.14940  0.78644  1.0000
  H   H1142     1.0  0.39679  0.28467  0.85538  1.0000
  C   C661      1.0  0.26769  0.36219  0.86107  1.0000
  H   H1143     1.0  0.27965  0.06843  0.69726  1.0000
  H   H1144     1.0  0.36860  0.33484  0.86198  1.0000
  H   H1145     1.0  0.48508  0.19377  0.85953  1.0000
  S   S214      1.0  0.42791  0.49063  0.94610  1.0000
  H   H1146     1.0  0.43963  0.28509  0.86051  1.0000
  C   C662      1.0  0.27012  0.30743  0.95904  1.0000
  C   C663      1.0  0.48609  0.47603  0.93353  1.0000
  C   C664      1.0  0.36211  0.26076  0.89006  1.0000
  C   C665      1.0  0.37121  0.24340  0.89703  1.0000
  C   C666      1.0  0.38203  0.23142  0.88478  1.0000
  C   C667      1.0  0.38393  0.23662  0.86529  1.0000
  C   C668      1.0  0.37444  0.25373  0.85822  1.0000
  C   C669      1.0  0.36356  0.26569  0.87047  1.0000
  H   H1147     1.0  0.37013  0.23930  0.91210  1.0000
  H   H1148     1.0  0.38912  0.21829  0.89050  1.0000
  H   H1149     1.0  0.37561  0.25784  0.84316  1.0000
  H   H1150     1.0  0.35632  0.27873  0.86475  1.0000
  C   C670      1.0  0.32349  0.33530  0.99083  1.0000
  H   H1151     1.0  0.29132  0.04704  0.70897  1.0000
  H   H1152     1.0  0.41181  0.09120  0.71405  1.0000
  H   H1153     1.0  0.30915  0.31245  0.98201  1.0000
  H   H1154     1.0  0.40622  0.41702  0.93779  1.0000
  H   H1155     1.0  0.27760  0.17324  0.68010  1.0000
  H   H1156     1.0  0.40459  0.32867  0.90301  1.0000
  N   N48       1.0  0.30120  0.04645  0.66842  1.0000
  H   H1157     1.0  0.28293  0.36136  0.85866  1.0000
  C   C671      1.0  0.42355  0.09312  0.94966  1.0000
  C   C672      1.0  0.42218  0.09376  0.92995  1.0000
  C   C673      1.0  0.41953  0.11123  0.91898  1.0000
  C   C674      1.0  0.41839  0.12823  0.92766  1.0000
  C   C675      1.0  0.41946  0.12756  0.94740  1.0000
  C   C676      1.0  0.42205  0.11010  0.95837  1.0000
  H   H1158     1.0  0.42321  0.08067  0.92314  1.0000
  H   H1159     1.0  0.41854  0.11155  0.90383  1.0000
  H   H1160     1.0  0.41850  0.14065  0.95424  1.0000
  H   H1161     1.0  0.42302  0.10980  0.97351  1.0000
  H   H1162     1.0  0.47588  0.10300  0.95780  1.0000
  H   H1163     1.0  0.42941  0.27516  0.84172  1.0000
  C   C677      1.0  0.37571  0.42713  0.89794  1.0000
  C   C678      1.0  0.35802  0.41953  0.89847  1.0000
  C   C679      1.0  0.35675  0.40014  0.89650  1.0000
  C   C680      1.0  0.37319  0.38829  0.89338  1.0000
  C   C681      1.0  0.39090  0.39583  0.89302  1.0000
  C   C682      1.0  0.39218  0.41512  0.89560  1.0000
  H   H1164     1.0  0.34523  0.42877  0.90009  1.0000
  H   H1165     1.0  0.34304  0.39455  0.89661  1.0000
  H   H1166     1.0  0.40368  0.38678  0.89051  1.0000
  H   H1167     1.0  0.40586  0.42087  0.89493  1.0000
  H   H1168     1.0  0.44798  0.06384  0.70932  1.0000
  H   H1169     1.0  0.43840  0.13111  0.74294  1.0000
  H   H1170     1.0  0.45877  0.14779  0.92091  1.0000
  H   H1171     1.0  0.45441  0.09072  0.68081  1.0000
  C   C683      1.0  0.47840  0.16056  0.90003  1.0000
  H   H1172     1.0  0.44305  0.08755  0.74261  1.0000
  C   C684      1.0  0.36247  0.00835  0.70066  1.0000
  C   C685      1.0  0.25613  0.37008  0.84649  1.0000
  N   N49       1.0  0.35271  0.19337  0.82483  1.0000
  C   C686      1.0  0.34520  0.18735  0.84480  1.0000
  C   C687      1.0  0.34144  0.18423  0.81147  1.0000
  C   C688      1.0  0.34983  0.21474  0.82187  1.0000
  C   C689      1.0  0.37344  0.18681  0.82304  1.0000
  C   C690      1.0  0.35130  0.19859  0.86068  1.0000
  C   C691      1.0  0.34371  0.16235  0.81270  1.0000
  C   C692      1.0  0.34980  0.22381  0.80128  1.0000
  C   C693      1.0  0.38388  0.18923  0.80325  1.0000
  H   H1173     1.0  0.32942  0.18848  0.84594  1.0000
  H   H1174     1.0  0.34956  0.17216  0.84881  1.0000
  H   H1175     1.0  0.34498  0.18903  0.79644  1.0000
  H   H1176     1.0  0.32608  0.18860  0.81386  1.0000
  H   H1177     1.0  0.33592  0.21980  0.82872  1.0000
  H   H1178     1.0  0.36077  0.22147  0.82891  1.0000
  H   H1179     1.0  0.38146  0.19439  0.83239  1.0000
  H   H1180     1.0  0.37594  0.17170  0.82854  1.0000
  H   H1181     1.0  0.34449  0.21326  0.86014  1.0000
  H   H1182     1.0  0.34681  0.19145  0.87469  1.0000
  H   H1183     1.0  0.36679  0.19923  0.86035  1.0000
  H   H1184     1.0  0.33477  0.15725  0.80233  1.0000
  H   H1185     1.0  0.35848  0.15701  0.80887  1.0000
  H   H1186     1.0  0.33903  0.15579  0.82686  1.0000
  H   H1187     1.0  0.38338  0.43282  0.95608  1.0000
  H   H1188     1.0  0.36261  0.21956  0.79246  1.0000
  H   H1189     1.0  0.34934  0.23947  0.80149  1.0000
  H   H1190     1.0  0.39046  0.20299  0.80115  1.0000
  H   H1191     1.0  0.37506  0.18778  0.79140  1.0000
  H   H1192     1.0  0.39532  0.17766  0.80213  1.0000
  H   H1193     1.0  0.29988  0.06958  0.71026  1.0000
  H   H1194     1.0  0.37476  0.30139  0.87674  1.0000
  H   H1195     1.0  0.41176  0.34483  0.88321  1.0000
  H   H1196     1.0  0.27441  0.37968  0.96207  1.0000
  C   C694      1.0  0.39832  0.47662  0.99133  1.0000
  H   H1197     1.0  0.38061  0.39483  0.93316  1.0000
  C   C695      1.0  0.26428  0.04797  0.67246  1.0000
  C   C696      1.0  0.45941  0.09969  0.70929  1.0000
  H   H1198     1.0  0.41262  0.11899  0.68565  1.0000
  C   C697      1.0  0.29337  0.06080  0.70071  1.0000
  C   C698      1.0  0.37111  0.42464  0.95391  1.0000
  C   C699      1.0  0.38563  0.31182  0.87646  1.0000
  H   H1199     1.0  0.39844  0.48217  0.97671  1.0000
  H   H1200     1.0  0.43117  0.06411  0.72999  1.0000
  H   H1201     1.0  0.38968  0.37857  0.95140  1.0000
  H   H1202     1.0  0.46794  0.11118  0.68029  1.0000
  H   H1203     1.0  0.42207  0.14149  0.68414  1.0000
  H   H1204     1.0  0.33148  0.38788  0.95212  1.0000
  H   H1205     1.0  0.32086  0.05351  0.68779  1.0000
  H   H1206     1.0  0.48234  0.14786  0.92782  1.0000
  H   H1207     1.0  0.39948  0.27816  0.92229  1.0000
  C   C700      1.0  0.37493  0.41215  0.99633  1.0000
  C   C701      1.0  0.40570  0.28602  0.89247  1.0000
  C   C702      1.0  0.43108  0.12282  0.70833  1.0000
  H   H1208     1.0  0.49381  0.16083  0.89643  1.0000
  C   C703      1.0  0.38233  0.32651  0.85939  1.0000
  H   H1209     1.0  0.46972  0.12994  0.88189  1.0000
  H   H1210     1.0  0.42419  0.05836  0.70786  1.0000
  H   H1211     1.0  0.41044  0.30358  0.84600  1.0000
  C   C704      1.0  0.28625  0.36872  0.96079  1.0000
  H   H1212     1.0  0.42021  0.27895  0.89338  1.0000
  H   H1213     1.0  0.44136  0.49578  0.99052  1.0000
  H   H1214     1.0  0.43367  0.30707  0.88267  1.0000
  N   N50       1.0  0.40519  0.30178  0.87668  1.0000
  H   H1215     1.0  0.41386  0.39460  0.92933  1.0000
  H   H1216     1.0  0.38174  0.31935  0.88928  1.0000
  H   H1217     1.0  0.39661  0.27476  0.88950  1.0000
  C   C705      1.0  0.41568  0.33122  0.89154  1.0000
  H   H1218     1.0  0.42485  0.26523  0.86535  1.0000
  H   H1219     1.0  0.35630  0.45039  0.96372  1.0000
  H   H1220     1.0  0.39341  0.33675  0.85729  1.0000
  C   C706      1.0  0.35709  0.39366  0.96493  1.0000
  H   H1221     1.0  0.29184  0.10158  0.68625  1.0000
  H   H1222     1.0  0.26496  0.30165  0.97337  1.0000
  H   H1223     1.0  0.26650  0.36565  0.99335  1.0000
  C   C707      1.0  0.40897  0.29266  0.85820  1.0000
  H   H1224     1.0  0.41673  0.39798  0.95343  1.0000
  C   C708      1.0  0.46492  0.09737  0.68813  1.0000
  N   N51       1.0  0.37482  0.40415  0.96139  1.0000
  C   C709      1.0  0.44860  0.48375  0.99900  1.0000
  C   C710      1.0  0.25841  0.32585  0.95238  1.0000
  H   H1225     1.0  0.31557  0.02171  0.68268  1.0000
  H   H1226     1.0  0.42623  0.08971  0.69309  1.0000
  C   C711      1.0  0.40599  0.45823  0.99633  1.0000
  H   H1227     1.0  0.45719  0.09228  0.90099  1.0000
  H   H1228     1.0  0.37362  0.42782  0.99351  1.0000
  S   S215      1.0  0.35613  0.06741  0.67825  1.0000
  C   C712      1.0  0.38510  0.40263  0.97937  1.0000
  C   C713      1.0  0.31270  0.31956  0.99393  1.0000
  H   H1229     1.0  0.34716  0.39967  0.97594  1.0000
  H   H1230     1.0  0.47223  0.46239  0.99223  1.0000
  C   C714      1.0  0.49882  0.18617  0.85763  1.0000
  H   H1231     1.0  0.28250  0.35035  0.93896  1.0000
  H   H1232     1.0  0.25371  0.06043  0.67243  1.0000
  H   H1233     1.0  0.48330  0.07304  0.99990  1.0000
  H   H1234     1.0  0.34730  0.42991  0.97613  1.0000
  C   C715      1.0  0.26092  0.33805  0.98317  1.0000
  C   C716      1.0  0.49858  0.11979  0.90678  1.0000
  H   H1235     1.0  0.29150  0.02465  0.68985  1.0000
  N   N52       1.0  0.43865  0.10306  0.71521  1.0000
  H   H1236     1.0  0.49585  0.11339  0.94549  1.0000
  H   H1237     1.0  0.42412  0.32243  0.86403  1.0000
  H   H1238     1.0  0.46732  0.11160  0.71290  1.0000
  H   H1239     1.0  0.42863  0.33368  0.89852  1.0000
  H   H1240     1.0  0.47325  0.47024  0.93984  1.0000
  C   C717      1.0  0.40712  0.40153  0.94180  1.0000
  H   H1241     1.0  0.47282  0.48475  0.97765  1.0000
  C   C718      1.0  0.43317  0.06764  0.71448  1.0000
  C   C719      1.0  0.48590  0.48651  0.91587  1.0000
  H   H1242     1.0  0.48047  0.09381  0.88886  1.0000
  C   C720      1.0  0.44520  0.11674  0.74654  1.0000
  H   H1243     1.0  0.39878  0.40929  0.97695  1.0000
  C   C721      1.0  0.34468  0.01093  0.71024  1.0000
  H   H1244     1.0  0.47355  0.17460  0.90512  1.0000
  H   H1245     1.0  0.45075  0.12648  0.89863  1.0000
  H   H1246     1.0  0.45950  0.10052  0.87654  1.0000
  C   C722      1.0  0.42684  0.27882  0.85662  1.0000
  N   N53       1.0  0.26155  0.34336  0.96204  1.0000
  H   H1247     1.0  0.27444  0.33021  0.98723  1.0000
  H   H1248     1.0  0.29206  0.33902  0.95923  1.0000
  N   N54       1.0  0.47773  0.12471  0.91116  1.0000
  C   C723      1.0  0.47117  0.11217  0.92837  1.0000
  C   C724      1.0  0.46577  0.12145  0.89524  1.0000
  C   C725      1.0  0.47395  0.14501  0.91594  1.0000
  H   H1249     1.0  0.36059  0.37875  0.97079  1.0000
  H   H1250     1.0  0.47081  0.15949  0.88717  1.0000
  C   C726      1.0  0.46596  0.10074  0.89029  1.0000
  C   C727      1.0  0.42039  0.31513  0.87822  1.0000
  C   C728      1.0  0.39960  0.29138  0.91261  1.0000
  H   H1251     1.0  0.45563  0.11450  0.93124  1.0000
  H   H1252     1.0  0.47388  0.09689  0.92596  1.0000
  H   H1253     1.0  0.34379  0.40641  0.93895  1.0000
  H   H1254     1.0  0.38501  0.29807  0.91375  1.0000
  C   C729      1.0  0.34573  0.39258  0.94740  1.0000
  C   C730      1.0  0.42556  0.12609  0.68763  1.0000
  C   C731      1.0  0.28066  0.34976  0.95471  1.0000
  C   C732      1.0  0.43651  0.10137  0.73663  1.0000
  H   H1255     1.0  0.33697  0.22077  0.79444  1.0000
  H   H1256     1.0  0.28538  0.30936  0.95903  1.0000
  S   S216      1.0  0.40952  0.49418  0.90457  1.0000
  H   H1257     1.0  0.29628  0.37500  0.94967  1.0000
  C   C733      1.0  0.48018  0.11453  0.94705  1.0000
  H   H1258     1.0  0.26270  0.37527  0.83298  1.0000
  H   H1259     1.0  0.36995  0.42567  0.93829  1.0000
  H   H1260     1.0  0.42128  0.10160  0.74174  1.0000
  H   H1261     1.0  0.35256  0.38180  0.93816  1.0000
  H   H1262     1.0  0.46603  0.08714  0.71764  1.0000
  H   H1263     1.0  0.47485  0.12804  0.95299  1.0000
  C   C734      1.0  0.50033  0.16846  0.85030  1.0000
  H   H1264     1.0  0.47793  0.08762  0.68685  1.0000
  H   H1265     1.0  0.38870  0.38745  0.98418  1.0000
  H   H1266     1.0  0.44266  0.11377  0.76213  1.0000
  C   C735      1.0  0.42684  0.08855  0.70867  1.0000
  H   H1267     1.0  0.46072  0.11665  0.74345  1.0000
  C   C736      1.0  0.35305  0.43560  0.96209  1.0000
  Fe  Fe109     1.0  0.42881  0.06711  0.99477  1.0000
  H   H1268     1.0  0.26602  0.04301  0.68745  1.0000
  C   C737      1.0  0.38743  0.39400  0.94683  1.0000
  H   H1269     1.0  0.26859  0.29645  0.94918  1.0000
  H   H1270     1.0  0.25760  0.37068  0.92978  1.0000
  H   H1271     1.0  0.45609  0.46822  0.97424  1.0000
  C   C738      1.0  0.25683  0.35421  0.99636  1.0000
  C   C739      1.0  0.46353  0.47429  0.98523  1.0000
  H   H1272     1.0  0.43700  0.12156  0.67727  1.0000
  C   C740      1.0  0.30680  0.05883  0.68286  1.0000
  H   H1273     1.0  0.26159  0.32814  0.93677  1.0000
  C   C741      1.0  0.30145  0.02624  0.67717  1.0000
  H   H1274     1.0  0.28055  0.14859  0.68730  1.0000
  H   H1275     1.0  0.25614  0.19564  0.67163  1.0000
  H   H1276     1.0  0.49875  0.13650  0.87827  1.0000
  C   C742      1.0  0.27262  0.15930  0.67787  1.0000
  H   H1277     1.0  0.30849  0.07349  0.67656  1.0000
  C   C743      1.0  0.28761  0.10740  0.67247  1.0000
  S   S217      1.0  0.41091  0.06240  0.66919  1.0000
  Fe  Fe110     1.0  0.40021  0.50118  0.93414  1.0000
  H   H1278     1.0  0.36101  0.40664  0.00075  1.0000
  C   C744      1.0  0.26857  0.10750  0.66801  1.0000
  H   H1279     1.0  0.36359  0.74698  0.08837  1.0000
  S   S218      1.0  0.37880  0.52658  0.12545  1.0000
  C   C745      1.0  0.35048  0.98699  0.30137  1.0000
  H   H1280     1.0  0.34356  0.98955  0.28821  1.0000
  S   S219      1.0  0.43760  0.89972  0.01645  1.0000
  C   C746      1.0  0.37642  0.55066  0.05249  1.0000
  H   H1281     1.0  0.27530  0.83937  0.28892  1.0000
  Fe  Fe111     1.0  0.42780  0.87093  0.02648  1.0000
  S   S220      1.0  0.43828  0.85481  0.05332  1.0000
  C   C747      1.0  0.42016  0.96709  0.03751  1.0000
  Fe  Fe112     1.0  0.30019  0.65031  0.11996  1.0000
  S   S221      1.0  0.33043  0.64898  0.12877  1.0000
  S   S222      1.0  0.27292  0.64979  0.13955  1.0000
  Fe  Fe113     1.0  0.31176  0.66105  0.07840  1.0000
  S   S223      1.0  0.34218  0.66075  0.08403  1.0000
  S   S224      1.0  0.29988  0.66974  0.04975  1.0000
  Fe  Fe114     1.0  0.33767  0.63378  0.10230  1.0000
  S   S225      1.0  0.36291  0.61313  0.09560  1.0000
  Fe  Fe115     1.0  0.33348  0.67618  0.10996  1.0000
  S   S226      1.0  0.35303  0.70036  0.11168  1.0000
  S   S227      1.0  0.30743  0.63303  0.09488  1.0000
  S   S228      1.0  0.30296  0.67857  0.10283  1.0000
  Fe  Fe116     1.0  0.40993  0.80710  0.19498  1.0000
  S   S229      1.0  0.42304  0.77704  0.19294  1.0000
  S   S230      1.0  0.40942  0.82583  0.21995  1.0000
  Fe  Fe117     1.0  0.40483  0.81252  0.15214  1.0000
  S   S231      1.0  0.41762  0.78337  0.14693  1.0000
  S   S232      1.0  0.39070  0.83356  0.13059  1.0000
  Fe  Fe118     1.0  0.40014  0.77359  0.17304  1.0000
  S   S233      1.0  0.38078  0.74897  0.17487  1.0000
  Fe  Fe119     1.0  0.43960  0.78889  0.16675  1.0000
  S   S234      1.0  0.47028  0.78237  0.15580  1.0000
  S   S235      1.0  0.38598  0.80269  0.17725  1.0000
  S   S236      1.0  0.42798  0.81885  0.16975  1.0000
  S   S237      1.0  0.32509  0.89837  0.30582  1.0000
  S   S238      1.0  0.37034  0.89886  0.31323  1.0000
  Fe  Fe120     1.0  0.34449  0.91952  0.31358  1.0000
  S   S239      1.0  0.34322  0.94976  0.29978  1.0000
  Fe  Fe121     1.0  0.35033  0.87698  0.30765  1.0000
  S   S240      1.0  0.35088  0.85394  0.28680  1.0000
  H   H1282     1.0  0.42755  0.92926  0.31414  1.0000
  H   H1283     1.0  0.39529  0.87800  0.14025  1.0000
  H   H1284     1.0  0.33308  0.55586  0.03202  1.0000
  C   C748      1.0  0.35248  0.96844  0.31020  1.0000
  H   H1285     1.0  0.39529  0.55520  0.02681  1.0000
  C   C749      1.0  0.41780  0.98552  0.02853  1.0000
  C   C750      1.0  0.39261  0.83372  0.23809  1.0000
  C   C751      1.0  0.37505  0.82612  0.24202  1.0000
  C   C752      1.0  0.36247  0.83262  0.25682  1.0000
  C   C753      1.0  0.36716  0.84686  0.26786  1.0000
  C   C754      1.0  0.38457  0.85470  0.26370  1.0000
  C   C755      1.0  0.39720  0.84810  0.24898  1.0000
  H   H1286     1.0  0.37132  0.81498  0.23390  1.0000
  H   H1287     1.0  0.34911  0.82637  0.25989  1.0000
  H   H1288     1.0  0.38845  0.86561  0.27202  1.0000
  H   H1289     1.0  0.41075  0.85406  0.24614  1.0000
  H   H1290     1.0  0.35044  0.56706  0.07737  1.0000
  C   C756      1.0  0.49094  0.78445  0.16779  1.0000
  H   H1291     1.0  0.36115  0.99525  0.07509  1.0000
  H   H1292     1.0  0.44491  0.87851  0.32296  1.0000
  H   H1293     1.0  0.47657  0.79085  0.19445  1.0000
  C   C757      1.0  0.36047  0.71362  0.12962  1.0000
  C   C758      1.0  0.35135  0.71363  0.14777  1.0000
  C   C759      1.0  0.35781  0.72445  0.16138  1.0000
  C   C760      1.0  0.37333  0.73559  0.15705  1.0000
  C   C761      1.0  0.38254  0.73547  0.13893  1.0000
  C   C762      1.0  0.37613  0.72458  0.12534  1.0000
  H   H1294     1.0  0.33923  0.70541  0.15132  1.0000
  H   H1295     1.0  0.35062  0.72433  0.17536  1.0000
  H   H1296     1.0  0.39471  0.74365  0.13547  1.0000
  H   H1297     1.0  0.38347  0.72451  0.11145  1.0000
  C   C763      1.0  0.42653  0.93285  0.32902  1.0000
  C   C764      1.0  0.30680  0.65682  0.02988  1.0000
  C   C765      1.0  0.32046  0.64148  0.03087  1.0000
  H   H1298     1.0  0.43888  0.90065  0.31026  1.0000
  H   H1299     1.0  0.32682  0.63709  0.04410  1.0000
  C   C766      1.0  0.40348  0.95455  0.01332  1.0000
  H   H1300     1.0  0.31492  0.82463  0.27427  1.0000
  H   H1301     1.0  0.27098  0.60922  0.13427  1.0000
  C   C767      1.0  0.42440  0.84874  0.07435  1.0000
  C   C768      1.0  0.40548  0.85568  0.07720  1.0000
  C   C769      1.0  0.39524  0.85096  0.09453  1.0000
  C   C770      1.0  0.40379  0.83915  0.10896  1.0000
  C   C771      1.0  0.42258  0.83199  0.10600  1.0000
  C   C772      1.0  0.43284  0.83685  0.08880  1.0000
  H   H1302     1.0  0.39888  0.86488  0.06617  1.0000
  H   H1303     1.0  0.38071  0.85655  0.09674  1.0000
  H   H1304     1.0  0.42928  0.82285  0.11701  1.0000
  H   H1305     1.0  0.44745  0.83143  0.08667  1.0000
  H   H1306     1.0  0.35049  0.88291  0.20601  1.0000
  S   S241      1.0  0.39833  0.87771  0.01684  1.0000
  C   C773      1.0  0.38071  0.88356  0.14458  1.0000
  H   H1307     1.0  0.34374  0.53955  0.09179  1.0000
  H   H1308     1.0  0.26755  0.62944  0.08104  1.0000
  H   H1309     1.0  0.36685  0.85144  0.16645  1.0000
  H   H1310     1.0  0.49551  0.84174  0.10628  1.0000
  C   C774      1.0  0.37438  0.55063  0.11711  1.0000
  C   C775      1.0  0.35836  0.56121  0.12448  1.0000
  C   C776      1.0  0.35449  0.58040  0.11800  1.0000
  C   C777      1.0  0.36682  0.58915  0.10430  1.0000
  C   C778      1.0  0.38292  0.57863  0.09708  1.0000
  C   C779      1.0  0.38665  0.55943  0.10339  1.0000
  H   H1311     1.0  0.34888  0.55449  0.13519  1.0000
  H   H1312     1.0  0.34208  0.58840  0.12369  1.0000
  H   H1313     1.0  0.39257  0.58535  0.08655  1.0000
  H   H1314     1.0  0.39917  0.55150  0.09787  1.0000
  H   H1315     1.0  0.46712  0.99466  0.01173  1.0000
  H   H1316     1.0  0.38883  0.89920  0.16705  1.0000
  N   N55       1.0  0.36338  0.78453  0.09958  1.0000
  C   C780      1.0  0.35103  0.77674  0.08617  1.0000
  C   C781      1.0  0.36145  0.80588  0.09609  1.0000
  C   C782      1.0  0.35560  0.77885  0.11947  1.0000
  C   C783      1.0  0.38347  0.77619  0.09607  1.0000
  C   C784      1.0  0.34954  0.75503  0.08846  1.0000
  C   C785      1.0  0.36695  0.81394  0.07566  1.0000
  C   C786      1.0  0.36546  0.78581  0.13577  1.0000
  C   C787      1.0  0.39948  0.78765  0.10161  1.0000
  H   H1317     1.0  0.35628  0.78009  0.07118  1.0000
  H   H1318     1.0  0.36994  0.81282  0.10551  1.0000
  H   H1319     1.0  0.35633  0.76318  0.12236  1.0000
  H   H1320     1.0  0.38532  0.76170  0.10343  1.0000
  H   H1321     1.0  0.38653  0.77445  0.08067  1.0000
  H   H1322     1.0  0.34086  0.75047  0.10147  1.0000
  H   H1323     1.0  0.36840  0.82942  0.07553  1.0000
  H   H1324     1.0  0.38065  0.80744  0.06995  1.0000
  H   H1325     1.0  0.35578  0.81225  0.06597  1.0000
  H   H1326     1.0  0.36549  0.80144  0.13508  1.0000
  H   H1327     1.0  0.37996  0.77896  0.13658  1.0000
  H   H1328     1.0  0.35773  0.78131  0.14941  1.0000
  H   H1329     1.0  0.41147  0.77759  0.10607  1.0000
  H   H1330     1.0  0.39564  0.79658  0.11341  1.0000
  H   H1331     1.0  0.40541  0.79646  0.08918  1.0000
  H   H1332     1.0  0.37758  0.89667  0.13520  1.0000
  H   H1333     1.0  0.36443  0.89590  0.16755  1.0000
  C   C788      1.0  0.34633  0.56866  0.06248  1.0000
  H   H1334     1.0  0.47426  0.83007  0.12961  1.0000
  H   H1335     1.0  0.45620  0.93077  0.30103  1.0000
  C   C789      1.0  0.32606  0.63189  0.01462  1.0000
  H   H1336     1.0  0.49392  0.81631  0.13799  1.0000
  C   C790      1.0  0.36634  0.99907  0.32643  1.0000
  H   H1337     1.0  0.36160  0.90452  0.19800  1.0000
  C   C791      1.0  0.38156  0.87904  0.19931  1.0000
  C   C792      1.0  0.36341  0.89054  0.20629  1.0000
  H   H1338     1.0  0.35300  0.56801  0.02390  1.0000
  N   N56       1.0  0.39121  0.65189  0.13803  1.0000
  C   C793      1.0  0.38092  0.65146  0.12029  1.0000
  C   C794      1.0  0.37720  0.64876  0.15489  1.0000
  C   C795      1.0  0.40705  0.63646  0.13922  1.0000
  C   C796      1.0  0.39948  0.67080  0.13758  1.0000
  C   C797      1.0  0.39317  0.65250  0.10140  1.0000
  C   C798      1.0  0.36331  0.66592  0.15921  1.0000
  C   C799      1.0  0.40132  0.61618  0.13760  1.0000
  C   C800      1.0  0.40990  0.67420  0.15517  1.0000
  H   H1339     1.0  0.37299  0.63855  0.12092  1.0000
  H   H1340     1.0  0.36990  0.66343  0.11907  1.0000
  H   H1341     1.0  0.38444  0.64407  0.16807  1.0000
  H   H1342     1.0  0.36837  0.63690  0.15299  1.0000
  H   H1343     1.0  0.41868  0.63935  0.12820  1.0000
  H   H1344     1.0  0.41378  0.63614  0.15293  1.0000
  H   H1345     1.0  0.41003  0.67268  0.12532  1.0000
  H   H1346     1.0  0.38861  0.68278  0.13487  1.0000
  H   H1347     1.0  0.38398  0.65110  0.08970  1.0000
  H   H1348     1.0  0.39931  0.66638  0.09831  1.0000
  H   H1349     1.0  0.40439  0.64075  0.10074  1.0000
  H   H1350     1.0  0.35233  0.66136  0.17026  1.0000
  H   H1351     1.0  0.37053  0.67727  0.16484  1.0000
  H   H1352     1.0  0.35591  0.67192  0.14659  1.0000
  H   H1353     1.0  0.39030  0.61196  0.14871  1.0000
  H   H1354     1.0  0.41387  0.60595  0.13949  1.0000
  H   H1355     1.0  0.39637  0.61446  0.12345  1.0000
  H   H1356     1.0  0.42535  0.67053  0.15281  1.0000
  H   H1357     1.0  0.40477  0.66609  0.16832  1.0000
  H   H1358     1.0  0.40754  0.68941  0.15794  1.0000
  H   H1359     1.0  0.35133  0.86789  0.17838  1.0000
  H   H1360     1.0  0.34661  0.81144  0.09966  1.0000
  H   H1361     1.0  0.39925  0.56927  0.04527  1.0000
  S   S242      1.0  0.41195  0.51461  0.07953  1.0000
  H   H1362     1.0  0.34833  0.69164  0.02860  1.0000
  H   H1363     1.0  0.26432  0.64967  0.05364  1.0000
  N   N57       1.0  0.38119  0.87177  0.18007  1.0000
  H   H1364     1.0  0.28571  0.81611  0.29154  1.0000
  H   H1365     1.0  0.40160  0.84842  0.18716  1.0000
  C   C801      1.0  0.25822  0.61414  0.14221  1.0000
  H   H1366     1.0  0.37577  0.83515  0.19868  1.0000
  H   H1367     1.0  0.34777  0.59262  0.04006  1.0000
  H   H1368     1.0  0.27114  0.86622  0.30116  1.0000
  H   H1369     1.0  0.42990  0.86102  0.17023  1.0000
  H   H1370     1.0  0.35759  0.85047  0.20964  1.0000
  H   H1371     1.0  0.36640  0.59081  0.05668  1.0000
  H   H1372     1.0  0.39918  0.85300  0.16271  1.0000
  H   H1373     1.0  0.33060  0.56871  0.06329  1.0000
  H   H1374     1.0  0.26155  0.85305  0.33063  1.0000
  H   H1375     1.0  0.36467  0.89338  0.22127  1.0000
  H   H1376     1.0  0.25718  0.68251  0.05982  1.0000
  H   H1377     1.0  0.32481  0.82686  0.30365  1.0000
  C   C802      1.0  0.28546  0.87028  0.30314  1.0000
  C   C803      1.0  0.39951  0.86016  0.17595  1.0000
  H   H1378     1.0  0.38206  0.53587  0.05034  1.0000
  H   H1379     1.0  0.34225  0.75081  0.07638  1.0000
  C   C804      1.0  0.36509  0.85929  0.17944  1.0000
  H   H1380     1.0  0.29216  0.87592  0.28937  1.0000
  C   C805      1.0  0.36259  0.84415  0.19629  1.0000
  H   H1381     1.0  0.42753  0.96469  0.05041  1.0000
  C   C806      1.0  0.48828  0.83117  0.13524  1.0000
  H   H1382     1.0  0.41508  0.93753  0.03694  1.0000
  H   H1383     1.0  0.50094  0.51537  0.06966  1.0000
  C   C807      1.0  0.37870  0.88840  0.16544  1.0000
  C   C808      1.0  0.47783  0.51420  0.02676  1.0000
  H   H1384     1.0  0.34032  0.78378  0.12132  1.0000
  H   H1385     1.0  0.26322  0.63227  0.10535  1.0000
  C   C809      1.0  0.49015  0.78874  0.18667  1.0000
  H   H1386     1.0  0.41736  0.88300  0.16342  1.0000
  H   H1387     1.0  0.37064  0.87322  0.14170  1.0000
  H   H1388     1.0  0.28344  0.88258  0.31187  1.0000
  H   H1389     1.0  0.42068  0.87564  0.18825  1.0000
  H   H1390     1.0  0.30665  0.97934  0.32011  1.0000
  H   H1391     1.0  0.42773  0.94848  0.32798  1.0000
  H   H1392     1.0  0.33632  0.78356  0.08749  1.0000
  H   H1393     1.0  0.30915  0.84971  0.27570  1.0000
  H   H1394     1.0  0.47520  0.87488  0.00866  1.0000
  C   C810      1.0  0.25485  0.68465  0.07512  1.0000
  H   H1395     1.0  0.48322  0.52802  0.02120  1.0000
  H   H1396     1.0  0.46203  0.95660  0.03182  1.0000
  H   H1397     1.0  0.48597  0.83788  0.14882  1.0000
  H   H1398     1.0  0.39317  0.88858  0.19948  1.0000
  H   H1399     1.0  0.38485  0.86719  0.21028  1.0000
  H   H1400     1.0  0.38038  0.55314  0.06684  1.0000
  H   H1401     1.0  0.29864  0.85746  0.32818  1.0000
  C   C811      1.0  0.41319  0.95165  0.02988  1.0000
  H   H1402     1.0  0.35176  0.83463  0.19326  1.0000
  C   C812      1.0  0.34884  0.55467  0.03178  1.0000
  C   C813      1.0  0.41767  0.87089  0.17441  1.0000
  H   H1403     1.0  0.37735  0.00080  0.09170  1.0000
  H   H1404     1.0  0.47424  0.93438  0.03895  1.0000
  N   N58       1.0  0.29511  0.83431  0.31123  1.0000
  H   H1405     1.0  0.26511  0.69483  0.07804  1.0000
  C   C814      1.0  0.28882  0.83120  0.29200  1.0000
  C   C815      1.0  0.46545  0.94190  0.02788  1.0000
  C   C816      1.0  0.29884  0.85469  0.31301  1.0000
  C   C817      1.0  0.30314  0.83588  0.27510  1.0000
  H   H1406     1.0  0.33178  0.53497  0.06045  1.0000
  H   H1407     1.0  0.35309  0.54307  0.00426  1.0000
  H   H1408     1.0  0.49635  0.85804  0.12307  1.0000
  H   H1409     1.0  0.27331  0.66049  0.08243  1.0000
  H   H1410     1.0  0.27850  0.81224  0.32530  1.0000
  C   C818      1.0  0.38790  0.56361  0.03797  1.0000
  C   C819      1.0  0.35152  0.52956  0.08232  1.0000
  H   H1411     1.0  0.45234  0.93442  0.02850  1.0000
  C   C820      1.0  0.34502  0.69798  0.01421  1.0000
  H   H1412     1.0  0.34293  0.59915  0.06353  1.0000
  H   H1413     1.0  0.31335  0.85743  0.30693  1.0000
  H   H1414     1.0  0.25397  0.83836  0.31321  1.0000
  C   C821      1.0  0.25594  0.63292  0.14699  1.0000
  C   C822      1.0  0.47475  0.98462  0.00211  1.0000
  H   H1415     1.0  0.34663  0.51532  0.08704  1.0000
  H   H1416     1.0  0.29597  0.83650  0.26166  1.0000
  N   N59       1.0  0.35517  0.55241  0.05175  1.0000
  C   C823      1.0  0.35607  0.53857  0.01922  1.0000
  H   H1417     1.0  0.48573  0.97679  0.01055  1.0000
  H   H1418     1.0  0.33672  0.62012  0.01545  1.0000
  C   C824      1.0  0.25589  0.63205  0.09206  1.0000
  C   C825      1.0  0.31325  0.82195  0.31392  1.0000
  C   C826      1.0  0.34741  0.53448  0.06131  1.0000
  C   C827      1.0  0.28054  0.82750  0.32633  1.0000
  C   C828      1.0  0.26088  0.83837  0.32667  1.0000
  C   C829      1.0  0.25886  0.66590  0.08754  1.0000
  H   H1419     1.0  0.35326  0.52189  0.05401  1.0000
  H   H1420     1.0  0.31151  0.80707  0.31094  1.0000
  C   C830      1.0  0.35136  0.58876  0.05488  1.0000
  H   H1421     1.0  0.36686  0.52869  0.08446  1.0000
  C   C831      1.0  0.36154  0.96526  0.32716  1.0000
  H   H1422     1.0  0.49059  0.94650  0.01044  1.0000
  C   C832      1.0  0.50057  0.84300  0.12056  1.0000
  C   C833      1.0  0.40822  0.98845  0.01189  1.0000
  H   H1423     1.0  0.42143  0.88860  0.32569  1.0000
  H   H1424     1.0  0.50072  0.87124  0.03077  1.0000
  H   H1425     1.0  0.42324  0.51601  0.00718  1.0000
  H   H1426     1.0  0.44778  0.97241  0.00553  1.0000
  H   H1427     1.0  0.39610  0.93461  0.32607  1.0000
  H   H1428     1.0  0.43885  0.52879  0.01972  1.0000
  C   C834      1.0  0.29869  0.66236  0.01257  1.0000
  C   C835      1.0  0.42933  0.51709  0.02092  1.0000
  H   H1429     1.0  0.46901  0.90878  0.30996  1.0000
  C   C836      1.0  0.46653  0.92427  0.31111  1.0000
  H   H1430     1.0  0.47997  0.92608  0.00590  1.0000
  C   C837      1.0  0.43640  0.89228  0.32397  1.0000
  Fe  Fe122     1.0  0.39677  0.50619  0.10737  1.0000
  H   H1431     1.0  0.48022  0.93037  0.30654  1.0000
  H   H1432     1.0  0.41733  0.52106  0.03108  1.0000
  H   H1433     1.0  0.46704  0.51775  0.03818  1.0000
  H   H1434     1.0  0.28802  0.67414  0.01171  1.0000
  C   C838      1.0  0.48807  0.88186  0.00490  1.0000
  H   H1435     1.0  0.32997  0.70359  0.01546  1.0000
  H   H1436     1.0  0.26060  0.66943  0.10226  1.0000
  H   H1437     1.0  0.37980  0.57599  0.03117  1.0000
  H   H1438     1.0  0.25435  0.60155  0.09675  1.0000
  H   H1439     1.0  0.33797  0.67163  0.00491  1.0000
  H   H1440     1.0  0.46184  0.94420  0.33241  1.0000
  C   C839      1.0  0.46105  0.92866  0.33171  1.0000
  H   H1441     1.0  0.36221  0.67495  0.00304  1.0000
  C   C840      1.0  0.47667  0.94129  0.00848  1.0000
  C   C841      1.0  0.46962  0.50510  0.01054  1.0000
  H   H1442     1.0  0.38524  0.50258  0.00127  1.0000
  H   H1443     1.0  0.48946  0.50484  0.03305  1.0000
  H   H1444     1.0  0.34863  0.52551  0.02326  1.0000
  H   H1445     1.0  0.25649  0.51317  0.16204  1.0000
  C   C842      1.0  0.40088  0.97304  0.00446  1.0000
  Fe  Fe123     1.0  0.40912  0.90582  0.00471  1.0000
  H   H1446     1.0  0.37152  0.53508  0.01953  1.0000
  H   H1447     1.0  0.35436  0.70969  0.01041  1.0000
  H   H1448     1.0  0.35290  0.99919  0.09880  1.0000
  S   S243      1.0  0.39411  0.93550  0.00361  1.0000
  H   H1449     1.0  0.33611  0.81489  0.33271  1.0000
  C   C843      1.0  0.32122  0.82106  0.33365  1.0000
  H   H1450     1.0  0.36304  0.95108  0.33415  1.0000
  H   H1451     1.0  0.43975  0.94178  0.00129  1.0000
  S   S244      1.0  0.49562  0.87086  0.43255  1.0000
  H   H1452     1.0  0.43124  0.89694  0.35317  1.0000
  S   S245      1.0  0.48166  0.87129  0.63779  1.0000
  S   S246      1.0  0.46532  0.90748  0.42577  1.0000
  H   H1453     1.0  0.45436  0.88519  0.61067  1.0000
  C   C844      1.0  0.50058  0.95169  0.49625  1.0000
  S   S247      1.0  0.45798  0.86419  0.39487  1.0000
  C   C845      1.0  0.48203  0.90606  0.51468  1.0000
  Fe  Fe124     1.0  0.31935  0.89083  0.33707  1.0000
  H   H1454     1.0  0.44919  0.92236  0.62696  1.0000
  S   S248      1.0  0.37658  0.89590  0.37018  1.0000
  H   H1455     1.0  0.45667  0.87438  0.57900  1.0000
  N   N60       1.0  0.41788  0.94464  0.64690  1.0000
  S   S249      1.0  0.34346  0.86842  0.33886  1.0000
  H   H1456     1.0  0.39320  0.96267  0.65581  1.0000
  H   H1457     1.0  0.46186  0.98637  0.36856  1.0000
  C   C846      1.0  0.26494  0.84969  0.64523  1.0000
  C   C847      1.0  0.44686  0.87199  0.65766  1.0000
  S   S250      1.0  0.48616  0.90839  0.59213  1.0000
  C   C848      1.0  0.32324  0.85708  0.41731  1.0000
  C   C849      1.0  0.40787  0.96399  0.64935  1.0000
  H   H1458     1.0  0.48508  0.95416  0.49954  1.0000
  C   C850      1.0  0.27581  0.87258  0.36364  1.0000
  C   C851      1.0  0.25665  0.87724  0.36900  1.0000
  C   C852      1.0  0.38998  0.93704  0.62806  1.0000
  C   C853      1.0  0.27231  0.84067  0.37859  1.0000
  C   C854      1.0  0.28362  0.85421  0.36856  1.0000
  C   C855      1.0  0.49875  0.99737  0.41843  1.0000
  C   C856      1.0  0.31291  0.89534  0.39624  1.0000
  H   H1459     1.0  0.41932  0.88901  0.61345  1.0000
  H   H1460     1.0  0.49291  0.82036  0.60150  1.0000
  H   H1461     1.0  0.33319  0.82826  0.39447  1.0000
  Fe  Fe125     1.0  0.47589  0.88237  0.41004  1.0000
  H   H1462     1.0  0.48603  0.90999  0.54393  1.0000
  C   C857      1.0  0.43504  0.87255  0.38854  1.0000
  C   C858      1.0  0.42617  0.86331  0.37532  1.0000
  C   C859      1.0  0.40822  0.87027  0.36937  1.0000
  C   C860      1.0  0.39898  0.88634  0.37690  1.0000
  C   C861      1.0  0.40759  0.89518  0.39053  1.0000
  C   C862      1.0  0.42561  0.88844  0.39619  1.0000
  H   H1463     1.0  0.43338  0.85092  0.36945  1.0000
  H   H1464     1.0  0.40162  0.86324  0.35900  1.0000
  H   H1465     1.0  0.40040  0.90747  0.39658  1.0000
  H   H1466     1.0  0.43218  0.89548  0.40657  1.0000
  C   C863      1.0  0.45280  0.99287  0.35720  1.0000
  H   H1467     1.0  0.27842  0.82647  0.38227  1.0000
  H   H1468     1.0  0.41671  0.94672  0.61632  1.0000
  C   C864      1.0  0.45684  0.87576  0.64007  1.0000
  H   H1469     1.0  0.48531  0.86610  0.54556  1.0000
  C   C865      1.0  0.47546  0.95322  0.46221  1.0000
  C   C866      1.0  0.36667  0.87115  0.42245  1.0000
  C   C867      1.0  0.44684  0.88227  0.62425  1.0000
  H   H1470     1.0  0.38722  0.93219  0.61417  1.0000
  H   H1471     1.0  0.46378  0.81562  0.58765  1.0000
  H   H1472     1.0  0.30692  0.90391  0.38389  1.0000
  C   C868      1.0  0.41698  0.88085  0.64345  1.0000
  H   H1473     1.0  0.46838  0.92839  0.36969  1.0000
  Fe  Fe126     1.0  0.48884  0.92200  0.40934  1.0000
  H   H1474     1.0  0.46714  0.91076  0.51574  1.0000
  Fe  Fe127     1.0  0.49622  0.93352  0.60438  1.0000
  H   H1475     1.0  0.29827  0.85036  0.36453  1.0000
  H   H1476     1.0  0.45746  0.90611  0.37449  1.0000
  H   H1477     1.0  0.47943  0.83351  0.55054  1.0000
  H   H1478     1.0  0.47312  0.98948  0.40789  1.0000
  C   C869      1.0  0.46139  0.87270  0.56401  1.0000
  H   H1479     1.0  0.45138  0.98207  0.34714  1.0000
  H   H1480     1.0  0.42239  0.99757  0.35525  1.0000
  H   H1481     1.0  0.33928  0.88634  0.42513  1.0000
  H   H1482     1.0  0.37545  0.97790  0.34832  1.0000
  H   H1483     1.0  0.43063  0.98211  0.65381  1.0000
  H   H1484     1.0  0.49087  0.81892  0.56865  1.0000
  H   H1485     1.0  0.40626  0.97215  0.63530  1.0000
  H   H1486     1.0  0.31743  0.87048  0.38138  1.0000
  H   H1487     1.0  0.50128  0.96959  0.51977  1.0000
  C   C870      1.0  0.48715  0.85107  0.59292  1.0000
  C   C871      1.0  0.43899  0.94607  0.64401  1.0000
  H   H1488     1.0  0.43854  0.94502  0.35945  1.0000
  Fe  Fe128     1.0  0.36136  0.89194  0.34409  1.0000
  H   H1489     1.0  0.37799  0.86798  0.41128  1.0000
  H   H1490     1.0  0.37208  0.88176  0.43083  1.0000
  H   H1491     1.0  0.35284  0.89198  0.40378  1.0000
  C   C872      1.0  0.42697  0.87486  0.65945  1.0000
  H   H1492     1.0  0.42594  0.92480  0.36722  1.0000
  C   C873      1.0  0.41733  0.97726  0.66117  1.0000
  C   C874      1.0  0.34094  0.83769  0.38383  1.0000
  H   H1493     1.0  0.45838  0.88677  0.55614  1.0000
  H   H1494     1.0  0.50057  0.93485  0.46488  1.0000
  S   S251      1.0  0.49810  0.89769  0.39196  1.0000
  H   H1495     1.0  0.32914  0.99339  0.33760  1.0000
  H   H1496     1.0  0.45018  0.92569  0.38805  1.0000
  C   C875      1.0  0.32638  0.87902  0.38889  1.0000
  C   C876      1.0  0.45489  0.92177  0.37357  1.0000
  H   H1497     1.0  0.49341  0.86409  0.59640  1.0000
  C   C877      1.0  0.27729  0.88100  0.64053  1.0000
  H   H1498     1.0  0.36452  0.85829  0.43212  1.0000
  H   H1499     1.0  0.42979  0.98851  0.37737  1.0000
  C   C878      1.0  0.49536  0.96719  0.40609  1.0000
  H   H1500     1.0  0.32023  0.90516  0.40393  1.0000
  H   H1501     1.0  0.47053  0.96809  0.45777  1.0000
  S   S252      1.0  0.47932  0.96150  0.60612  1.0000
  H   H1502     1.0  0.25731  0.87082  0.62292  1.0000
  H   H1503     1.0  0.47278  0.92157  0.33994  1.0000
  C   C879      1.0  0.33144  0.84253  0.43260  1.0000
  H   H1504     1.0  0.31514  0.99046  0.35911  1.0000
  H   H1505     1.0  0.46823  0.94840  0.47595  1.0000
  C   C880      1.0  0.43297  0.99946  0.36560  1.0000
  H   H1506     1.0  0.27745  0.89482  0.63274  1.0000
  S   S253      1.0  0.35089  0.91251  0.66316  1.0000
  Fe  Fe129     1.0  0.48698  0.89762  0.44688  1.0000
  C   C881      1.0  0.49721  0.95043  0.46252  1.0000
  S   S254      1.0  0.47648  0.90179  0.47754  1.0000
  H   H1507     1.0  0.33632  0.88553  0.37778  1.0000
  H   H1508     1.0  0.45328  0.83935  0.58207  1.0000
  H   H1509     1.0  0.45557  0.89432  0.34593  1.0000
  H   H1510     1.0  0.35948  0.86058  0.38196  1.0000
  N   N61       1.0  0.44215  0.92267  0.34021  1.0000
  S   S255      1.0  0.33663  0.91379  0.34438  1.0000
  C   C882      1.0  0.43949  0.92923  0.35996  1.0000
  H   H1511     1.0  0.30069  0.88995  0.40516  1.0000
  C   C883      1.0  0.41154  0.93774  0.62907  1.0000
  C   C884      1.0  0.46187  0.82728  0.57625  1.0000
  H   H1512     1.0  0.31276  0.85021  0.40980  1.0000
  H   H1513     1.0  0.31424  0.86766  0.42526  1.0000
  H   H1514     1.0  0.47092  0.94435  0.45151  1.0000
  H   H1515     1.0  0.45313  0.82171  0.56598  1.0000
  C   C885      1.0  0.26575  0.86746  0.63497  1.0000
  H   H1516     1.0  0.34423  0.83404  0.42750  1.0000
  C   C886      1.0  0.27657  0.84543  0.66051  1.0000
  C   C887      1.0  0.48120  0.83194  0.56609  1.0000
  H   H1517     1.0  0.30975  0.96505  0.34164  1.0000
  C   C888      1.0  0.34835  0.87978  0.41364  1.0000
  H   H1518     1.0  0.41771  0.92310  0.62710  1.0000
  H   H1519     1.0  0.25983  0.85916  0.54063  1.0000
  N   N62       1.0  0.49007  0.84892  0.57193  1.0000
  C   C889      1.0  0.25310  0.84532  0.38389  1.0000
  H   H1520     1.0  0.33462  0.84961  0.44519  1.0000
  H   H1521     1.0  0.46613  0.92999  0.64116  1.0000
  H   H1522     1.0  0.44235  0.95626  0.63153  1.0000
  C   C890      1.0  0.42699  0.88445  0.62587  1.0000
  C   C891      1.0  0.49270  0.90563  0.53067  1.0000
  H   H1523     1.0  0.48407  0.98325  0.48106  1.0000
  H   H1524     1.0  0.36071  0.84486  0.40248  1.0000
  H   H1525     1.0  0.45282  0.86272  0.55791  1.0000
  H   H1526     1.0  0.31327  0.81166  0.34418  1.0000
  S   S256      1.0  0.30119  0.89531  0.66374  1.0000
  C   C892      1.0  0.49210  0.97664  0.61767  1.0000
  S   S257      1.0  0.48105  0.95172  0.39713  1.0000
  N   N63       1.0  0.33729  0.86683  0.40360  1.0000
  C   C893      1.0  0.45098  0.92736  0.64101  1.0000
  H   H1527     1.0  0.38213  0.95109  0.62915  1.0000
  H   H1528     1.0  0.32092  0.83198  0.43708  1.0000
  C   C894      1.0  0.35047  0.85290  0.39316  1.0000
  S   S258      1.0  0.39205  0.88367  0.64442  1.0000
  H   H1529     1.0  0.33135  0.84386  0.37294  1.0000
  H   H1530     1.0  0.38411  0.92658  0.63900  1.0000
  C   C895      1.0  0.28866  0.87686  0.65604  1.0000
  H   H1531     1.0  0.32129  0.83526  0.33885  1.0000
  H   H1532     1.0  0.35211  0.82859  0.37648  1.0000
  C   C896      1.0  0.48268  0.86694  0.56110  1.0000
  H   H1533     1.0  0.49039  0.87906  0.56456  1.0000
  H   H1534     1.0  0.47203  0.85336  0.59773  1.0000
  C   C897      1.0  0.49879  0.98137  0.47458  1.0000
  C   C898      1.0  0.49049  0.90057  0.49727  1.0000
  C   C899      1.0  0.48772  0.98520  0.41034  1.0000
  C   C900      1.0  0.31432  0.99470  0.34369  1.0000
  C   C901      1.0  0.49560  0.83437  0.60595  1.0000
  S   S259      1.0  0.28918  0.89023  0.35075  1.0000
  H   H1535     1.0  0.44809  0.91605  0.65243  1.0000
  C   C902      1.0  0.48587  0.99582  0.61804  1.0000
  H   H1536     1.0  0.40201  0.93719  0.34960  1.0000
  C   C903      1.0  0.36856  0.98049  0.33515  1.0000
  C   C904      1.0  0.44175  0.90137  0.34165  1.0000
  H   H1537     1.0  0.40440  0.99505  0.39583  1.0000
  H   H1538     1.0  0.41646  0.91574  0.65999  1.0000
  C   C905      1.0  0.40617  0.92932  0.33695  1.0000
  H   H1539     1.0  0.39679  0.93089  0.66568  1.0000
  Fe  Fe130     1.0  0.49759  0.89205  0.61798  1.0000
  H   H1540     1.0  0.49531  0.99547  0.57405  1.0000
  H   H1541     1.0  0.49795  0.98625  0.45926  1.0000
  C   C906      1.0  0.41245  0.93062  0.66328  1.0000
  H   H1542     1.0  0.28853  0.98039  0.33961  1.0000
  C   C907      1.0  0.28843  0.85882  0.66582  1.0000
  H   H1543     1.0  0.48912  0.83524  0.62060  1.0000
  H   H1544     1.0  0.44483  0.95202  0.65601  1.0000
  H   H1545     1.0  0.40420  0.91407  0.34057  1.0000
  H   H1546     1.0  0.40774  0.99026  0.66285  1.0000
  H   H1547     1.0  0.47253  0.00105  0.61237  1.0000
  C   C908      1.0  0.30395  0.97921  0.33574  1.0000
  H   H1548     1.0  0.28537  0.82836  0.34070  1.0000
  H   H1549     1.0  0.25153  0.83130  0.33795  1.0000
  H   H1550     1.0  0.47551  0.81566  0.92556  1.0000
  C   C909      1.0  0.43526  0.54416  0.93506  1.0000
  S   S260      1.0  0.38645  0.52846  0.94492  1.0000
  H   H1551     1.0  0.43412  0.53140  0.94524  1.0000
  S   S261      1.0  0.39894  0.84319  0.97469  1.0000
  S   S262      1.0  0.47270  0.89447  0.97164  1.0000
  S   S263      1.0  0.41818  0.89521  0.97620  1.0000
  Fe  Fe131     1.0  0.29729  0.64184  0.91165  1.0000
  S   S264      1.0  0.32233  0.64820  0.89118  1.0000
  S   S265      1.0  0.26615  0.63965  0.90597  1.0000
  Fe  Fe132     1.0  0.32189  0.63534  0.94615  1.0000
  S   S266      1.0  0.34842  0.64041  0.92779  1.0000
  S   S267      1.0  0.32623  0.62542  0.97714  1.0000
  Fe  Fe133     1.0  0.33185  0.66552  0.91358  1.0000
  S   S268      1.0  0.34674  0.69315  0.91425  1.0000
  Fe  Fe134     1.0  0.33701  0.62291  0.90730  1.0000
  S   S269      1.0  0.35382  0.59915  0.89266  1.0000
  S   S270      1.0  0.30556  0.66103  0.93306  1.0000
  S   S271      1.0  0.31173  0.61585  0.92653  1.0000
  Fe  Fe135     1.0  0.41251  0.81395  0.82711  1.0000
  S   S272      1.0  0.42301  0.78361  0.83566  1.0000
  S   S273      1.0  0.41525  0.82608  0.79600  1.0000
  Fe  Fe136     1.0  0.40181  0.82140  0.86839  1.0000
  S   S274      1.0  0.41053  0.79177  0.87983  1.0000
  S   S275      1.0  0.39118  0.84540  0.88613  1.0000
  Fe  Fe137     1.0  0.43633  0.79526  0.85958  1.0000
  S   S276      1.0  0.46413  0.78554  0.87285  1.0000
  Fe  Fe138     1.0  0.39651  0.78246  0.85524  1.0000
  S   S277      1.0  0.37635  0.75899  0.85404  1.0000
  S   S278      1.0  0.42814  0.82545  0.84951  1.0000
  S   S279      1.0  0.38543  0.81222  0.84528  1.0000
  H   H1552     1.0  0.48156  0.99307  0.98992  1.0000
  S   S280      1.0  0.37899  0.89977  0.69730  1.0000
  H   H1553     1.0  0.37174  0.76057  0.81038  1.0000
  H   H1554     1.0  0.38292  0.98858  0.68768  1.0000
  S   S281      1.0  0.33286  0.90726  0.70622  1.0000
  C   C910      1.0  0.46558  0.81738  0.91402  1.0000
  Fe  Fe139     1.0  0.35637  0.92315  0.69079  1.0000
  S   S282      1.0  0.36734  0.95263  0.69064  1.0000
  Fe  Fe140     1.0  0.35535  0.88305  0.71118  1.0000
  S   S283      1.0  0.35420  0.86877  0.74163  1.0000
  H   H1555     1.0  0.35546  0.78905  0.81368  1.0000
  S   S284      1.0  0.35015  0.86952  0.68446  1.0000
  H   H1556     1.0  0.44161  0.52663  0.91213  1.0000
  C   C911      1.0  0.35764  0.97499  0.69771  1.0000
  C   C912      1.0  0.47894  0.84778  0.90455  1.0000
  C   C913      1.0  0.28532  0.55717  0.88292  1.0000
  C   C914      1.0  0.33961  0.97764  0.70691  1.0000
  C   C915      1.0  0.36392  0.65585  0.97384  1.0000
  H   H1557     1.0  0.33073  0.96588  0.70940  1.0000
  C   C916      1.0  0.39832  0.83912  0.78153  1.0000
  C   C917      1.0  0.37947  0.84305  0.78809  1.0000
  C   C918      1.0  0.36627  0.85220  0.77568  1.0000
  C   C919      1.0  0.37172  0.85775  0.75663  1.0000
  C   C920      1.0  0.39065  0.85418  0.75017  1.0000
  C   C921      1.0  0.40382  0.84491  0.76255  1.0000
  H   H1558     1.0  0.37499  0.83880  0.80264  1.0000
  H   H1559     1.0  0.35168  0.85492  0.78086  1.0000
  H   H1560     1.0  0.39508  0.85825  0.73556  1.0000
  H   H1561     1.0  0.41835  0.84194  0.75728  1.0000
  C   C922      1.0  0.48663  0.79419  0.86610  1.0000
  H   H1562     1.0  0.34814  0.78556  0.79041  1.0000
  C   C923      1.0  0.35539  0.71082  0.89697  1.0000
  C   C924      1.0  0.35037  0.71255  0.87817  1.0000
  C   C925      1.0  0.35701  0.72730  0.86527  1.0000
  C   C926      1.0  0.36896  0.74034  0.87085  1.0000
  C   C927      1.0  0.37418  0.73847  0.88958  1.0000
  C   C928      1.0  0.36727  0.72394  0.90257  1.0000
  H   H1563     1.0  0.34120  0.70267  0.87362  1.0000
  H   H1564     1.0  0.35284  0.72856  0.85084  1.0000
  H   H1565     1.0  0.38358  0.74816  0.89403  1.0000
  H   H1566     1.0  0.37134  0.72271  0.91703  1.0000
  H   H1567     1.0  0.39383  0.73565  0.81951  1.0000
  H   H1568     1.0  0.38774  0.68998  0.96227  1.0000
  C   C929      1.0  0.37821  0.76563  0.77249  1.0000
  H   H1569     1.0  0.27864  0.63459  0.86617  1.0000
  C   C930      1.0  0.41210  0.79021  0.76232  1.0000
  C   C931      1.0  0.27375  0.58040  0.91736  1.0000
  N   N64       1.0  0.29369  0.57548  0.88565  1.0000
  H   H1570     1.0  0.50056  0.77582  0.88756  1.0000
  H   H1571     1.0  0.29803  0.65717  0.98303  1.0000
  C   C932      1.0  0.25582  0.62197  0.85451  1.0000
  C   C933      1.0  0.39874  0.84425  0.94980  1.0000
  C   C934      1.0  0.40081  0.82731  0.94084  1.0000
  C   C935      1.0  0.39967  0.82757  0.92113  1.0000
  C   C936      1.0  0.39543  0.84471  0.91039  1.0000
  C   C937      1.0  0.39354  0.86167  0.91931  1.0000
  C   C938      1.0  0.39553  0.86149  0.93890  1.0000
  H   H1572     1.0  0.40339  0.81394  0.94920  1.0000
  H   H1573     1.0  0.40169  0.81448  0.91439  1.0000
  H   H1574     1.0  0.39029  0.87499  0.91111  1.0000
  H   H1575     1.0  0.39377  0.87461  0.94570  1.0000
  H   H1576     1.0  0.46971  0.85288  0.94339  1.0000
  C   C939      1.0  0.41965  0.93327  0.68273  1.0000
  H   H1577     1.0  0.43587  0.83367  0.89372  1.0000
  C   C940      1.0  0.49053  0.89246  0.98746  1.0000
  C   C941      1.0  0.40085  0.90785  0.74016  1.0000
  C   C942      1.0  0.48020  0.95112  0.97406  1.0000
  H   H1578     1.0  0.32771  0.83962  0.90962  1.0000
  C   C943      1.0  0.36171  0.57906  0.90733  1.0000
  C   C944      1.0  0.36849  0.56226  0.89923  1.0000
  C   C945      1.0  0.37552  0.54633  0.91065  1.0000
  C   C946      1.0  0.37605  0.54726  0.93020  1.0000
  C   C947      1.0  0.36893  0.56393  0.93828  1.0000
  C   C948      1.0  0.36169  0.57974  0.92692  1.0000
  H   H1579     1.0  0.36837  0.56160  0.88409  1.0000
  H   H1580     1.0  0.38073  0.53344  0.90435  1.0000
  H   H1581     1.0  0.36921  0.56472  0.95340  1.0000
  H   H1582     1.0  0.35640  0.59257  0.93332  1.0000
  H   H1583     1.0  0.41935  0.87190  0.67302  1.0000
  N   N65       1.0  0.34656  0.68887  0.97960  1.0000
  C   C949      1.0  0.32678  0.69810  0.97766  1.0000
  H   H1584     1.0  0.43253  0.96350  0.97260  1.0000
  H   H1585     1.0  0.41716  0.53321  0.91644  1.0000
  C   C950      1.0  0.36031  0.70335  0.97230  1.0000
  C   C951      1.0  0.32105  0.70380  0.95727  1.0000
  H   H1586     1.0  0.45422  0.92620  0.98742  1.0000
  H   H1587     1.0  0.40156  0.58021  0.88208  1.0000
  C   C952      1.0  0.26471  0.62950  0.86900  1.0000
  H   H1588     1.0  0.32462  0.71132  0.98507  1.0000
  Fe  Fe141     1.0  0.41028  0.86670  0.98917  1.0000
  C   C953      1.0  0.33325  0.99549  0.71330  1.0000
  H   H1589     1.0  0.44748  0.94768  0.95797  1.0000
  C   C954      1.0  0.48913  0.80838  0.85134  1.0000
  C   C955      1.0  0.30436  0.65281  0.99629  1.0000
  H   H1590     1.0  0.35916  0.70699  0.95682  1.0000
  C   C956      1.0  0.25540  0.63079  0.88695  1.0000
  H   H1591     1.0  0.30606  0.70968  0.95779  1.0000
  H   H1592     1.0  0.32959  0.71495  0.94986  1.0000
  H   H1593     1.0  0.32188  0.69148  0.94871  1.0000
  H   H1594     1.0  0.37809  0.66080  0.97481  1.0000
  H   H1595     1.0  0.44973  0.54870  0.93561  1.0000
  H   H1596     1.0  0.28318  0.54829  0.89645  1.0000
  H   H1597     1.0  0.37741  0.80477  0.77777  1.0000
  H   H1598     1.0  0.42460  0.55506  0.94037  1.0000
  H   H1599     1.0  0.25988  0.58788  0.92146  1.0000
  C   C957      1.0  0.36894  0.99046  0.69462  1.0000
  H   H1600     1.0  0.42345  0.59187  0.88005  1.0000
  H   H1601     1.0  0.31611  0.68857  0.98451  1.0000
  N   N66       1.0  0.37270  0.93035  0.75205  1.0000
  C   C958      1.0  0.38937  0.92731  0.73787  1.0000
  C   C959      1.0  0.36200  0.94878  0.74560  1.0000
  C   C960      1.0  0.36034  0.91405  0.75186  1.0000
  C   C961      1.0  0.38029  0.93072  0.77127  1.0000
  H   H1602     1.0  0.40476  0.80457  0.76184  1.0000
  C   C962      1.0  0.37314  0.96665  0.74432  1.0000
  C   C963      1.0  0.33924  0.91747  0.75841  1.0000
  C   C964      1.0  0.36594  0.93555  0.78781  1.0000
  H   H1603     1.0  0.38465  0.92910  0.72315  1.0000
  H   H1604     1.0  0.39165  0.77131  0.81692  1.0000
  H   H1605     1.0  0.34902  0.95183  0.75477  1.0000
  H   H1606     1.0  0.35673  0.94772  0.73140  1.0000
  H   H1607     1.0  0.36029  0.90959  0.73722  1.0000
  H   H1608     1.0  0.36609  0.90132  0.76060  1.0000
  H   H1609     1.0  0.38722  0.91658  0.77587  1.0000
  H   H1610     1.0  0.33548  0.66505  0.96810  1.0000
  C   C965      1.0  0.31440  0.55509  0.91006  1.0000
  H   H1611     1.0  0.36596  0.75820  0.77941  1.0000
  H   H1612     1.0  0.41455  0.78471  0.79240  1.0000
  H   H1613     1.0  0.47269  0.57062  0.87406  1.0000
  N   N67       1.0  0.46078  0.83807  0.90815  1.0000
  H   H1614     1.0  0.43640  0.86873  0.89054  1.0000
  H   H1615     1.0  0.33260  0.90375  0.75931  1.0000
  H   H1616     1.0  0.33157  0.92716  0.74788  1.0000
  H   H1617     1.0  0.33696  0.92293  0.77252  1.0000
  H   H1618     1.0  0.35949  0.92260  0.79443  1.0000
  H   H1619     1.0  0.35469  0.94657  0.78388  1.0000
  H   H1620     1.0  0.28350  0.59145  0.86032  1.0000
  N   N68       1.0  0.34502  0.80429  0.89801  1.0000
  C   C966      1.0  0.34299  0.82354  0.88701  1.0000
  C   C967      1.0  0.34916  0.78974  0.88375  1.0000
  C   C968      1.0  0.36182  0.80423  0.90978  1.0000
  C   C969      1.0  0.32710  0.80131  0.91038  1.0000
  C   C970      1.0  0.33979  0.84084  0.89890  1.0000
  C   C971      1.0  0.33425  0.78953  0.86906  1.0000
  C   C972      1.0  0.36728  0.78573  0.92184  1.0000
  C   C973      1.0  0.32270  0.78053  0.91648  1.0000
  H   H1621     1.0  0.35571  0.82583  0.87713  1.0000
  H   H1622     1.0  0.33078  0.82459  0.87794  1.0000
  H   H1623     1.0  0.35104  0.77512  0.89053  1.0000
  H   H1624     1.0  0.36298  0.79190  0.87573  1.0000
  H   H1625     1.0  0.37451  0.80787  0.90044  1.0000
  H   H1626     1.0  0.35957  0.81526  0.92003  1.0000
  H   H1627     1.0  0.32710  0.80883  0.92348  1.0000
  H   H1628     1.0  0.31463  0.80780  0.90283  1.0000
  H   H1629     1.0  0.35270  0.84346  0.90583  1.0000
  H   H1630     1.0  0.33657  0.85377  0.88928  1.0000
  H   H1631     1.0  0.33585  0.80124  0.85771  1.0000
  H   H1632     1.0  0.33655  0.77608  0.86205  1.0000
  H   H1633     1.0  0.31959  0.79034  0.87555  1.0000
  H   H1634     1.0  0.38052  0.78750  0.92866  1.0000
  H   H1635     1.0  0.37033  0.77342  0.91332  1.0000
  H   H1636     1.0  0.35641  0.78280  0.93352  1.0000
  H   H1637     1.0  0.31533  0.77991  0.93085  1.0000
  H   H1638     1.0  0.33511  0.77011  0.91731  1.0000
  H   H1639     1.0  0.31254  0.77572  0.90712  1.0000
  H   H1640     1.0  0.39199  0.94028  0.77081  1.0000
  H   H1641     1.0  0.42748  0.79229  0.76078  1.0000
  H   H1642     1.0  0.43784  0.85892  0.86835  1.0000
  H   H1643     1.0  0.37931  0.96854  0.75782  1.0000
  H   H1644     1.0  0.31660  0.58449  0.90035  1.0000
  H   H1645     1.0  0.35255  0.67648  0.95270  1.0000
  C   C974      1.0  0.31254  0.57157  0.89439  1.0000
  H   H1646     1.0  0.46361  0.51649  0.00036  1.0000
  H   H1647     1.0  0.45454  0.86683  0.66994  1.0000
  H   H1648     1.0  0.44952  0.57265  0.86673  1.0000
  H   H1649     1.0  0.39330  0.97541  0.99169  1.0000
  H   H1650     1.0  0.30344  0.55616  0.92183  1.0000
  H   H1651     1.0  0.43872  0.80547  0.90924  1.0000
  H   H1652     1.0  0.28400  0.58299  0.92773  1.0000
  H   H1653     1.0  0.42007  0.97079  0.67555  1.0000
  Fe  Fe142     1.0  0.44592  0.88750  0.98876  1.0000
  C   C975      1.0  0.43886  0.94881  0.97154  1.0000
  C   C976      1.0  0.50112  0.95474  0.97561  1.0000
  C   C977      1.0  0.45010  0.94145  0.98886  1.0000
  H   H1654     1.0  0.43048  0.52686  0.86111  1.0000
  C   C978      1.0  0.34901  0.67197  0.96790  1.0000
  H   H1655     1.0  0.32479  0.59773  0.86607  1.0000
  H   H1656     1.0  0.41050  0.54291  0.88549  1.0000
  H   H1657     1.0  0.47322  0.81021  0.90210  1.0000
  H   H1658     1.0  0.32827  0.55526  0.91628  1.0000
  C   C979      1.0  0.29710  0.58577  0.86623  1.0000
  H   H1659     1.0  0.31439  0.54114  0.90415  1.0000
  C   C980      1.0  0.45768  0.57367  0.87918  1.0000
  H   H1660     1.0  0.38902  0.71080  0.97471  1.0000
  H   H1661     1.0  0.25489  0.56688  0.88261  1.0000
  H   H1662     1.0  0.39972  0.93815  0.73839  1.0000
  H   H1663     1.0  0.41332  0.74549  0.80610  1.0000
  H   H1664     1.0  0.37284  0.77006  0.74252  1.0000
  C   C981      1.0  0.39789  0.74405  0.80603  1.0000
  H   H1665     1.0  0.38833  0.75433  0.76687  1.0000
  H   H1666     1.0  0.38475  0.80156  0.80095  1.0000
  H   H1667     1.0  0.47719  0.81422  0.84352  1.0000
  H   H1668     1.0  0.46253  0.54629  0.89496  1.0000
  H   H1669     1.0  0.48051  0.93690  0.96845  1.0000
  H   H1670     1.0  0.40782  0.90563  0.75372  1.0000
  H   H1671     1.0  0.26132  0.54488  0.87274  1.0000
  C   C982      1.0  0.38150  0.69773  0.97443  1.0000
  H   H1672     1.0  0.44086  0.81040  0.93353  1.0000
  H   H1673     1.0  0.45402  0.79057  0.92389  1.0000
  C   C983      1.0  0.43718  0.53074  0.87371  1.0000
  H   H1674     1.0  0.34964  0.80896  0.79740  1.0000
  H   H1675     1.0  0.30851  0.61084  0.85101  1.0000
  C   C984      1.0  0.38655  0.76357  0.80560  1.0000
  C   C985      1.0  0.28032  0.58820  0.89722  1.0000
  H   H1676     1.0  0.30388  0.57585  0.85598  1.0000
  C   C986      1.0  0.49224  0.84133  0.88776  1.0000
  H   H1677     1.0  0.38427  0.96665  0.73250  1.0000
  H   H1678     1.0  0.47604  0.86345  0.90234  1.0000
  N   N69       1.0  0.43242  0.55464  0.89934  1.0000
  C   C987      1.0  0.43138  0.53889  0.91514  1.0000
  C   C988      1.0  0.42512  0.54741  0.88214  1.0000
  C   C989      1.0  0.41990  0.57154  0.90558  1.0000
  H   H1679     1.0  0.32401  0.56810  0.88337  1.0000
  H   H1680     1.0  0.43399  0.93828  0.68200  1.0000
  H   H1681     1.0  0.40465  0.59837  0.89686  1.0000
  C   C990      1.0  0.41223  0.58617  0.89002  1.0000
  C   C991      1.0  0.45277  0.55933  0.89612  1.0000
  H   H1682     1.0  0.43794  0.51786  0.88372  1.0000
  H   H1683     1.0  0.49634  0.85377  0.96786  1.0000
  H   H1684     1.0  0.42367  0.55861  0.87030  1.0000
  C   C992      1.0  0.44570  0.85977  0.88115  1.0000
  H   H1685     1.0  0.27622  0.83172  0.66852  1.0000
  H   H1686     1.0  0.42729  0.57950  0.91525  1.0000
  H   H1687     1.0  0.37341  0.94167  0.79874  1.0000
  C   C993      1.0  0.31816  0.63759  0.99724  1.0000
  H   H1688     1.0  0.45740  0.56541  0.90873  1.0000
  H   H1689     1.0  0.31946  0.99734  0.72071  1.0000
  H   H1690     1.0  0.36535  0.64531  0.96312  1.0000
  H   H1691     1.0  0.45502  0.97973  0.98222  1.0000
  C   C994      1.0  0.30966  0.60266  0.86504  1.0000
  C   C995      1.0  0.44864  0.80555  0.92053  1.0000
  H   H1692     1.0  0.38454  0.68933  0.98786  1.0000
  C   C996      1.0  0.46041  0.97200  0.99532  1.0000
  H   H1693     1.0  0.45587  0.58842  0.88343  1.0000
  C   C997      1.0  0.34825  0.68241  0.00031  1.0000
  H   H1694     1.0  0.40707  0.56681  0.91406  1.0000
  C   C998      1.0  0.26608  0.55923  0.87385  1.0000
  C   C999      1.0  0.37043  0.77810  0.75529  1.0000
  H   H1695     1.0  0.39213  0.89584  0.73884  1.0000
  H   H1696     1.0  0.39490  0.73579  0.79426  1.0000
  C   C1000     1.0  0.35641  0.79425  0.79842  1.0000
  Fe  Fe143     1.0  0.37220  0.88838  0.67038  1.0000
  C   C1001     1.0  0.44867  0.84759  0.92344  1.0000
  H   H1697     1.0  0.35483  0.78091  0.75733  1.0000
  H   H1698     1.0  0.37693  0.79167  0.75162  1.0000
  N   N70       1.0  0.38728  0.77564  0.78693  1.0000
  C   C1002     1.0  0.45648  0.84567  0.94329  1.0000
  H   H1699     1.0  0.35665  0.71718  0.97841  1.0000
  C   C1003     1.0  0.37722  0.79465  0.79057  1.0000
  H   H1700     1.0  0.40893  0.78280  0.74998  1.0000
  H   H1701     1.0  0.43433  0.84234  0.92499  1.0000
  H   H1702     1.0  0.41228  0.90726  0.72863  1.0000
  N   N71       1.0  0.46720  0.95184  0.99185  1.0000
  H   H1703     1.0  0.45169  0.53451  0.86888  1.0000
  H   H1704     1.0  0.44629  0.86309  0.91954  1.0000
  C   C1004     1.0  0.40783  0.77824  0.78110  1.0000
  H   H1705     1.0  0.42684  0.93982  0.97111  1.0000
  H   H1706     1.0  0.30547  0.61264  0.87596  1.0000
  H   H1707     1.0  0.28676  0.60157  0.89905  1.0000
  H   H1708     1.0  0.29538  0.54832  0.87395  1.0000
  H   H1709     1.0  0.41593  0.76437  0.77937  1.0000
  H   H1710     1.0  0.45864  0.83072  0.94919  1.0000
  H   H1711     1.0  0.44592  0.85279  0.95321  1.0000
  H   H1712     1.0  0.36330  0.97936  0.74113  1.0000
  H   H1713     1.0  0.45726  0.83068  0.87965  1.0000
  C   C1005     1.0  0.44991  0.83953  0.89056  1.0000
  H   H1714     1.0  0.45873  0.86685  0.87633  1.0000
  H   H1715     1.0  0.49761  0.82625  0.89012  1.0000
  H   H1716     1.0  0.47480  0.96149  0.96261  1.0000
  H   H1717     1.0  0.26315  0.62118  0.84067  1.0000
  H   H1718     1.0  0.27105  0.56524  0.91853  1.0000
  H   H1719     1.0  0.40960  0.94298  0.69067  1.0000
  H   H1720     1.0  0.29451  0.99784  0.67254  1.0000
  H   H1721     1.0  0.26748  0.59320  0.88963  1.0000
  H   H1722     1.0  0.48745  0.84541  0.91720  1.0000
  H   H1723     1.0  0.26698  0.56629  0.85925  1.0000
  H   H1724     1.0  0.29696  0.85537  0.67783  1.0000
  H   H1725     1.0  0.35930  0.64803  0.98744  1.0000
  H   H1726     1.0  0.42084  0.91926  0.69109  1.0000
  H   H1727     1.0  0.48553  0.84365  0.87406  1.0000
  Fe  Fe144     1.0  0.32907  0.89451  0.67870  1.0000
  S   S285      1.0  0.43900  0.85825  0.99963  1.0000
  Fe  Fe145     1.0  0.61257  0.48416  0.09449  1.0000
  H   H1728     1.0  0.55050  0.14980  0.14332  1.0000
  S   S286      1.0  0.63796  0.46376  0.08769  1.0000
  C   C1006     1.0  0.68882  0.15361  0.28532  1.0000
  C   C1007     1.0  0.52136  0.48572  0.10416  1.0000
  S   S287      1.0  0.58690  0.48651  0.07752  1.0000
  Fe  Fe146     1.0  0.60559  0.06701  0.01742  1.0000
  H   H1729     1.0  0.52509  0.45235  0.04820  1.0000
  Fe  Fe147     1.0  0.58689  0.10197  0.03562  1.0000
  H   H1730     1.0  0.56282  0.44719  0.03911  1.0000
  S   S288      1.0  0.57526  0.11808  0.06082  1.0000
  H   H1731     1.0  0.60658  0.14863  0.01576  1.0000
  H   H1732     1.0  0.73804  0.37239  0.15364  1.0000
  S   S289      1.0  0.57580  0.07490  0.02834  1.0000
  S   S290      1.0  0.61713  0.09317  0.02684  1.0000
  Fe  Fe148     1.0  0.61677  0.16433  0.14276  1.0000
  S   S291      1.0  0.59402  0.18771  0.13752  1.0000
  S   S292      1.0  0.62779  0.14383  0.12089  1.0000
  Fe  Fe149     1.0  0.62045  0.17315  0.18400  1.0000
  S   S293      1.0  0.59808  0.19750  0.18094  1.0000
  S   S294      1.0  0.63211  0.16859  0.21364  1.0000
  Fe  Fe150     1.0  0.58156  0.17790  0.16656  1.0000
  S   S295      1.0  0.55205  0.16994  0.17843  1.0000
  Fe  Fe151     1.0  0.61274  0.20536  0.15233  1.0000
  S   S296      1.0  0.61656  0.23642  0.14100  1.0000
  S   S297      1.0  0.60338  0.15328  0.17087  1.0000
  S   S298      1.0  0.63614  0.18225  0.15613  1.0000
  C   C1008     1.0  0.64812  0.14420  0.02005  1.0000
  S   S299      1.0  0.64554  0.06659  0.32016  1.0000
  H   H1733     1.0  0.63365  0.44653  0.03326  1.0000
  S   S300      1.0  0.68923  0.07425  0.30481  1.0000
  H   H1734     1.0  0.72758  0.14929  0.26143  1.0000
  Fe  Fe152     1.0  0.66013  0.08897  0.30101  1.0000
  S   S301      1.0  0.65008  0.09523  0.27088  1.0000
  C   C1009     1.0  0.51966  0.49994  0.08926  1.0000
  H   H1735     1.0  0.58130  0.12041  0.12808  1.0000
  H   H1736     1.0  0.51207  0.04666  0.03975  1.0000
  Fe  Fe153     1.0  0.69016  0.31905  0.12206  1.0000
  S   S302      1.0  0.71395  0.32376  0.09971  1.0000
  S   S303      1.0  0.68724  0.28819  0.13427  1.0000
  Fe  Fe154     1.0  0.67822  0.36188  0.11987  1.0000
  S   S304      1.0  0.70102  0.36933  0.09745  1.0000
  S   S305      1.0  0.65436  0.38216  0.13066  1.0000
  Fe  Fe155     1.0  0.69321  0.34378  0.08391  1.0000
  S   S306      1.0  0.68176  0.34421  0.05467  1.0000
  Fe  Fe156     1.0  0.72004  0.34885  0.11534  1.0000
  H   H1737     1.0  0.52673  0.48010  0.01874  1.0000
  S   S307      1.0  0.66925  0.33760  0.10548  1.0000
  S   S308      1.0  0.69747  0.34287  0.13863  1.0000
  C   C1010     1.0  0.71289  0.33626  0.02967  1.0000
  C   C1011     1.0  0.69346  0.34120  0.03208  1.0000
  C   C1012     1.0  0.68262  0.34323  0.01613  1.0000
  H   H1738     1.0  0.72139  0.33458  0.04181  1.0000
  H   H1739     1.0  0.72948  0.13008  0.24677  1.0000
  C   C1013     1.0  0.58337  0.45797  0.01873  1.0000
  C   C1014     1.0  0.54345  0.02810  0.05071  1.0000
  C   C1015     1.0  0.63534  0.30507  0.08562  1.0000
  Fe  Fe157     1.0  0.69049  0.09227  0.32934  1.0000
  C   C1016     1.0  0.65413  0.39149  0.03506  1.0000
  H   H1740     1.0  0.66528  0.01813  0.29569  1.0000
  H   H1741     1.0  0.66643  0.14260  0.05489  1.0000
  C   C1017     1.0  0.63640  0.25056  0.13972  1.0000
  C   C1018     1.0  0.63371  0.27019  0.13450  1.0000
  C   C1019     1.0  0.64899  0.28193  0.13293  1.0000
  C   C1020     1.0  0.66729  0.27416  0.13634  1.0000
  C   C1021     1.0  0.66999  0.25454  0.14157  1.0000
  C   C1022     1.0  0.65469  0.24283  0.14328  1.0000
  H   H1742     1.0  0.61963  0.27640  0.13183  1.0000
  H   H1743     1.0  0.64654  0.29701  0.12928  1.0000
  H   H1744     1.0  0.68403  0.24832  0.14435  1.0000
  H   H1745     1.0  0.65705  0.22779  0.14730  1.0000
  C   C1023     1.0  0.64492  0.11589  0.25535  1.0000
  C   C1024     1.0  0.64155  0.11372  0.23642  1.0000
  C   C1025     1.0  0.63768  0.12961  0.22344  1.0000
  C   C1026     1.0  0.63720  0.14796  0.22924  1.0000
  C   C1027     1.0  0.64053  0.15014  0.24820  1.0000
  C   C1028     1.0  0.64417  0.13422  0.26123  1.0000
  H   H1746     1.0  0.64205  0.09961  0.23170  1.0000
  H   H1747     1.0  0.63520  0.12767  0.20892  1.0000
  H   H1748     1.0  0.64008  0.16425  0.25288  1.0000
  H   H1749     1.0  0.64632  0.13611  0.27583  1.0000
  H   H1750     1.0  0.65929  0.39020  0.00462  1.0000
  C   C1029     1.0  0.52975  0.17381  0.16831  1.0000
  C   C1030     1.0  0.52744  0.18427  0.15086  1.0000
  H   H1751     1.0  0.64483  0.12947  0.01808  1.0000
  H   H1752     1.0  0.53939  0.19073  0.14331  1.0000
  C   C1031     1.0  0.59033  0.12533  0.07700  1.0000
  C   C1032     1.0  0.60686  0.11442  0.08173  1.0000
  C   C1033     1.0  0.61830  0.12035  0.09508  1.0000
  C   C1034     1.0  0.61326  0.13715  0.10387  1.0000
  C   C1035     1.0  0.59692  0.14825  0.09884  1.0000
  C   C1036     1.0  0.58545  0.14229  0.08554  1.0000
  H   H1753     1.0  0.61065  0.10124  0.07536  1.0000
  H   H1754     1.0  0.63095  0.11171  0.09887  1.0000
  H   H1755     1.0  0.59310  0.16139  0.10524  1.0000
  H   H1756     1.0  0.57286  0.15099  0.08171  1.0000
  S   S309      1.0  0.54333  0.47887  0.11401  1.0000
  H   H1757     1.0  0.53847  0.45713  0.01820  1.0000
  H   H1758     1.0  0.55844  0.48387  0.14947  1.0000
  H   H1759     1.0  0.73037  0.10184  0.26669  1.0000
  C   C1037     1.0  0.54098  0.47755  0.05068  1.0000
  C   C1038     1.0  0.74345  0.11777  0.28527  1.0000
  N   N72       1.0  0.53387  0.02480  0.03312  1.0000
  C   C1039     1.0  0.60760  0.01749  0.01875  1.0000
  H   H1760     1.0  0.65547  0.43286  0.05734  1.0000
  H   H1761     1.0  0.72777  0.33209  0.17115  1.0000
  C   C1040     1.0  0.64259  0.44179  0.10099  1.0000
  C   C1041     1.0  0.66061  0.43221  0.09881  1.0000
  C   C1042     1.0  0.66448  0.41409  0.10813  1.0000
  C   C1043     1.0  0.65028  0.40531  0.11954  1.0000
  C   C1044     1.0  0.63237  0.41507  0.12206  1.0000
  C   C1045     1.0  0.62851  0.43325  0.11281  1.0000
  H   H1762     1.0  0.67164  0.43882  0.08986  1.0000
  H   H1763     1.0  0.67846  0.40693  0.10657  1.0000
  H   H1764     1.0  0.62137  0.40842  0.13102  1.0000
  H   H1765     1.0  0.61458  0.44049  0.11460  1.0000
  H   H1766     1.0  0.51043  0.12948  0.12672  1.0000
  H   H1767     1.0  0.68743  0.10810  0.27846  1.0000
  H   H1768     1.0  0.55892  0.48105  0.17419  1.0000
  H   H1769     1.0  0.70362  0.30528  0.19397  1.0000
  H   H1770     1.0  0.51560  0.15750  0.19145  1.0000
  H   H1771     1.0  0.71593  0.14358  0.29408  1.0000
  H   H1772     1.0  0.64484  0.36724  0.06832  1.0000
  C   C1046     1.0  0.69263  0.40998  0.04799  1.0000
  C   C1047     1.0  0.64228  0.39870  0.06692  1.0000
  C   C1048     1.0  0.71923  0.13875  0.25572  1.0000
  C   C1049     1.0  0.70399  0.13711  0.28856  1.0000
  H   H1773     1.0  0.70822  0.10842  0.23855  1.0000
  C   C1050     1.0  0.53365  0.11895  0.16445  1.0000
  H   H1774     1.0  0.63910  0.39223  0.03148  1.0000
  N   N73       1.0  0.66311  0.28402  0.07096  1.0000
  C   C1051     1.0  0.67771  0.29117  0.08231  1.0000
  C   C1052     1.0  0.64765  0.29963  0.06780  1.0000
  C   C1053     1.0  0.67164  0.27864  0.05193  1.0000
  C   C1054     1.0  0.65549  0.26669  0.08181  1.0000
  C   C1055     1.0  0.69567  0.27774  0.08526  1.0000
  H   H1775     1.0  0.63973  0.17910  0.02768  1.0000
  C   C1056     1.0  0.68222  0.29410  0.03975  1.0000
  C   C1057     1.0  0.63865  0.25869  0.07350  1.0000
  H   H1776     1.0  0.68222  0.30513  0.07594  1.0000
  H   H1777     1.0  0.67159  0.29394  0.09672  1.0000
  H   H1778     1.0  0.71142  0.16343  0.23653  1.0000
  H   H1779     1.0  0.65374  0.31294  0.06152  1.0000
  H   H1780     1.0  0.68151  0.26567  0.05348  1.0000
  H   H1781     1.0  0.66050  0.27486  0.04306  1.0000
  H   H1782     1.0  0.66669  0.25481  0.08286  1.0000
  H   H1783     1.0  0.65113  0.26949  0.09671  1.0000
  H   H1784     1.0  0.70537  0.28471  0.09347  1.0000
  H   H1785     1.0  0.69242  0.26439  0.09380  1.0000
  H   H1786     1.0  0.70359  0.27460  0.07173  1.0000
  C   C1058     1.0  0.61929  0.49620  0.02017  1.0000
  C   C1059     1.0  0.64391  0.17031  0.04072  1.0000
  C   C1060     1.0  0.57482  0.13035  0.13828  1.0000
  H   H1787     1.0  0.66400  0.42949  0.03387  1.0000
  H   H1788     1.0  0.53398  0.10656  0.17520  1.0000
  H   H1789     1.0  0.54324  0.44871  0.06524  1.0000
  H   H1790     1.0  0.69831  0.12739  0.30049  1.0000
  Fe  Fe158     1.0  0.57043  0.49297  0.10464  1.0000
  H   H1791     1.0  0.64235  0.25407  0.05912  1.0000
  H   H1792     1.0  0.59459  0.44715  0.02352  1.0000
  C   C1061     1.0  0.70558  0.14974  0.24180  1.0000
  H   H1793     1.0  0.63447  0.24603  0.08278  1.0000
  H   H1794     1.0  0.54082  0.05222  0.01982  1.0000
  H   H1795     1.0  0.54146  0.09686  0.02045  1.0000
  C   C1062     1.0  0.71856  0.29680  0.16732  1.0000
  H   H1796     1.0  0.69106  0.15332  0.24778  1.0000
  C   C1063     1.0  0.74443  0.30862  0.14654  1.0000
  H   H1797     1.0  0.63369  0.37713  0.08894  1.0000
  H   H1798     1.0  0.62601  0.26892  0.07313  1.0000
  C   C1064     1.0  0.56875  0.46117  0.03547  1.0000
  H   H1799     1.0  0.54097  0.04325  0.05390  1.0000
  C   C1065     1.0  0.53239  0.45899  0.05883  1.0000
  H   H1800     1.0  0.61487  0.14851  0.05720  1.0000
  H   H1801     1.0  0.50540  0.03192  0.02347  1.0000
  S   S310      1.0  0.59597  0.48852  0.12223  1.0000
  H   H1802     1.0  0.63798  0.19398  0.05826  1.0000
  H   H1803     1.0  0.68044  0.38642  0.01736  1.0000
  Fe  Fe159     1.0  0.67460  0.05335  0.32542  1.0000
  H   H1804     1.0  0.51910  0.12593  0.16554  1.0000
  C   C1066     1.0  0.52888  0.09152  0.01595  1.0000
  H   H1805     1.0  0.69453  0.16541  0.27586  1.0000
  H   H1806     1.0  0.53408  0.46378  0.16497  1.0000
  C   C1067     1.0  0.62052  0.14592  0.04259  1.0000
  H   H1807     1.0  0.57308  0.03325  0.04092  1.0000
  C   C1068     1.0  0.50956  0.18646  0.14317  1.0000
  H   H1808     1.0  0.61795  0.18076  0.05686  1.0000
  C   C1069     1.0  0.74498  0.29270  0.13307  1.0000
  C   C1070     1.0  0.63388  0.43114  0.03797  1.0000
  S   S311      1.0  0.71810  0.10690  0.33099  1.0000
  H   H1809     1.0  0.70495  0.14200  0.22899  1.0000
  H   H1810     1.0  0.63691  0.17145  0.07158  1.0000
  N   N74       1.0  0.65680  0.40357  0.05091  1.0000
  H   H1811     1.0  0.67614  0.40255  0.07322  1.0000
  N   N75       1.0  0.73836  0.30317  0.16700  1.0000
  C   C1071     1.0  0.51330  0.03160  0.03635  1.0000
  H   H1812     1.0  0.57155  0.49612  0.01563  1.0000
  H   H1813     1.0  0.63797  0.29604  0.05726  1.0000
  N   N76       1.0  0.57411  0.15233  0.23760  1.0000
  C   C1072     1.0  0.58416  0.16739  0.24563  1.0000
  C   C1073     1.0  0.57309  0.13567  0.25236  1.0000
  C   C1074     1.0  0.55437  0.15947  0.23273  1.0000
  C   C1075     1.0  0.58495  0.14685  0.21965  1.0000
  C   C1076     1.0  0.58433  0.18673  0.23385  1.0000
  C   C1077     1.0  0.59197  0.12383  0.25560  1.0000
  C   C1078     1.0  0.54142  0.16714  0.24914  1.0000
  C   C1079     1.0  0.57762  0.13040  0.21011  1.0000
  H   H1814     1.0  0.57813  0.17010  0.26013  1.0000
  H   H1815     1.0  0.59927  0.16252  0.24736  1.0000
  H   H1816     1.0  0.56257  0.12585  0.24918  1.0000
  H   H1817     1.0  0.56778  0.14050  0.26640  1.0000
  H   H1818     1.0  0.55465  0.17076  0.22073  1.0000
  H   H1819     1.0  0.54700  0.14801  0.22735  1.0000
  H   H1820     1.0  0.58482  0.15913  0.20873  1.0000
  H   H1821     1.0  0.60022  0.14356  0.22170  1.0000
  H   H1822     1.0  0.59268  0.15851  0.03541  1.0000
  H   H1823     1.0  0.59210  0.18547  0.21992  1.0000
  H   H1824     1.0  0.56997  0.19364  0.23196  1.0000
  H   H1825     1.0  0.58971  0.11262  0.26734  1.0000
  H   H1826     1.0  0.59749  0.11650  0.24296  1.0000
  H   H1827     1.0  0.60292  0.13254  0.25982  1.0000
  H   H1828     1.0  0.54705  0.17943  0.25477  1.0000
  H   H1829     1.0  0.53889  0.15595  0.26079  1.0000
  H   H1830     1.0  0.52743  0.17218  0.24374  1.0000
  H   H1831     1.0  0.56737  0.13591  0.19951  1.0000
  H   H1832     1.0  0.57086  0.11977  0.22014  1.0000
  H   H1833     1.0  0.58977  0.12249  0.20283  1.0000
  N   N77       1.0  0.54092  0.12721  0.12859  1.0000
  H   H1834     1.0  0.56984  0.02396  0.06483  1.0000
  C   C1080     1.0  0.53872  0.11193  0.14461  1.0000
  C   C1081     1.0  0.54702  0.11804  0.11057  1.0000
  C   C1082     1.0  0.55575  0.14019  0.13226  1.0000
  C   C1083     1.0  0.52112  0.15372  0.10978  1.0000
  C   C1084     1.0  0.50193  0.02046  0.05240  1.0000
  C   C1085     1.0  0.53269  0.10569  0.10332  1.0000
  H   H1835     1.0  0.73635  0.32939  0.00969  1.0000
  H   H1836     1.0  0.58492  0.14136  0.13882  1.0000
  H   H1837     1.0  0.69441  0.29850  0.04668  1.0000
  H   H1838     1.0  0.68452  0.15942  0.29914  1.0000
  H   H1839     1.0  0.52728  0.10286  0.14213  1.0000
  H   H1840     1.0  0.55065  0.12886  0.09882  1.0000
  H   H1841     1.0  0.56027  0.10872  0.11220  1.0000
  H   H1842     1.0  0.54372  0.12873  0.16849  1.0000
  C   C1086     1.0  0.65348  0.11641  0.05386  1.0000
  H   H1843     1.0  0.68554  0.09942  0.24443  1.0000
  H   H1844     1.0  0.62747  0.29321  0.09259  1.0000
  H   H1845     1.0  0.67260  0.30672  0.03585  1.0000
  H   H1846     1.0  0.51872  0.14669  0.13967  1.0000
  H   H1847     1.0  0.64507  0.14074  0.06905  1.0000
  H   H1848     1.0  0.73129  0.31758  0.19259  1.0000
  H   H1849     1.0  0.53865  0.10055  0.08962  1.0000
  H   H1850     1.0  0.51902  0.11373  0.10048  1.0000
  H   H1851     1.0  0.53028  0.09293  0.11314  1.0000
  H   H1852     1.0  0.55175  0.10210  0.14536  1.0000
  H   H1853     1.0  0.62244  0.42959  0.04938  1.0000
  S   S312      1.0  0.66210  0.10828  0.32426  1.0000
  H   H1854     1.0  0.65862  0.37708  0.08496  1.0000
  H   H1855     1.0  0.52873  0.48825  0.04900  1.0000
  H   H1856     1.0  0.73470  0.32044  0.14066  1.0000
  H   H1857     1.0  0.64159  0.40916  0.07773  1.0000
  C   C1087     1.0  0.69413  0.11628  0.26598  1.0000
  H   H1858     1.0  0.65713  0.37624  0.03974  1.0000
  H   H1859     1.0  0.52299  0.14730  0.09606  1.0000
  H   H1860     1.0  0.62465  0.31671  0.08142  1.0000
  C   C1088     1.0  0.65349  0.42452  0.04515  1.0000
  H   H1861     1.0  0.68260  0.12644  0.26098  1.0000
  H   H1862     1.0  0.70914  0.30765  0.15955  1.0000
  H   H1863     1.0  0.73050  0.28979  0.12988  1.0000
  H   H1864     1.0  0.51378  0.00671  0.00950  1.0000
  H   H1865     1.0  0.62782  0.39953  0.06174  1.0000
  H   H1866     1.0  0.62808  0.48344  0.02402  1.0000
  C   C1089     1.0  0.67627  0.39924  0.05822  1.0000
  H   H1867     1.0  0.68065  0.38383  0.05829  1.0000
  C   C1090     1.0  0.63351  0.17940  0.05791  1.0000
  H   H1868     1.0  0.66756  0.34693  0.01783  1.0000
  H   H1869     1.0  0.71919  0.10110  0.28992  1.0000
  H   H1870     1.0  0.55010  0.49332  0.20006  1.0000
  C   C1091     1.0  0.60714  0.15667  0.02839  1.0000
  H   H1871     1.0  0.55905  0.14987  0.11943  1.0000
  H   H1872     1.0  0.56919  0.00839  0.04665  1.0000
  C   C1092     1.0  0.64527  0.37885  0.07765  1.0000
  H   H1873     1.0  0.65919  0.17241  0.04137  1.0000
  N   N78       1.0  0.64110  0.14964  0.03949  1.0000
  C   C1093     1.0  0.54265  0.03702  0.01685  1.0000
  C   C1094     1.0  0.52225  0.13877  0.12694  1.0000
  H   H1874     1.0  0.74888  0.28679  0.19176  1.0000
  H   H1875     1.0  0.66127  0.10973  0.06605  1.0000
  H   H1876     1.0  0.50338  0.13205  0.04926  1.0000
  C   C1095     1.0  0.73737  0.32057  0.17786  1.0000
  C   C1096     1.0  0.51368  0.08815  0.02912  1.0000
  C   C1097     1.0  0.50528  0.47640  0.11125  1.0000
  H   H1877     1.0  0.68800  0.28845  0.02624  1.0000
  S   S313      1.0  0.61872  0.03724  0.02483  1.0000
  N   N79       1.0  0.71053  0.12613  0.27175  1.0000
  H   H1878     1.0  0.53737  0.01962  0.06331  1.0000
  C   C1098     1.0  0.51399  0.16561  0.17794  1.0000
  H   H1879     1.0  0.66881  0.40989  0.01243  1.0000
  H   H1880     1.0  0.74074  0.12430  0.29889  1.0000
  C   C1099     1.0  0.65180  0.13814  0.05477  1.0000
  N   N80       1.0  0.55318  0.47669  0.03234  1.0000
  H   H1881     1.0  0.75053  0.12766  0.27458  1.0000
  H   H1882     1.0  0.63952  0.11043  0.05513  1.0000
  C   C1100     1.0  0.69886  0.10251  0.25040  1.0000
  H   H1883     1.0  0.54907  0.48226  0.06203  1.0000
  C   C1101     1.0  0.72532  0.11087  0.27830  1.0000
  H   H1884     1.0  0.69409  0.40870  0.03257  1.0000
  H   H1885     1.0  0.59207  0.19644  0.24133  1.0000
  H   H1886     1.0  0.53150  0.16450  0.11013  1.0000
  C   C1102     1.0  0.75095  0.28721  0.17603  1.0000
  H   H1887     1.0  0.61859  0.13068  0.04173  1.0000
  H   H1888     1.0  0.55810  0.03356  0.01510  1.0000
  H   H1889     1.0  0.69545  0.28506  0.18511  1.0000
  H   H1890     1.0  0.51473  0.09052  0.04382  1.0000
  H   H1891     1.0  0.67307  0.16085  0.01411  1.0000
  H   H1892     1.0  0.50792  0.19464  0.12969  1.0000
  H   H1893     1.0  0.69115  0.42518  0.05079  1.0000
  H   H1894     1.0  0.70535  0.08870  0.25641  1.0000
  H   H1895     1.0  0.57071  0.49786  0.04007  1.0000
  H   H1896     1.0  0.70614  0.40388  0.05378  1.0000
  C   C1103     1.0  0.72133  0.33330  0.01145  1.0000
  C   C1104     1.0  0.56171  0.49554  0.02844  1.0000
  H   H1897     1.0  0.57359  0.12288  0.15267  1.0000
  C   C1105     1.0  0.60900  0.03383  0.32823  1.0000
  H   H1898     1.0  0.64051  0.15323  0.00893  1.0000
  C   C1106     1.0  0.66834  0.00408  0.30255  1.0000
  C   C1107     1.0  0.70845  0.29219  0.18701  1.0000
  H   H1899     1.0  0.50685  0.16143  0.11043  1.0000
  C   C1108     1.0  0.56506  0.02303  0.05043  1.0000
  H   H1900     1.0  0.67846  0.13692  0.02462  1.0000
  H   H1901     1.0  0.67583  0.14910  0.27999  1.0000
  H   H1902     1.0  0.57675  0.46378  0.04777  1.0000
  H   H1903     1.0  0.64378  0.31052  0.09610  1.0000
  H   H1904     1.0  0.63084  0.42375  0.02558  1.0000
  H   H1905     1.0  0.74676  0.27330  0.17228  1.0000
  H   H1906     1.0  0.50645  0.46535  0.12275  1.0000
  H   H1907     1.0  0.59064  0.47082  0.01359  1.0000
  C   C1109     1.0  0.59395  0.01961  0.00539  1.0000
  H   H1908     1.0  0.71851  0.28370  0.15984  1.0000
  S   S314      1.0  0.58119  0.11724  0.00731  1.0000
  H   H1909     1.0  0.57698  0.45221  0.00692  1.0000
  C   C1110     1.0  0.66657  0.39483  0.01653  1.0000
  H   H1910     1.0  0.61116  0.17111  0.02355  1.0000
  C   C1111     1.0  0.54101  0.47248  0.01692  1.0000
  H   H1911     1.0  0.71726  0.28242  0.19644  1.0000
  H   H1912     1.0  0.66156  0.11200  0.04083  1.0000
  C   C1112     1.0  0.66939  0.14592  0.01481  1.0000
  C   C1113     1.0  0.53692  0.00401  0.02992  1.0000
  S   S315      1.0  0.68158  0.02163  0.33205  1.0000
  H   H1913     1.0  0.52291  0.48375  0.15224  1.0000
  C   C1114     1.0  0.53142  0.47946  0.16460  1.0000
  H   H1914     1.0  0.61084  0.03540  0.31250  1.0000
  C   C1115     1.0  0.55063  0.48837  0.16271  1.0000
  H   H1915     1.0  0.52165  0.46223  0.07053  1.0000
  H   H1916     1.0  0.58860  0.49075  0.16617  1.0000
  H   H1917     1.0  0.61942  0.00505  0.32996  1.0000
  H   H1918     1.0  0.52308  0.48264  0.17790  1.0000
  H   H1919     1.0  0.63759  0.02097  0.32867  1.0000
  C   C1116     1.0  0.67634  0.00198  0.32012  1.0000
  H   H1920     1.0  0.59428  0.03000  0.33194  1.0000
  H   H1921     1.0  0.50599  0.02336  0.06656  1.0000
  C   C1117     1.0  0.61484  0.50066  0.00138  1.0000
  H   H1922     1.0  0.50324  0.00499  0.05107  1.0000
  H   H1923     1.0  0.61096  0.04787  0.33306  1.0000
  H   H1924     1.0  0.58235  0.13003  0.44546  1.0000
  H   H1925     1.0  0.60369  0.13084  0.41719  1.0000
  Fe  Fe160     1.0  0.52404  0.07232  0.40320  1.0000
  H   H1926     1.0  0.52163  0.10508  0.50618  1.0000
  S   S316      1.0  0.54009  0.08567  0.37716  1.0000
  H   H1927     1.0  0.60096  0.09814  0.34306  1.0000
  H   H1928     1.0  0.58872  0.00428  0.64813  1.0000
  S   S317      1.0  0.53761  0.05995  0.42951  1.0000
  S   S318      1.0  0.53028  0.01771  0.63864  1.0000
  Fe  Fe161     1.0  0.52691  0.04601  0.62186  1.0000
  H   H1929     1.0  0.74796  0.17734  0.57933  1.0000
  Fe  Fe162     1.0  0.54830  0.08045  0.60816  1.0000
  S   S319      1.0  0.52554  0.09260  0.58888  1.0000
  S   S320      1.0  0.57783  0.09049  0.60771  1.0000
  H   H1930     1.0  0.74712  0.18548  0.51855  1.0000
  H   H1931     1.0  0.62299  0.04551  0.36055  1.0000
  S   S321      1.0  0.52823  0.07413  0.63354  1.0000
  S   S322      1.0  0.54856  0.05151  0.59804  1.0000
  S   S323      1.0  0.62939  0.08552  0.36998  1.0000
  S   S324      1.0  0.67802  0.07022  0.35010  1.0000
  H   H1932     1.0  0.64863  0.02196  0.38804  1.0000
  H   H1933     1.0  0.55527  0.08463  0.45252  1.0000
  C   C1118     1.0  0.73125  0.11182  0.35032  1.0000
  H   H1934     1.0  0.50248  0.01015  0.48085  1.0000
  C   C1119     1.0  0.59395  0.00746  0.66179  1.0000
  C   C1120     1.0  0.73577  0.11216  0.38404  1.0000
  C   C1121     1.0  0.72503  0.10765  0.36930  1.0000
  H   H1935     1.0  0.56721  0.10135  0.46419  1.0000
  H   H1936     1.0  0.73065  0.10897  0.39862  1.0000
  H   H1937     1.0  0.71183  0.10111  0.37264  1.0000
  C   C1122     1.0  0.58880  0.09238  0.62892  1.0000
  C   C1123     1.0  0.60852  0.09334  0.62834  1.0000
  C   C1124     1.0  0.61765  0.09491  0.64502  1.0000
  H   H1938     1.0  0.71593  0.11484  0.64437  1.0000
  Fe  Fe163     1.0  0.51883  0.03632  0.42843  1.0000
  C   C1125     1.0  0.57823  0.09311  0.64627  1.0000
  H   H1939     1.0  0.61675  0.09288  0.61493  1.0000
  H   H1940     1.0  0.63281  0.09570  0.64443  1.0000
  H   H1941     1.0  0.53253  0.14029  0.42123  1.0000
  H   H1942     1.0  0.56304  0.09257  0.64687  1.0000
  C   C1126     1.0  0.56505  0.08267  0.37395  1.0000
  C   C1127     1.0  0.57596  0.07329  0.38805  1.0000
  C   C1128     1.0  0.59579  0.07370  0.38635  1.0000
  C   C1129     1.0  0.60490  0.08277  0.37019  1.0000
  C   C1130     1.0  0.59409  0.09101  0.35551  1.0000
  C   C1131     1.0  0.57421  0.09115  0.35750  1.0000
  H   H1943     1.0  0.56910  0.06642  0.40061  1.0000
  H   H1944     1.0  0.60408  0.06726  0.39775  1.0000
  H   H1945     1.0  0.74649  0.16228  0.54935  1.0000
  C   C1132     1.0  0.51787  0.07940  0.49334  1.0000
  C   C1133     1.0  0.60576  0.01055  0.36679  1.0000
  H   H1946     1.0  0.74578  0.06097  0.39148  1.0000
  H   H1947     1.0  0.58176  0.15760  0.42610  1.0000
  H   H1948     1.0  0.63558  0.04107  0.62259  1.0000
  H   H1949     1.0  0.54025  0.10871  0.43638  1.0000
  C   C1134     1.0  0.63573  0.03128  0.38487  1.0000
  H   H1950     1.0  0.60798  0.00242  0.38074  1.0000
  H   H1951     1.0  0.59018  0.04220  0.62377  1.0000
  H   H1952     1.0  0.57284  0.01244  0.59877  1.0000
  C   C1135     1.0  0.72856  0.12165  0.64656  1.0000
  H   H1953     1.0  0.54803  0.09951  0.41441  1.0000
  N   N81       1.0  0.62461  0.01518  0.35692  1.0000
  C   C1136     1.0  0.56743  0.15244  0.42919  1.0000
  H   H1954     1.0  0.57103  0.02208  0.57440  1.0000
  H   H1955     1.0  0.61387  0.01890  0.63095  1.0000
  H   H1956     1.0  0.51447  0.05157  0.48502  1.0000
  N   N82       1.0  0.56826  0.11619  0.42528  1.0000
  C   C1137     1.0  0.58912  0.04165  0.65501  1.0000
  H   H1957     1.0  0.55732  0.13059  0.44988  1.0000
  S   S325      1.0  0.50267  0.05521  0.60406  1.0000
  C   C1138     1.0  0.73142  0.12686  0.66460  1.0000
  H   H1958     1.0  0.59283  0.10012  0.43677  1.0000
  H   H1959     1.0  0.63832  0.04562  0.38871  1.0000
  C   C1139     1.0  0.51475  0.00184  0.63204  1.0000
  C   C1140     1.0  0.57845  0.12051  0.40613  1.0000
  H   H1960     1.0  0.57258  0.13378  0.39862  1.0000
  H   H1961     1.0  0.57632  0.10949  0.39655  1.0000
  H   H1962     1.0  0.52197  0.12280  0.41020  1.0000
  C   C1141     1.0  0.58729  0.09507  0.66285  1.0000
  C   C1142     1.0  0.56901  0.09053  0.45378  1.0000
  N   N83       1.0  0.60387  0.02565  0.65950  1.0000
  C   C1143     1.0  0.52017  0.06145  0.53043  1.0000
  H   H1963     1.0  0.57848  0.07860  0.45980  1.0000
  C   C1144     1.0  0.59998  0.12201  0.40615  1.0000
  H   H1964     1.0  0.56021  0.16175  0.43970  1.0000
  C   C1145     1.0  0.54815  0.11219  0.42255  1.0000
  H   H1965     1.0  0.60763  0.10773  0.40795  1.0000
  Fe  Fe164     1.0  0.51263  0.07402  0.44548  1.0000
  C   C1146     1.0  0.56879  0.13175  0.43832  1.0000
  C   C1147     1.0  0.61925  0.02391  0.64380  1.0000
  H   H1966     1.0  0.59327  0.04083  0.36223  1.0000
  H   H1967     1.0  0.57845  0.08654  0.42473  1.0000
  C   C1148     1.0  0.63013  0.04159  0.63762  1.0000
  S   S326      1.0  0.50698  0.04746  0.40083  1.0000
  Fe  Fe165     1.0  0.52444  0.06285  0.58073  1.0000
  S   S327      1.0  0.52162  0.04942  0.55327  1.0000
  H   H1968     1.0  0.56587  0.09837  0.34649  1.0000
  H   H1969     1.0  0.53984  0.01680  0.58281  1.0000
  H   H1970     1.0  0.65337  0.00217  0.35547  1.0000
  C   C1149     1.0  0.74791  0.13586  0.66705  1.0000
  C   C1150     1.0  0.54884  0.00338  0.58542  1.0000
  S   S328      1.0  0.51677  0.09104  0.47025  1.0000
  C   C1151     1.0  0.52040  0.08995  0.50866  1.0000
  C   C1152     1.0  0.57787  0.09816  0.43433  1.0000
  C   C1153     1.0  0.53579  0.12823  0.41238  1.0000
  H   H1971     1.0  0.64230  0.04216  0.64644  1.0000
  H   H1972     1.0  0.54188  0.13292  0.39807  1.0000
  H   H1973     1.0  0.74851  0.21059  0.51634  1.0000
  H   H1974     1.0  0.56963  0.05404  0.63445  1.0000
  C   C1154     1.0  0.51638  0.05984  0.49669  1.0000
  H   H1975     1.0  0.55935  0.15495  0.41640  1.0000
  H   H1976     1.0  0.52384  0.08922  0.53877  1.0000
  H   H1977     1.0  0.57686  0.02357  0.36902  1.0000
  H   H1978     1.0  0.59491  0.05569  0.65443  1.0000
  C   C1155     1.0  0.74850  0.12039  0.34641  1.0000
  C   C1156     1.0  0.52159  0.08102  0.52714  1.0000
  C   C1157     1.0  0.51750  0.05093  0.51515  1.0000
  H   H1979     1.0  0.60529  0.12853  0.39213  1.0000
  H   H1980     1.0  0.73956  0.19639  0.54985  1.0000
  C   C1158     1.0  0.74172  0.12591  0.63115  1.0000
  Fe  Fe166     1.0  0.64957  0.08464  0.34360  1.0000
  C   C1159     1.0  0.60700  0.09597  0.66231  1.0000
  S   S329      1.0  0.53088  0.00623  0.43338  1.0000
  H   H1981     1.0  0.62349  0.02639  0.39404  1.0000
  C   C1160     1.0  0.57975  0.04132  0.63618  1.0000
  C   C1161     1.0  0.59134  0.02746  0.37112  1.0000
  C   C1162     1.0  0.62344  0.01806  0.33572  1.0000
  H   H1982     1.0  0.59107  0.03020  0.38629  1.0000
  H   H1983     1.0  0.63031  0.01259  0.64797  1.0000
  H   H1984     1.0  0.73908  0.12219  0.61720  1.0000
  H   H1985     1.0  0.64595  0.03544  0.35565  1.0000
  H   H1986     1.0  0.62120  0.05504  0.63779  1.0000
  C   C1163     1.0  0.63223  0.03246  0.36362  1.0000
  C   C1164     1.0  0.56938  0.00926  0.58445  1.0000
  Fe  Fe167     1.0  0.50533  0.08390  0.61372  1.0000
  H   H1987     1.0  0.57135  0.02888  0.63598  1.0000
  H   H1988     1.0  0.50974  0.01188  0.58220  1.0000
  H   H1989     1.0  0.51642  0.03579  0.51757  1.0000
  H   H1990     1.0  0.54163  0.01276  0.55003  1.0000
  H   H1991     1.0  0.57762  0.04199  0.66658  1.0000
  H   H1992     1.0  0.51063  0.00809  0.55723  1.0000
  S   S330      1.0  0.59435  0.46623  0.94585  1.0000
  H   H1993     1.0  0.71775  0.28587  0.89453  1.0000
  Fe  Fe168     1.0  0.60819  0.47813  0.91853  1.0000
  S   S331      1.0  0.62482  0.45855  0.89866  1.0000
  S   S332      1.0  0.60195  0.07978  0.98763  1.0000
  H   H1994     1.0  0.55458  0.15177  0.88729  1.0000
  S   S333      1.0  0.62725  0.12922  0.98128  1.0000
  Fe  Fe169     1.0  0.61863  0.16415  0.87287  1.0000
  S   S334      1.0  0.60375  0.19130  0.88195  1.0000
  S   S335      1.0  0.62190  0.13687  0.89196  1.0000
  Fe  Fe170     1.0  0.61937  0.17705  0.83071  1.0000
  S   S336      1.0  0.60404  0.20515  0.83702  1.0000
  S   S337      1.0  0.62522  0.17191  0.79922  1.0000
  Fe  Fe171     1.0  0.62382  0.20588  0.86036  1.0000
  S   S338      1.0  0.63391  0.23578  0.86173  1.0000
  Fe  Fe172     1.0  0.58514  0.18872  0.85819  1.0000
  S   S339      1.0  0.55344  0.19619  0.86425  1.0000
  S   S340      1.0  0.64036  0.17856  0.85275  1.0000
  S   S341      1.0  0.59889  0.16083  0.85018  1.0000
  Fe  Fe173     1.0  0.64827  0.09428  0.69040  1.0000
  S   S342      1.0  0.65112  0.07253  0.71535  1.0000
  H   H1995     1.0  0.65640  0.01366  0.80575  1.0000
  Fe  Fe174     1.0  0.68944  0.10482  0.69076  1.0000
  S   S343      1.0  0.69424  0.08374  0.71590  1.0000
  C   C1165     1.0  0.61581  0.04826  0.68229  1.0000
  Fe  Fe175     1.0  0.67901  0.06370  0.70078  1.0000
  S   S344      1.0  0.69239  0.03345  0.70006  1.0000
  Fe  Fe176     1.0  0.66577  0.09451  0.72832  1.0000
  S   S345      1.0  0.66143  0.09811  0.76015  1.0000
  C   C1166     1.0  0.69634  0.13185  0.73689  1.0000
  S   S346      1.0  0.66162  0.11678  0.70425  1.0000
  Fe  Fe177     1.0  0.67489  0.35386  0.92258  1.0000
  S   S347      1.0  0.70432  0.36154  0.92677  1.0000
  S   S348      1.0  0.64833  0.37341  0.92805  1.0000
  Fe  Fe178     1.0  0.68736  0.31190  0.91726  1.0000
  S   S349      1.0  0.71774  0.31675  0.92146  1.0000
  S   S350      1.0  0.68103  0.28092  0.91437  1.0000
  Fe  Fe179     1.0  0.70641  0.33411  0.94547  1.0000
  S   S351      1.0  0.72168  0.33113  0.97290  1.0000
  Fe  Fe180     1.0  0.71354  0.34370  0.90256  1.0000
  H   H1996     1.0  0.58066  0.19820  0.92240  1.0000
  S   S352      1.0  0.67655  0.32734  0.94275  1.0000
  S   S353      1.0  0.68362  0.33795  0.89683  1.0000
  H   H1997     1.0  0.56222  0.22171  0.80317  1.0000
  C   C1167     1.0  0.54163  0.42938  0.89664  1.0000
  H   H1998     1.0  0.62353  0.04754  0.69539  1.0000
  H   H1999     1.0  0.60266  0.02266  0.69027  1.0000
  C   C1168     1.0  0.73574  0.28154  0.84895  1.0000
  H   H2000     1.0  0.75029  0.14004  0.68089  1.0000
  C   C1169     1.0  0.51523  0.19430  0.86203  1.0000
  H   H2001     1.0  0.68255  0.34190  0.98579  1.0000
  H   H2002     1.0  0.68254  0.04739  0.73730  1.0000
  C   C1170     1.0  0.68044  0.01249  0.69995  1.0000
  H   H2003     1.0  0.73840  0.27406  0.81982  1.0000
  H   H2004     1.0  0.65234  0.02605  0.70297  1.0000
  H   H2005     1.0  0.62584  0.01924  0.67925  1.0000
  C   C1171     1.0  0.63493  0.15099  0.78881  1.0000
  C   C1172     1.0  0.64269  0.13512  0.79957  1.0000
  C   C1173     1.0  0.65061  0.11905  0.79060  1.0000
  C   C1174     1.0  0.65076  0.11853  0.77082  1.0000
  C   C1175     1.0  0.64277  0.13430  0.76010  1.0000
  C   C1176     1.0  0.63504  0.15044  0.76903  1.0000
  H   H2006     1.0  0.64275  0.13528  0.81478  1.0000
  H   H2007     1.0  0.65670  0.10695  0.79909  1.0000
  H   H2008     1.0  0.64250  0.13405  0.74492  1.0000
  H   H2009     1.0  0.62909  0.16259  0.76052  1.0000
  C   C1177     1.0  0.64597  0.24806  0.87754  1.0000
  C   C1178     1.0  0.65605  0.23866  0.89230  1.0000
  C   C1179     1.0  0.66628  0.24901  0.90364  1.0000
  C   C1180     1.0  0.66645  0.26891  0.90061  1.0000
  C   C1181     1.0  0.65602  0.27835  0.88613  1.0000
  C   C1182     1.0  0.64604  0.26797  0.87460  1.0000
  H   H2010     1.0  0.65626  0.22339  0.89475  1.0000
  H   H2011     1.0  0.67429  0.24150  0.91475  1.0000
  H   H2012     1.0  0.65590  0.29361  0.88359  1.0000
  H   H2013     1.0  0.63830  0.27544  0.86327  1.0000
  C   C1183     1.0  0.53327  0.18481  0.85927  1.0000
  C   C1184     1.0  0.53469  0.16677  0.85266  1.0000
  H   H2014     1.0  0.58045  0.20166  0.78573  1.0000
  H   H2015     1.0  0.54837  0.15901  0.85109  1.0000
  H   H2016     1.0  0.69862  0.12829  0.72192  1.0000
  H   H2017     1.0  0.53590  0.20374  0.79535  1.0000
  Fe  Fe181     1.0  0.56949  0.48674  0.93891  1.0000
  H   H2018     1.0  0.59105  0.43803  0.91995  1.0000
  C   C1185     1.0  0.62567  0.13151  0.95646  1.0000
  C   C1186     1.0  0.62101  0.11628  0.94704  1.0000
  C   C1187     1.0  0.62014  0.11816  0.92727  1.0000
  C   C1188     1.0  0.62347  0.13542  0.91674  1.0000
  C   C1189     1.0  0.62784  0.15081  0.92613  1.0000
  C   C1190     1.0  0.62916  0.14878  0.94594  1.0000
  H   H2019     1.0  0.61851  0.10288  0.95493  1.0000
  H   H2020     1.0  0.61687  0.10617  0.92008  1.0000
  H   H2021     1.0  0.63055  0.16414  0.91811  1.0000
  H   H2022     1.0  0.63284  0.16062  0.95311  1.0000
  C   C1191     1.0  0.63395  0.43572  0.90758  1.0000
  C   C1192     1.0  0.63084  0.42926  0.92668  1.0000
  C   C1193     1.0  0.63620  0.41033  0.93295  1.0000
  C   C1194     1.0  0.64531  0.39782  0.92037  1.0000
  C   C1195     1.0  0.64920  0.40449  0.90142  1.0000
  C   C1196     1.0  0.64341  0.42334  0.89504  1.0000
  H   H2023     1.0  0.62391  0.43864  0.93658  1.0000
  H   H2024     1.0  0.63298  0.40525  0.94757  1.0000
  H   H2025     1.0  0.65591  0.39489  0.89153  1.0000
  H   H2026     1.0  0.64591  0.42819  0.88025  1.0000
  H   H2027     1.0  0.73444  0.29924  0.82195  1.0000
  H   H2028     1.0  0.63804  0.04172  0.77581  1.0000
  H   H2029     1.0  0.56148  0.20292  0.77047  1.0000
  H   H2030     1.0  0.51395  0.20820  0.86731  1.0000
  H   H2031     1.0  0.52019  0.03955  0.99644  1.0000
  S   S354      1.0  0.67562  0.08409  0.67474  1.0000
  H   H2032     1.0  0.53826  0.17868  0.77446  1.0000
  H   H2033     1.0  0.52017  0.16896  0.80369  1.0000
  H   H2034     1.0  0.56308  0.45552  0.88012  1.0000
  C   C1197     1.0  0.51987  0.47998  0.93478  1.0000
  H   H2035     1.0  0.59527  0.17282  0.77297  1.0000
  H   H2036     1.0  0.50756  0.11196  0.87801  1.0000
  H   H2037     1.0  0.58131  0.18258  0.94345  1.0000
  H   H2038     1.0  0.62667  0.02125  0.96670  1.0000
  H   H2039     1.0  0.57420  0.00563  0.99091  1.0000
  C   C1198     1.0  0.73283  0.15068  0.72145  1.0000
  S   S355      1.0  0.71448  0.12359  0.68427  1.0000
  C   C1199     1.0  0.66244  0.00896  0.79191  1.0000
  H   H2040     1.0  0.66762  0.16995  0.70385  1.0000
  C   C1200     1.0  0.71047  0.33528  0.99549  1.0000
  H   H2041     1.0  0.72086  0.11085  0.73884  1.0000
  H   H2042     1.0  0.58435  0.45824  0.86546  1.0000
  C   C1201     1.0  0.57664  0.43381  0.91799  1.0000
  H   H2043     1.0  0.57605  0.17214  0.75748  1.0000
  H   H2044     1.0  0.51957  0.14489  0.84267  1.0000
  C   C1202     1.0  0.59103  0.40443  0.90655  1.0000
  H   H2045     1.0  0.70474  0.25357  0.88002  1.0000
  H   H2046     1.0  0.59037  0.03348  0.99834  1.0000
  H   H2047     1.0  0.65012  0.00556  0.78461  1.0000
  C   C1203     1.0  0.71963  0.31032  0.86218  1.0000
  S   S356      1.0  0.73370  0.35117  0.87656  1.0000
  H   H2048     1.0  0.55449  0.40344  0.91018  1.0000
  C   C1204     1.0  0.58557  0.43198  0.88380  1.0000
  H   H2049     1.0  0.58428  0.38512  0.88562  1.0000
  C   C1205     1.0  0.70507  0.04429  0.75609  1.0000
  H   H2050     1.0  0.70787  0.04207  0.77130  1.0000
  H   H2051     1.0  0.73356  0.31612  0.85793  1.0000
  H   H2052     1.0  0.71381  0.03371  0.74797  1.0000
  H   H2053     1.0  0.60624  0.37921  0.89625  1.0000
  H   H2054     1.0  0.54013  0.43442  0.88151  1.0000
  N   N84       1.0  0.72151  0.28888  0.86385  1.0000
  H   H2055     1.0  0.73025  0.16069  0.70880  1.0000
  C   C1206     1.0  0.55860  0.41445  0.89875  1.0000
  H   H2056     1.0  0.71190  0.25251  0.85495  1.0000
  H   H2057     1.0  0.70699  0.33589  0.84749  1.0000
  H   H2058     1.0  0.65609  0.03095  0.73673  1.0000
  H   H2059     1.0  0.70996  0.05840  0.75080  1.0000
  C   C1207     1.0  0.66070  0.01272  0.70196  1.0000
  H   H2060     1.0  0.69052  0.31853  0.85429  1.0000
  C   C1208     1.0  0.69287  0.15032  0.77475  1.0000
  H   H2061     1.0  0.67678  0.05688  0.75944  1.0000
  N   N85       1.0  0.57752  0.42150  0.90170  1.0000
  H   H2062     1.0  0.71508  0.12192  0.76075  1.0000
  C   C1209     1.0  0.53223  0.15920  0.79885  1.0000
  H   H2063     1.0  0.56815  0.44746  0.91520  1.0000
  H   H2064     1.0  0.62743  0.04428  0.75362  1.0000
  N   N86       1.0  0.69930  0.15251  0.73816  1.0000
  H   H2065     1.0  0.68820  0.02239  0.78632  1.0000
  H   H2066     1.0  0.69881  0.15783  0.70754  1.0000
  H   H2067     1.0  0.69558  0.28622  0.84992  1.0000
  C   C1210     1.0  0.58383  0.18124  0.76553  1.0000
  H   H2068     1.0  0.70094  0.10482  0.75371  1.0000
  H   H2069     1.0  0.58294  0.42471  0.87112  1.0000
  H   H2070     1.0  0.59099  0.19122  0.75491  1.0000
  H   H2071     1.0  0.55881  0.19128  0.93388  1.0000
  H   H2072     1.0  0.53890  0.15180  0.81134  1.0000
  C   C1211     1.0  0.57863  0.45304  0.87981  1.0000
  H   H2073     1.0  0.60476  0.39851  0.87848  1.0000
  H   H2074     1.0  0.68414  0.15780  0.78584  1.0000
  H   H2075     1.0  0.51060  0.07843  0.97662  1.0000
  H   H2076     1.0  0.60127  0.43186  0.88390  1.0000
  N   N87       1.0  0.55915  0.18182  0.79439  1.0000
  C   C1212     1.0  0.54632  0.19604  0.80487  1.0000
  C   C1213     1.0  0.57173  0.17048  0.80826  1.0000
  C   C1214     1.0  0.55619  0.21115  0.81393  1.0000
  C   C1215     1.0  0.57955  0.15038  0.80332  1.0000
  H   H2077     1.0  0.53777  0.18881  0.81672  1.0000
  H   H2078     1.0  0.58401  0.17851  0.81071  1.0000
  H   H2079     1.0  0.56389  0.16839  0.82232  1.0000
  H   H2080     1.0  0.54560  0.21909  0.82314  1.0000
  C   C1216     1.0  0.59665  0.39126  0.89060  1.0000
  H   H2081     1.0  0.55954  0.40673  0.88574  1.0000
  H   H2082     1.0  0.66310  0.17546  0.72788  1.0000
  H   H2083     1.0  0.59373  0.14724  0.80900  1.0000
  H   H2084     1.0  0.58154  0.14833  0.78807  1.0000
  H   H2085     1.0  0.57078  0.13940  0.81076  1.0000
  N   N88       1.0  0.56502  0.15230  0.92577  1.0000
  C   C1217     1.0  0.57378  0.14497  0.94404  1.0000
  C   C1218     1.0  0.57514  0.16943  0.91781  1.0000
  C   C1219     1.0  0.56818  0.13687  0.91231  1.0000
  C   C1220     1.0  0.54419  0.15700  0.93034  1.0000
  C   C1221     1.0  0.56811  0.12542  0.95294  1.0000
  C   C1222     1.0  0.57370  0.18615  0.93036  1.0000
  C   C1223     1.0  0.56755  0.14302  0.89098  1.0000
  C   C1224     1.0  0.53255  0.16692  0.91425  1.0000
  H   H2086     1.0  0.58947  0.14388  0.94192  1.0000
  H   H2087     1.0  0.57029  0.15496  0.95520  1.0000
  H   H2088     1.0  0.57018  0.17533  0.90390  1.0000
  H   H2089     1.0  0.59047  0.16526  0.91485  1.0000
  H   H2090     1.0  0.58245  0.12925  0.91376  1.0000
  H   H2091     1.0  0.55783  0.12592  0.91583  1.0000
  H   H2092     1.0  0.53711  0.14386  0.93520  1.0000
  H   H2093     1.0  0.54168  0.16559  0.94277  1.0000
  H   H2094     1.0  0.57264  0.11384  0.94374  1.0000
  H   H2095     1.0  0.57550  0.12182  0.96617  1.0000
  H   H2096     1.0  0.55273  0.12541  0.95691  1.0000
  H   H2097     1.0  0.54017  0.17739  0.90476  1.0000
  C   C1225     1.0  0.52794  0.08758  0.99715  1.0000
  H   H2098     1.0  0.69171  0.01373  0.73733  1.0000
  H   H2099     1.0  0.72621  0.14878  0.75150  1.0000
  C   C1226     1.0  0.72867  0.28227  0.88305  1.0000
  H   H2100     1.0  0.58007  0.15081  0.88586  1.0000
  C   C1227     1.0  0.62385  0.00839  0.95985  1.0000
  N   N89       1.0  0.67438  0.02644  0.75997  1.0000
  C   C1228     1.0  0.70924  0.11698  0.74829  1.0000
  S   S357      1.0  0.62236  0.48471  0.98459  1.0000
  H   H2101     1.0  0.68140  0.12905  0.74114  1.0000
  C   C1229     1.0  0.68382  0.04430  0.75283  1.0000
  H   H2102     1.0  0.73131  0.26656  0.88476  1.0000
  C   C1230     1.0  0.56861  0.42486  0.93723  1.0000
  H   H2103     1.0  0.60447  0.40895  0.91111  1.0000
  H   H2104     1.0  0.58515  0.39527  0.91877  1.0000
  H   H2105     1.0  0.66829  0.03853  0.78706  1.0000
  H   H2106     1.0  0.67282  0.15856  0.75456  1.0000
  S   S358      1.0  0.61742  0.09875  0.68361  1.0000
  C   C1231     1.0  0.70240  0.28130  0.86319  1.0000
  C   C1232     1.0  0.73054  0.28504  0.82817  1.0000
  H   H2107     1.0  0.57828  0.41307  0.94310  1.0000
  H   H2108     1.0  0.56717  0.43576  0.94762  1.0000
  H   H2109     1.0  0.55428  0.42006  0.93640  1.0000
  H   H2110     1.0  0.74584  0.46317  0.85858  1.0000
  H   H2111     1.0  0.68757  0.25579  0.86288  1.0000
  C   C1233     1.0  0.65493  0.02838  0.75247  1.0000
  H   H2112     1.0  0.53943  0.02151  0.99197  1.0000
  Fe  Fe182     1.0  0.61055  0.10664  0.99782  1.0000
  H   H2113     1.0  0.73122  0.13607  0.71789  1.0000
  H   H2114     1.0  0.71511  0.31567  0.87622  1.0000
  H   H2115     1.0  0.64617  0.05851  0.75681  1.0000
  H   H2116     1.0  0.54277  0.04597  0.98688  1.0000
  C   C1234     1.0  0.68819  0.16001  0.75520  1.0000
  H   H2117     1.0  0.56837  0.13020  0.88300  1.0000
  H   H2118     1.0  0.66469  0.15110  0.72205  1.0000
  C   C1235     1.0  0.64110  0.04419  0.76029  1.0000
  H   H2119     1.0  0.50712  0.12663  0.91635  1.0000
  H   H2120     1.0  0.60235  0.05696  0.68511  1.0000
  H   H2121     1.0  0.68971  0.17549  0.75544  1.0000
  C   C1236     1.0  0.70200  0.25952  0.86540  1.0000
  C   C1237     1.0  0.51968  0.49058  0.91718  1.0000
  C   C1238     1.0  0.51133  0.08144  0.99119  1.0000
  H   H2122     1.0  0.58423  0.46192  0.88984  1.0000
  H   H2123     1.0  0.68882  0.13547  0.77648  1.0000
  C   C1239     1.0  0.69220  0.16383  0.72065  1.0000
  H   H2124     1.0  0.70785  0.15101  0.77774  1.0000
  C   C1240     1.0  0.68613  0.00982  0.75212  1.0000
  H   H2125     1.0  0.57896  0.09599  0.67616  1.0000
  H   H2126     1.0  0.69252  0.28712  0.87449  1.0000
  H   H2127     1.0  0.56726  0.20463  0.82314  1.0000
  H   H2128     1.0  0.52613  0.14835  0.79131  1.0000
  H   H2129     1.0  0.50188  0.10421  0.90969  1.0000
  C   C1241     1.0  0.71984  0.15614  0.73883  1.0000
  H   H2130     1.0  0.73984  0.26614  0.85199  1.0000
  C   C1242     1.0  0.51833  0.15875  0.84803  1.0000
  H   H2131     1.0  0.52018  0.17538  0.92051  1.0000
  H   H2132     1.0  0.52131  0.12870  0.88636  1.0000
  H   H2133     1.0  0.60838  0.00932  0.95826  1.0000
  S   S359      1.0  0.54078  0.47508  0.94710  1.0000
  C   C1243     1.0  0.67064  0.16501  0.71870  1.0000
  C   C1244     1.0  0.57083  0.19285  0.77926  1.0000
  H   H2134     1.0  0.54206  0.44173  0.90495  1.0000
  C   C1245     1.0  0.70530  0.32040  0.84858  1.0000
  H   H2135     1.0  0.69633  0.17871  0.71981  1.0000
  C   C1246     1.0  0.50656  0.12466  0.88618  1.0000
  S   S360      1.0  0.54817  0.08850  0.98171  1.0000
  H   H2136     1.0  0.70739  0.31575  0.83411  1.0000
  H   H2137     1.0  0.52731  0.15641  0.90569  1.0000
  H   H2138     1.0  0.69887  0.00599  0.76031  1.0000
  Fe  Fe183     1.0  0.60628  0.48996  0.95838  1.0000
  H   H2139     1.0  0.71550  0.28350  0.82619  1.0000
  H   H2140     1.0  0.55473  0.15892  0.77708  1.0000
  C   C1247     1.0  0.54654  0.16978  0.78520  1.0000
  H   H2141     1.0  0.52844  0.42284  0.90221  1.0000
  H   H2142     1.0  0.72123  0.17147  0.74025  1.0000
  C   C1248     1.0  0.67367  0.02485  0.78132  1.0000
  H   H2143     1.0  0.64757  0.01516  0.75528  1.0000
  H   H2144     1.0  0.54632  0.46585  0.98753  1.0000
  C   C1249     1.0  0.61217  0.02798  0.67808  1.0000
  H   H2145     1.0  0.56341  0.48047  0.99379  1.0000
  H   H2146     1.0  0.58112  0.00884  0.67178  1.0000
  C   C1250     1.0  0.53555  0.03567  0.99711  1.0000
  C   C1251     1.0  0.54832  0.47773  0.99614  1.0000
  H   H2147     1.0  0.53971  0.49016  0.98979  1.0000
  H   H2148     1.0  0.74784  0.15143  0.72452  1.0000
  H   H2149     1.0  0.74608  0.30603  0.88706  1.0000
  C   C1252     1.0  0.74719  0.29031  0.88769  1.0000
  H   H2150     1.0  0.74933  0.28818  0.84933  1.0000
  C   C1253     1.0  0.50301  0.47272  0.94288  1.0000
  H   H2151     1.0  0.53256  0.49623  0.91078  1.0000
  S   S361      1.0  0.62200  0.50057  0.93167  1.0000
  C   C1254     1.0  0.69106  0.34034  0.99794  1.0000
  Fe  Fe184     1.0  0.57300  0.08960  0.99919  1.0000
  H   H2152     1.0  0.63162  0.00917  0.94573  1.0000
  H   H2153     1.0  0.62457  0.05574  0.67095  1.0000
  H   H2154     1.0  0.50305  0.46440  0.95642  1.0000
  S   S362      1.0  0.58262  0.49766  0.91059  1.0000
  C   C1255     1.0  0.50277  0.49377  0.90775  1.0000
  H   H2155     1.0  0.67282  0.14102  0.00044  1.0000
  H   H2156     1.0  0.75031  0.42074  0.87600  1.0000
  H   H2157     1.0  0.75027  0.28515  0.90248  1.0000
  C   C1256     1.0  0.58484  0.00381  0.00119  1.0000
  H   H2158     1.0  0.51481  0.98544  0.02532  1.0000
  H   H2159     1.0  0.61465  0.50384  0.04878  1.0000
  H   H2160     1.0  0.68923  0.92043  0.21580  1.0000
  Fe  Fe185     1.0  0.59924  0.51975  0.11473  1.0000
  S   S363      1.0  0.60428  0.54237  0.13402  1.0000
  H   H2161     1.0  0.69854  0.90817  0.25783  1.0000
  S   S364      1.0  0.57539  0.91719  0.03863  1.0000
  H   H2162     1.0  0.69694  0.54656  0.15252  1.0000
  Fe  Fe186     1.0  0.60272  0.89949  0.03372  1.0000
  S   S365      1.0  0.61986  0.88938  0.05893  1.0000
  H   H2163     1.0  0.57055  0.73737  0.23861  1.0000
  S   S366      1.0  0.63634  0.90551  0.30231  1.0000
  H   H2164     1.0  0.59375  0.86502  0.28293  1.0000
  S   S367      1.0  0.68148  0.89454  0.30559  1.0000
  H   H2165     1.0  0.57581  0.88355  0.32856  1.0000
  Fe  Fe187     1.0  0.66157  0.92084  0.30750  1.0000
  S   S368      1.0  0.66447  0.94942  0.29058  1.0000
  Fe  Fe188     1.0  0.65534  0.87887  0.30311  1.0000
  S   S369      1.0  0.65333  0.85532  0.28323  1.0000
  H   H2166     1.0  0.53669  0.51135  0.01607  1.0000
  Fe  Fe189     1.0  0.59136  0.81993  0.14922  1.0000
  S   S370      1.0  0.58678  0.78892  0.15559  1.0000
  S   S371      1.0  0.58123  0.83113  0.12045  1.0000
  Fe  Fe190     1.0  0.60444  0.82378  0.18939  1.0000
  S   S372      1.0  0.60078  0.79291  0.19815  1.0000
  S   S373      1.0  0.60982  0.84710  0.20859  1.0000
  Fe  Fe191     1.0  0.61441  0.78701  0.16919  1.0000
  S   S374      1.0  0.63875  0.76435  0.16409  1.0000
  Fe  Fe192     1.0  0.57342  0.79741  0.18344  1.0000
  S   S375      1.0  0.54566  0.78799  0.19780  1.0000
  S   S376      1.0  0.61996  0.81775  0.16121  1.0000
  S   S377      1.0  0.57617  0.82843  0.17631  1.0000
  Fe  Fe193     1.0  0.67951  0.62224  0.10946  1.0000
  S   S378      1.0  0.71027  0.62549  0.10095  1.0000
  S   S379      1.0  0.67284  0.59215  0.10539  1.0000
  Fe  Fe194     1.0  0.67212  0.66458  0.11705  1.0000
  S   S380      1.0  0.70251  0.67039  0.10883  1.0000
  S   S381      1.0  0.64721  0.68648  0.12375  1.0000
  Fe  Fe195     1.0  0.69993  0.65237  0.08446  1.0000
  S   S382      1.0  0.71094  0.65980  0.05384  1.0000
  Fe  Fe196     1.0  0.71034  0.64264  0.12595  1.0000
  S   S383      1.0  0.73037  0.63578  0.15015  1.0000
  S   S384      1.0  0.66926  0.64824  0.09155  1.0000
  S   S385      1.0  0.67989  0.63779  0.13557  1.0000
  H   H2167     1.0  0.67309  0.77187  0.08512  1.0000
  H   H2168     1.0  0.61796  0.72352  0.21417  1.0000
  C   C1257     1.0  0.68958  0.63577  0.03700  1.0000
  C   C1258     1.0  0.70395  0.64827  0.03460  1.0000
  C   C1259     1.0  0.71252  0.65228  0.01632  1.0000
  C   C1260     1.0  0.70799  0.55303  0.11572  1.0000
  H   H2169     1.0  0.57286  0.76209  0.23318  1.0000
  H   H2170     1.0  0.68301  0.63248  0.05100  1.0000
  H   H2171     1.0  0.72379  0.66177  0.01436  1.0000
  C   C1261     1.0  0.68486  0.94002  0.23754  1.0000
  H   H2172     1.0  0.73318  0.60059  0.13016  1.0000
  H   H2173     1.0  0.62889  0.82818  0.08961  1.0000
  C   C1262     1.0  0.69421  0.89851  0.24770  1.0000
  H   H2174     1.0  0.63071  0.73384  0.19404  1.0000
  C   C1263     1.0  0.64066  0.74267  0.15291  1.0000
  C   C1264     1.0  0.65797  0.73148  0.15275  1.0000
  C   C1265     1.0  0.66033  0.71439  0.14379  1.0000
  C   C1266     1.0  0.64534  0.70818  0.13490  1.0000
  C   C1267     1.0  0.62804  0.71947  0.13496  1.0000
  C   C1268     1.0  0.62574  0.73665  0.14377  1.0000
  H   H2175     1.0  0.66969  0.73603  0.15962  1.0000
  H   H2176     1.0  0.67372  0.70594  0.14388  1.0000
  H   H2177     1.0  0.61638  0.71490  0.12803  1.0000
  H   H2178     1.0  0.61250  0.74527  0.14335  1.0000
  C   C1269     1.0  0.52478  0.78736  0.18571  1.0000
  C   C1270     1.0  0.52555  0.78332  0.16674  1.0000
  C   C1271     1.0  0.56332  0.70480  0.21970  1.0000
  H   H2179     1.0  0.53910  0.78118  0.15895  1.0000
  H   H2180     1.0  0.57812  0.75990  0.19997  1.0000
  H   H2181     1.0  0.65195  0.58620  0.07253  1.0000
  H   H2182     1.0  0.60090  0.74553  0.17918  1.0000
  C   C1272     1.0  0.62127  0.84849  0.22998  1.0000
  C   C1273     1.0  0.63395  0.83399  0.23730  1.0000
  C   C1274     1.0  0.64346  0.83632  0.25364  1.0000
  C   C1275     1.0  0.64040  0.85306  0.26300  1.0000
  C   C1276     1.0  0.62739  0.86738  0.25598  1.0000
  C   C1277     1.0  0.61799  0.86513  0.23955  1.0000
  H   H2183     1.0  0.63669  0.82113  0.23017  1.0000
  H   H2184     1.0  0.65342  0.82507  0.25895  1.0000
  H   H2185     1.0  0.62461  0.88019  0.26313  1.0000
  H   H2186     1.0  0.60817  0.87642  0.23410  1.0000
  C   C1278     1.0  0.66468  0.98790  0.29366  1.0000
  C   C1279     1.0  0.66861  0.96952  0.30240  1.0000
  H   H2187     1.0  0.54636  0.51163  0.13255  1.0000
  H   H2188     1.0  0.61154  0.83464  0.28960  1.0000
  C   C1280     1.0  0.60596  0.86043  0.31875  1.0000
  C   C1281     1.0  0.50872  0.78162  0.15795  1.0000
  C   C1282     1.0  0.60913  0.87335  0.07620  1.0000
  C   C1283     1.0  0.59364  0.86392  0.07207  1.0000
  C   C1284     1.0  0.58549  0.85089  0.08572  1.0000
  C   C1285     1.0  0.59239  0.84746  0.10383  1.0000
  C   C1286     1.0  0.60781  0.85696  0.10810  1.0000
  C   C1287     1.0  0.61629  0.86971  0.09423  1.0000
  H   H2189     1.0  0.58804  0.86654  0.05825  1.0000
  H   H2190     1.0  0.57381  0.84341  0.08210  1.0000
  H   H2191     1.0  0.61313  0.85458  0.12206  1.0000
  H   H2192     1.0  0.62824  0.87701  0.09753  1.0000
  H   H2193     1.0  0.52763  0.81559  0.08850  1.0000
  H   H2194     1.0  0.60779  0.59811  0.07711  1.0000
  H   H2195     1.0  0.71280  0.53888  0.12239  1.0000
  H   H2196     1.0  0.61537  0.74906  0.20769  1.0000
  H   H2197     1.0  0.67501  0.94374  0.24971  1.0000
  C   C1288     1.0  0.63932  0.61231  0.05950  1.0000
  C   C1289     1.0  0.62373  0.55609  0.12713  1.0000
  C   C1290     1.0  0.62386  0.57457  0.13274  1.0000
  C   C1291     1.0  0.63894  0.58589  0.12654  1.0000
  C   C1292     1.0  0.65400  0.57865  0.11480  1.0000
  C   C1293     1.0  0.65402  0.56005  0.10963  1.0000
  C   C1294     1.0  0.63904  0.54882  0.11582  1.0000
  H   H2198     1.0  0.61213  0.58027  0.14163  1.0000
  H   H2199     1.0  0.63879  0.60021  0.13063  1.0000
  H   H2200     1.0  0.66562  0.55430  0.10061  1.0000
  H   H2201     1.0  0.63945  0.53445  0.11191  1.0000
  H   H2202     1.0  0.61486  0.86732  0.30693  1.0000
  N   N90       1.0  0.54970  0.50968  0.16275  1.0000
  H   H2203     1.0  0.55776  0.74815  0.20818  1.0000
  H   H2204     1.0  0.63926  0.58633  0.02251  1.0000
  C   C1295     1.0  0.52130  0.80949  0.10223  1.0000
  H   H2205     1.0  0.56023  0.87808  0.31182  1.0000
  H   H2206     1.0  0.70558  0.89837  0.23600  1.0000
  H   H2207     1.0  0.61905  0.81555  0.07222  1.0000
  C   C1296     1.0  0.53975  0.51796  0.14543  1.0000
  C   C1297     1.0  0.52813  0.81851  0.11920  1.0000
  H   H2208     1.0  0.60777  0.59887  0.04416  1.0000
  H   H2209     1.0  0.60613  0.72053  0.18043  1.0000
  H   H2210     1.0  0.66745  0.71360  0.00544  1.0000
  H   H2211     1.0  0.65282  0.53593  0.05199  1.0000
  H   H2212     1.0  0.66815  0.91528  0.26804  1.0000
  H   H2213     1.0  0.59084  0.71323  0.22399  1.0000
  Fe  Fe197     1.0  0.59065  0.51772  0.07417  1.0000
  H   H2214     1.0  0.68446  0.68512  0.02062  1.0000
  H   H2215     1.0  0.55577  0.73989  0.15789  1.0000
  C   C1298     1.0  0.69541  0.87849  0.25824  1.0000
  H   H2216     1.0  0.53181  0.84010  0.16854  1.0000
  C   C1299     1.0  0.66925  0.89049  0.22871  1.0000
  C   C1300     1.0  0.66130  0.90877  0.25688  1.0000
  C   C1301     1.0  0.65163  0.89552  0.21733  1.0000
  C   C1302     1.0  0.64290  0.92145  0.25311  1.0000
  H   H2217     1.0  0.66572  0.92908  0.22024  1.0000
  H   H2218     1.0  0.66606  0.87750  0.23804  1.0000
  H   H2219     1.0  0.65703  0.89497  0.26390  1.0000
  H   H2220     1.0  0.64902  0.88299  0.20985  1.0000
  H   H2221     1.0  0.65352  0.90733  0.20620  1.0000
  H   H2222     1.0  0.63872  0.89835  0.22662  1.0000
  H   H2223     1.0  0.63040  0.91356  0.25823  1.0000
  H   H2224     1.0  0.64094  0.92663  0.23823  1.0000
  H   H2225     1.0  0.64214  0.93405  0.26141  1.0000
  C   C1303     1.0  0.56908  0.72641  0.18284  1.0000
  C   C1304     1.0  0.56726  0.74258  0.16686  1.0000
  H   H2226     1.0  0.57402  0.71314  0.17608  1.0000
  H   H2227     1.0  0.55431  0.72453  0.18869  1.0000
  H   H2228     1.0  0.58035  0.74321  0.15739  1.0000
  H   H2229     1.0  0.60264  0.57524  0.04480  1.0000
  H   H2230     1.0  0.56338  0.75654  0.17247  1.0000
  H   H2231     1.0  0.67952  0.95346  0.32694  1.0000
  C   C1305     1.0  0.59972  0.52384  0.02936  1.0000
  C   C1306     1.0  0.54477  0.50840  0.19953  1.0000
  H   H2232     1.0  0.53593  0.99518  0.04372  1.0000
  C   C1307     1.0  0.70994  0.54414  0.16024  1.0000
  C   C1308     1.0  0.61683  0.84146  0.32554  1.0000
  H   H2233     1.0  0.50565  0.81060  0.10217  1.0000
  H   H2234     1.0  0.53908  0.53232  0.17996  1.0000
  H   H2235     1.0  0.73561  0.56221  0.11382  1.0000
  H   H2236     1.0  0.70621  0.54594  0.17548  1.0000
  H   H2237     1.0  0.65293  0.61910  0.05812  1.0000
  H   H2238     1.0  0.52315  0.51496  0.17949  1.0000
  H   H2239     1.0  0.55394  0.54465  0.13831  1.0000
  H   H2240     1.0  0.55676  0.69730  0.20912  1.0000
  H   H2241     1.0  0.70930  0.60340  0.16531  1.0000
  C   C1309     1.0  0.65121  0.55170  0.05078  1.0000
  C   C1310     1.0  0.59623  0.52898  0.01041  1.0000
  C   C1311     1.0  0.54742  0.51305  0.02619  1.0000
  H   H2242     1.0  0.54388  0.81646  0.11850  1.0000
  C   C1312     1.0  0.52341  0.99607  0.01698  1.0000
  H   H2243     1.0  0.66879  0.66968  0.01150  1.0000
  H   H2244     1.0  0.59825  0.89564  0.30043  1.0000
  H   H2245     1.0  0.66013  0.68595  0.02834  1.0000
  C   C1313     1.0  0.62457  0.58213  0.02407  1.0000
  H   H2246     1.0  0.56924  0.53126  0.16499  1.0000
  C   C1314     1.0  0.69201  0.63188  0.00293  1.0000
  H   H2247     1.0  0.66383  0.55648  0.05678  1.0000
  C   C1315     1.0  0.58473  0.50456  0.17216  1.0000
  H   H2248     1.0  0.52595  0.79412  0.10338  1.0000
  N   N91       1.0  0.58607  0.85943  0.31294  1.0000
  C   C1316     1.0  0.57550  0.87871  0.31414  1.0000
  H   H2249     1.0  0.54613  0.84626  0.10206  1.0000
  C   C1317     1.0  0.58626  0.85452  0.29270  1.0000
  H   H2250     1.0  0.71789  0.58094  0.10925  1.0000
  C   C1318     1.0  0.58279  0.89497  0.30033  1.0000
  C   C1319     1.0  0.57805  0.74781  0.22886  1.0000
  H   H2251     1.0  0.53203  0.54377  0.12795  1.0000
  H   H2252     1.0  0.59362  0.79083  0.11026  1.0000
  H   H2253     1.0  0.61097  0.82842  0.32204  1.0000
  H   H2254     1.0  0.63128  0.61805  0.04718  1.0000
  S   S386      1.0  0.61296  0.91900  0.00877  1.0000
  C   C1320     1.0  0.60330  0.98347  0.02328  1.0000
  H   H2255     1.0  0.57153  0.85515  0.28814  1.0000
  H   H2256     1.0  0.71478  0.52891  0.15957  1.0000
  C   C1321     1.0  0.52852  0.83237  0.15643  1.0000
  H   H2257     1.0  0.70809  0.55170  0.10024  1.0000
  H   H2258     1.0  0.55517  0.52559  0.02065  1.0000
  H   H2259     1.0  0.57881  0.89390  0.28567  1.0000
  H   H2260     1.0  0.57615  0.90871  0.30484  1.0000
  H   H2261     1.0  0.59024  0.57516  0.09705  1.0000
  H   H2262     1.0  0.67244  0.61810  0.02327  1.0000
  S   S387      1.0  0.61773  0.51504  0.08846  1.0000
  H   H2263     1.0  0.70048  0.59689  0.13423  1.0000
  H   H2264     1.0  0.60892  0.76966  0.10958  1.0000
  H   H2265     1.0  0.69071  0.57583  0.14301  1.0000
  H   H2266     1.0  0.69505  0.86724  0.24843  1.0000
  H   H2267     1.0  0.59332  0.74596  0.23106  1.0000
  H   H2268     1.0  0.58758  0.57142  0.07291  1.0000
  H   H2269     1.0  0.54418  0.84914  0.13550  1.0000
  C   C1322     1.0  0.67014  0.68411  0.01575  1.0000
  H   H2270     1.0  0.69938  0.93701  0.24234  1.0000
  H   H2271     1.0  0.68406  0.87690  0.26963  1.0000
  H   H2272     1.0  0.63994  0.78929  0.07505  1.0000
  H   H2273     1.0  0.68102  0.88606  0.21840  1.0000
  H   H2274     1.0  0.67905  0.76831  0.10975  1.0000
  C   C1323     1.0  0.72143  0.56813  0.11904  1.0000
  N   N92       1.0  0.62662  0.57908  0.06066  1.0000
  H   H2275     1.0  0.70908  0.87597  0.26504  1.0000
  N   N93       1.0  0.58163  0.72951  0.19837  1.0000
  S   S388      1.0  0.53756  0.88457  0.02813  1.0000
  H   H2276     1.0  0.50944  0.77812  0.14339  1.0000
  H   H2277     1.0  0.62315  0.58237  0.09079  1.0000
  H   H2278     1.0  0.63536  0.55303  0.07713  1.0000
  H   H2279     1.0  0.63924  0.76394  0.09771  1.0000
  C   C1324     1.0  0.61164  0.50773  0.03419  1.0000
  C   C1325     1.0  0.53854  0.51671  0.17994  1.0000
  H   H2280     1.0  0.53964  0.82049  0.15535  1.0000
  C   C1326     1.0  0.53064  0.85016  0.10357  1.0000
  H   H2281     1.0  0.69314  0.55685  0.12053  1.0000
  C   C1327     1.0  0.70295  0.58414  0.14437  1.0000
  H   H2282     1.0  0.52489  0.84665  0.09027  1.0000
  N   N94       1.0  0.72162  0.57355  0.13907  1.0000
  C   C1328     1.0  0.61440  0.58332  0.07835  1.0000
  H   H2283     1.0  0.59036  0.69975  0.20439  1.0000
  H   H2284     1.0  0.60308  0.55549  0.08725  1.0000
  C   C1329     1.0  0.67626  0.96749  0.32011  1.0000
  H   H2285     1.0  0.56038  0.84542  0.32091  1.0000
  H   H2286     1.0  0.55560  0.51687  0.20448  1.0000
  C   C1330     1.0  0.61479  0.58427  0.04393  1.0000
  H   H2287     1.0  0.62415  0.56737  0.02019  1.0000
  Fe  Fe198     1.0  0.58449  0.93509  0.01225  1.0000
  H   H2288     1.0  0.62308  0.99756  0.03776  1.0000
  H   H2289     1.0  0.60689  0.96961  0.03034  1.0000
  H   H2290     1.0  0.68583  0.59622  0.16760  1.0000
  H   H2291     1.0  0.58072  0.50220  0.18745  1.0000
  H   H2292     1.0  0.63150  0.84107  0.31890  1.0000
  H   H2293     1.0  0.70467  0.57983  0.17558  1.0000
  H   H2294     1.0  0.56547  0.69446  0.23223  1.0000
  H   H2295     1.0  0.61696  0.59190  0.01355  1.0000
  H   H2296     1.0  0.73767  0.54690  0.14603  1.0000
  C   C1331     1.0  0.59608  0.83519  0.28807  1.0000
  H   H2297     1.0  0.58975  0.82307  0.29642  1.0000
  C   C1332     1.0  0.66892  0.76533  0.09943  1.0000
  C   C1333     1.0  0.56943  0.51644  0.16096  1.0000
  C   C1334     1.0  0.63285  0.55814  0.06219  1.0000
  C   C1335     1.0  0.68365  0.62764  0.02126  1.0000
  S   S389      1.0  0.59127  0.87939  0.01553  1.0000
  C   C1336     1.0  0.57352  0.74673  0.20808  1.0000
  C   C1337     1.0  0.61244  0.99932  0.02747  1.0000
  H   H2298     1.0  0.67025  0.74968  0.09875  1.0000
  C   C1338     1.0  0.58261  0.71166  0.21165  1.0000
  N   N95       1.0  0.64285  0.79259  0.10461  1.0000
  C   C1339     1.0  0.64836  0.77151  0.10610  1.0000
  C   C1340     1.0  0.62306  0.79526  0.11373  1.0000
  C   C1341     1.0  0.65622  0.80171  0.11591  1.0000
  C   C1342     1.0  0.64436  0.80005  0.08397  1.0000
  C   C1343     1.0  0.60788  0.78508  0.10503  1.0000
  C   C1344     1.0  0.65316  0.82335  0.11667  1.0000
  C   C1345     1.0  0.63232  0.81862  0.07828  1.0000
  H   H2299     1.0  0.61789  0.81038  0.11362  1.0000
  H   H2300     1.0  0.62289  0.79015  0.12905  1.0000
  H   H2301     1.0  0.65573  0.79517  0.13084  1.0000
  H   H2302     1.0  0.67110  0.79923  0.11013  1.0000
  H   H2303     1.0  0.65937  0.80226  0.07920  1.0000
  H   H2304     1.0  0.65363  0.58805  0.04764  1.0000
  H   H2305     1.0  0.64612  0.76540  0.12100  1.0000
  C   C1346     1.0  0.59797  0.57049  0.08389  1.0000
  H   H2306     1.0  0.63192  0.61666  0.07290  1.0000
  S   S390      1.0  0.57221  0.52442  0.09986  1.0000
  H   H2307     1.0  0.66306  0.82783  0.12650  1.0000
  H   H2308     1.0  0.63876  0.82803  0.12226  1.0000
  H   H2309     1.0  0.65658  0.83098  0.10265  1.0000
  H   H2310     1.0  0.64019  0.82692  0.06668  1.0000
  H   H2311     1.0  0.60863  0.78723  0.08936  1.0000
  H   H2312     1.0  0.51312  0.87747  0.10326  1.0000
  S   S391      1.0  0.57678  0.96664  0.00488  1.0000
  H   H2313     1.0  0.54037  0.51648  0.04007  1.0000
  H   H2314     1.0  0.53229  0.50875  0.20993  1.0000
  C   C1347     1.0  0.64359  0.59063  0.05999  1.0000
  H   H2315     1.0  0.62148  0.54972  0.05817  1.0000
  C   C1348     1.0  0.50253  0.87979  0.01742  1.0000
  H   H2316     1.0  0.65121  0.55642  0.03554  1.0000
  C   C1349     1.0  0.51937  0.88850  0.01264  1.0000
  H   H2317     1.0  0.59449  0.83335  0.27290  1.0000
  H   H2318     1.0  0.58091  0.83076  0.32512  1.0000
  C   C1350     1.0  0.58931  0.98573  0.01025  1.0000
  C   C1351     1.0  0.73672  0.58731  0.13926  1.0000
  H   H2319     1.0  0.65882  0.98962  0.27993  1.0000
  C   C1352     1.0  0.53950  0.53971  0.14110  1.0000
  C   C1353     1.0  0.68027  0.98361  0.32880  1.0000
  H   H2320     1.0  0.55330  0.71660  0.22424  1.0000
  H   H2321     1.0  0.50627  0.79289  0.21036  1.0000
  Fe  Fe199     1.0  0.56453  0.89819  0.01912  1.0000
  H   H2322     1.0  0.68517  0.95284  0.22734  1.0000
  C   C1354     1.0  0.67844  0.92345  0.22757  1.0000
  N   N96       1.0  0.67528  0.90555  0.24020  1.0000
  C   C1355     1.0  0.61685  0.73477  0.20238  1.0000
  C   C1356     1.0  0.50210  0.50446  0.08128  1.0000
  H   H2323     1.0  0.53167  0.54745  0.15246  1.0000
  C   C1357     1.0  0.70083  0.59112  0.16442  1.0000
  S   S392      1.0  0.58768  0.53628  0.04720  1.0000
  C   C1358     1.0  0.60112  0.73249  0.18915  1.0000
  N   N97       1.0  0.52176  0.83915  0.12071  1.0000
  H   H2324     1.0  0.53539  0.87820  0.09001  1.0000
  C   C1359     1.0  0.57493  0.84558  0.32575  1.0000
  H   H2325     1.0  0.55460  0.84485  0.00496  1.0000
  H   H2326     1.0  0.52356  0.80950  0.13196  1.0000
  H   H2327     1.0  0.53188  0.50735  0.08378  1.0000
  C   C1360     1.0  0.52904  0.84597  0.13818  1.0000
  C   C1361     1.0  0.52818  0.87200  0.10331  1.0000
  H   H2328     1.0  0.53494  0.87729  0.11516  1.0000
  H   H2329     1.0  0.58711  0.54152  0.00665  1.0000
  C   C1362     1.0  0.72635  0.55646  0.15265  1.0000
  Fe  Fe200     1.0  0.63251  0.90014  0.33395  1.0000
  H   H2330     1.0  0.59783  0.51228  0.17070  1.0000
  H   H2331     1.0  0.53192  0.98828  0.00596  1.0000
  H   H2332     1.0  0.73246  0.56098  0.16539  1.0000
  H   H2333     1.0  0.57514  0.51696  0.14591  1.0000
  H   H2334     1.0  0.60585  0.86974  0.33057  1.0000
  H   H2335     1.0  0.73753  0.59177  0.15377  1.0000
  H   H2336     1.0  0.52124  0.85956  0.14177  1.0000
  H   H2337     1.0  0.52470  0.51452  0.14643  1.0000
  H   H2338     1.0  0.51462  0.82661  0.16010  1.0000
  C   C1363     1.0  0.50702  0.78992  0.19564  1.0000
  H   H2339     1.0  0.55158  0.00067  0.02391  1.0000
  Fe  Fe201     1.0  0.53383  0.91338  0.61563  1.0000
  H   H2340     1.0  0.70719  0.86542  0.60253  1.0000
  S   S393      1.0  0.55722  0.92315  0.63175  1.0000
  S   S394      1.0  0.52707  0.88609  0.60467  1.0000
  C   C1364     1.0  0.57279  0.84940  0.34691  1.0000
  H   H2341     1.0  0.51508  0.85856  0.53738  1.0000
  H   H2342     1.0  0.56285  0.86196  0.34944  1.0000
  S   S395      1.0  0.52506  0.93128  0.58947  1.0000
  H   H2343     1.0  0.54601  0.96171  0.60347  1.0000
  C   C1365     1.0  0.50921  0.96994  0.62537  1.0000
  Fe  Fe202     1.0  0.51720  0.88813  0.41536  1.0000
  S   S396      1.0  0.65662  0.91718  0.33899  1.0000
  S   S397      1.0  0.54726  0.87510  0.41053  1.0000
  H   H2344     1.0  0.70520  0.85341  0.44975  1.0000
  H   H2345     1.0  0.52163  0.97312  0.56642  1.0000
  S   S398      1.0  0.50989  0.91403  0.43132  1.0000
  H   H2346     1.0  0.61815  0.98578  0.65899  1.0000
  C   C1366     1.0  0.55750  0.97120  0.57457  1.0000
  H   H2347     1.0  0.53397  0.97728  0.63796  1.0000
  C   C1367     1.0  0.70850  0.83947  0.40971  1.0000
  C   C1368     1.0  0.74714  0.88537  0.63462  1.0000
  H   H2348     1.0  0.52789  0.98630  0.53607  1.0000
  C   C1369     1.0  0.73480  0.88854  0.65076  1.0000
  H   H2349     1.0  0.61829  0.84068  0.34107  1.0000
  H   H2350     1.0  0.72330  0.89948  0.64994  1.0000
  C   C1370     1.0  0.71872  0.87005  0.36266  1.0000
  C   C1371     1.0  0.72005  0.85146  0.35733  1.0000
  C   C1372     1.0  0.53666  0.93847  0.47362  1.0000
  C   C1373     1.0  0.52726  0.95889  0.47214  1.0000
  C   C1374     1.0  0.52470  0.98458  0.57516  1.0000
  C   C1375     1.0  0.56239  0.88438  0.39165  1.0000
  C   C1376     1.0  0.55612  0.89958  0.37917  1.0000
  C   C1377     1.0  0.56845  0.90674  0.36432  1.0000
  C   C1378     1.0  0.58716  0.89886  0.36184  1.0000
  C   C1379     1.0  0.59345  0.88356  0.37421  1.0000
  C   C1380     1.0  0.58107  0.87633  0.38906  1.0000
  H   H2351     1.0  0.54181  0.90590  0.38106  1.0000
  H   H2352     1.0  0.60946  0.87278  0.62973  1.0000
  H   H2353     1.0  0.60783  0.87738  0.37241  1.0000
  H   H2354     1.0  0.58599  0.86457  0.39869  1.0000
  H   H2355     1.0  0.71948  0.81147  0.45386  1.0000
  C   C1381     1.0  0.63526  0.97965  0.35351  1.0000
  C   C1382     1.0  0.74886  0.85867  0.44680  1.0000
  H   H2356     1.0  0.70088  0.87254  0.65526  1.0000
  C   C1383     1.0  0.60832  0.91204  0.65390  1.0000
  C   C1384     1.0  0.57949  0.91181  0.63718  1.0000
  C   C1385     1.0  0.59057  0.92052  0.64894  1.0000
  C   C1386     1.0  0.61522  0.89481  0.64699  1.0000
  C   C1387     1.0  0.60421  0.88612  0.63511  1.0000
  C   C1388     1.0  0.58634  0.89453  0.63029  1.0000
  H   H2357     1.0  0.57196  0.97269  0.56773  1.0000
  H   H2358     1.0  0.57793  0.88773  0.62120  1.0000
  H   H2359     1.0  0.69277  0.83207  0.45198  1.0000
  C   C1389     1.0  0.52048  0.98250  0.63259  1.0000
  H   H2360     1.0  0.53065  0.96532  0.45749  1.0000
  C   C1390     1.0  0.54343  0.98696  0.53592  1.0000
  C   C1391     1.0  0.54889  0.99829  0.55192  1.0000
  N   N98       1.0  0.69396  0.85062  0.63820  1.0000
  C   C1392     1.0  0.67954  0.82789  0.61784  1.0000
  Fe  Fe203     1.0  0.51608  0.90451  0.57945  1.0000
  C   C1393     1.0  0.67893  0.84781  0.62502  1.0000
  H   H2361     1.0  0.56349  0.91857  0.35479  1.0000
  H   H2362     1.0  0.66455  0.85081  0.63208  1.0000
  H   H2363     1.0  0.72663  0.86083  0.42800  1.0000
  H   H2364     1.0  0.63993  0.99545  0.37664  1.0000
  H   H2365     1.0  0.58537  0.93389  0.65430  1.0000
  H   H2366     1.0  0.51230  0.99287  0.49790  1.0000
  H   H2367     1.0  0.51104  0.83524  0.60673  1.0000
  H   H2368     1.0  0.73154  0.86092  0.60658  1.0000
  H   H2369     1.0  0.68650  0.98181  0.34235  1.0000
  H   H2370     1.0  0.53191  0.92984  0.46289  1.0000
  H   H2371     1.0  0.53431  0.93118  0.48800  1.0000
  H   H2372     1.0  0.74720  0.79319  0.42046  1.0000
  N   N99       1.0  0.73459  0.83055  0.43380  1.0000
  H   H2373     1.0  0.56827  0.97228  0.60288  1.0000
  C   C1394     1.0  0.73319  0.87566  0.37297  1.0000
  C   C1395     1.0  0.71767  0.85453  0.60836  1.0000
  H   H2374     1.0  0.74479  0.89377  0.62139  1.0000
  H   H2375     1.0  0.68070  0.88709  0.61919  1.0000
  H   H2376     1.0  0.70153  0.83293  0.39870  1.0000
  H   H2377     1.0  0.67033  0.82844  0.60579  1.0000
  H   H2378     1.0  0.51107  0.83352  0.54003  1.0000
  H   H2379     1.0  0.52198  0.97858  0.58994  1.0000
  H   H2380     1.0  0.73260  0.82670  0.46463  1.0000
  C   C1396     1.0  0.51766  0.84498  0.54613  1.0000
  C   C1397     1.0  0.70512  0.83875  0.45644  1.0000
  C   C1398     1.0  0.69137  0.83653  0.65532  1.0000
  H   H2381     1.0  0.63825  0.97996  0.33793  1.0000
  H   H2382     1.0  0.71440  0.85238  0.40244  1.0000
  H   H2383     1.0  0.58650  0.85132  0.35265  1.0000
  H   H2384     1.0  0.54799  0.99432  0.52205  1.0000
  H   H2385     1.0  0.56743  0.94901  0.59561  1.0000
  H   H2386     1.0  0.56672  0.83711  0.35535  1.0000
  C   C1399     1.0  0.69140  0.88707  0.62975  1.0000
  H   H2387     1.0  0.67927  0.85803  0.61230  1.0000
  H   H2388     1.0  0.52461  0.96204  0.50993  1.0000
  C   C1400     1.0  0.55977  0.96332  0.59535  1.0000
  H   H2389     1.0  0.71927  0.84244  0.59936  1.0000
  H   H2390     1.0  0.67643  0.87174  0.65284  1.0000
  N   N100      1.0  0.54501  0.98938  0.57176  1.0000
  C   C1401     1.0  0.74977  0.84418  0.37312  1.0000
  C   C1402     1.0  0.72360  0.82632  0.45249  1.0000
  H   H2391     1.0  0.70581  0.88799  0.62282  1.0000
  H   H2392     1.0  0.72402  0.85386  0.63770  1.0000
  H   H2393     1.0  0.73424  0.82258  0.40510  1.0000
  H   H2394     1.0  0.51647  0.89054  0.48265  1.0000
  C   C1403     1.0  0.72417  0.82515  0.41753  1.0000
  H   H2395     1.0  0.61669  0.91889  0.66300  1.0000
  S   S399      1.0  0.60175  0.90838  0.34267  1.0000
  H   H2396     1.0  0.55203  0.95969  0.56736  1.0000
  H   H2397     1.0  0.69731  0.84347  0.42055  1.0000
  H   H2398     1.0  0.64520  0.96823  0.35970  1.0000
  C   C1404     1.0  0.51187  0.89927  0.52952  1.0000
  C   C1405     1.0  0.51120  0.84665  0.56721  1.0000
  Fe  Fe204     1.0  0.67532  0.88980  0.33724  1.0000
  H   H2399     1.0  0.53322  0.84156  0.54492  1.0000
  H   H2400     1.0  0.74325  0.79091  0.44615  1.0000
  C   C1406     1.0  0.74870  0.86291  0.37799  1.0000
  C   C1407     1.0  0.50978  0.89473  0.49598  1.0000
  H   H2401     1.0  0.51426  0.95523  0.62510  1.0000
  H   H2402     1.0  0.53521  0.88907  0.51102  1.0000
  S   S400      1.0  0.52560  0.89685  0.54958  1.0000
  H   H2403     1.0  0.52020  0.94761  0.40611  1.0000
  H   H2404     1.0  0.55220  0.93902  0.47073  1.0000
  S   S401      1.0  0.63723  0.88354  0.65339  1.0000
  H   H2405     1.0  0.69359  0.82174  0.65121  1.0000
  H   H2406     1.0  0.73233  0.88999  0.37715  1.0000
  H   H2407     1.0  0.71992  0.83685  0.66615  1.0000
  H   H2408     1.0  0.58011  0.99804  0.58013  1.0000
  H   H2409     1.0  0.67659  0.83813  0.66181  1.0000
  H   H2410     1.0  0.73604  0.82418  0.35879  1.0000
  C   C1408     1.0  0.73927  0.85099  0.43058  1.0000
  C   C1409     1.0  0.52037  0.89398  0.51207  1.0000
  S   S402      1.0  0.50529  0.91746  0.63105  1.0000
  C   C1410     1.0  0.69052  0.87020  0.64497  1.0000
  H   H2411     1.0  0.69398  0.82272  0.61273  1.0000
  H   H2412     1.0  0.70296  0.84028  0.47190  1.0000
  H   H2413     1.0  0.53502  0.96701  0.48119  1.0000
  C   C1411     1.0  0.52517  0.97355  0.41785  1.0000
  H   H2414     1.0  0.71761  0.81150  0.42137  1.0000
  H   H2415     1.0  0.71838  0.83194  0.63051  1.0000
  C   C1412     1.0  0.73540  0.83861  0.36266  1.0000
  H   H2416     1.0  0.70902  0.84686  0.34953  1.0000
  H   H2417     1.0  0.68813  0.90040  0.63675  1.0000
  H   H2418     1.0  0.62072  0.97546  0.35746  1.0000
  C   C1413     1.0  0.51745  0.99150  0.42227  1.0000
  C   C1414     1.0  0.51005  0.95789  0.51327  1.0000
  H   H2419     1.0  0.51764  0.83365  0.57494  1.0000
  H   H2420     1.0  0.67382  0.81749  0.62898  1.0000
  H   H2421     1.0  0.51824  0.85873  0.57192  1.0000
  C   C1415     1.0  0.71389  0.84739  0.62947  1.0000
  H   H2422     1.0  0.73954  0.85860  0.46003  1.0000
  S   S403      1.0  0.69865  0.88631  0.35840  1.0000
  H   H2423     1.0  0.55051  0.97243  0.53660  1.0000
  C   C1416     1.0  0.51414  0.96140  0.40969  1.0000
  H   H2424     1.0  0.53968  0.96903  0.42067  1.0000
  H   H2425     1.0  0.74866  0.85311  0.41741  1.0000
  H   H2426     1.0  0.51143  0.94565  0.52417  1.0000
  N   N101      1.0  0.50616  0.96077  0.47682  1.0000
  S   S404      1.0  0.65042  0.87238  0.33483  1.0000
  C   C1417     1.0  0.51027  0.99593  0.48265  1.0000
  C   C1418     1.0  0.63894  0.99864  0.36110  1.0000
  H   H2427     1.0  0.56421  0.00055  0.54916  1.0000
  H   H2428     1.0  0.54445  0.99847  0.60034  1.0000
  H   H2429     1.0  0.50301  0.95463  0.44789  1.0000
  H   H2430     1.0  0.52417  0.99732  0.47462  1.0000
  H   H2431     1.0  0.59865  0.00099  0.35847  1.0000
  H   H2432     1.0  0.50281  0.93601  0.49671  1.0000
  C   C1419     1.0  0.50949  0.00114  0.57184  1.0000
  H   H2433     1.0  0.66571  0.99308  0.74035  1.0000
  H   H2434     1.0  0.59504  0.86723  0.73881  1.0000
  H   H2435     1.0  0.55616  0.83953  0.92027  1.0000
  S   S405      1.0  0.59514  0.55115  0.92236  1.0000
  C   C1420     1.0  0.65271  0.67543  0.97072  1.0000
  H   H2436     1.0  0.63912  0.71362  0.96951  1.0000
  N   N102      1.0  0.54530  0.85539  0.95682  1.0000
  H   H2437     1.0  0.57037  0.86380  0.94007  1.0000
  C   C1421     1.0  0.63966  0.55014  0.97974  1.0000
  H   H2438     1.0  0.68717  0.98022  0.74631  1.0000
  H   H2439     1.0  0.55089  0.81631  0.92921  1.0000
  S   S406      1.0  0.60992  0.89603  0.96065  1.0000
  H   H2440     1.0  0.63437  0.53671  0.98655  1.0000
  C   C1422     1.0  0.60745  0.67106  0.86740  1.0000
  H   H2441     1.0  0.58900  0.84408  0.73385  1.0000
  C   C1423     1.0  0.54698  0.83157  0.93098  1.0000
  C   C1424     1.0  0.67639  0.99134  0.75110  1.0000
  S   S407      1.0  0.63756  0.90756  0.70211  1.0000
  H   H2442     1.0  0.69224  0.79125  0.80461  1.0000
  Fe  Fe205     1.0  0.69095  0.89301  0.69307  1.0000
  S   S408      1.0  0.67880  0.90582  0.72011  1.0000
  C   C1425     1.0  0.61651  0.62511  0.85868  1.0000
  Fe  Fe206     1.0  0.65510  0.88636  0.72033  1.0000
  S   S409      1.0  0.63767  0.86753  0.74215  1.0000
  Fe  Fe207     1.0  0.66185  0.92627  0.70023  1.0000
  S   S410      1.0  0.65043  0.95705  0.70346  1.0000
  S   S411      1.0  0.66840  0.87231  0.69495  1.0000
  H   H2443     1.0  0.56407  0.82968  0.98727  1.0000
  Fe  Fe208     1.0  0.61431  0.82323  0.85050  1.0000
  S   S412      1.0  0.59958  0.79918  0.84142  1.0000
  S   S413      1.0  0.63465  0.84144  0.83134  1.0000
  Fe  Fe209     1.0  0.59999  0.81450  0.89238  1.0000
  S   S414      1.0  0.58439  0.78967  0.88565  1.0000
  S   S415      1.0  0.59885  0.81957  0.92377  1.0000
  Fe  Fe210     1.0  0.61066  0.78177  0.86721  1.0000
  S   S416      1.0  0.62572  0.75232  0.86237  1.0000
  Fe  Fe211     1.0  0.57475  0.80909  0.86073  1.0000
  S   S417      1.0  0.54545  0.81603  0.84928  1.0000
  S   S418      1.0  0.62665  0.80546  0.87536  1.0000
  S   S419      1.0  0.58897  0.83433  0.86848  1.0000
  Fe  Fe212     1.0  0.71936  0.63187  0.91650  1.0000
  S   S420      1.0  0.69611  0.64099  0.89691  1.0000
  Fe  Fe213     1.0  0.59539  0.51901  0.92675  1.0000
  Fe  Fe214     1.0  0.69135  0.62920  0.95204  1.0000
  S   S421      1.0  0.66626  0.63707  0.93468  1.0000
  S   S422      1.0  0.68343  0.62182  0.98351  1.0000
  Fe  Fe215     1.0  0.68055  0.61786  0.91381  1.0000
  S   S423      1.0  0.66772  0.59639  0.89786  1.0000
  Fe  Fe216     1.0  0.68335  0.65982  0.91933  1.0000
  S   S424      1.0  0.66864  0.69001  0.91890  1.0000
  S   S425      1.0  0.70429  0.60788  0.93227  1.0000
  S   S426      1.0  0.70798  0.65266  0.93782  1.0000
  C   C1426     1.0  0.55204  0.85768  0.97616  1.0000
  C   C1427     1.0  0.63771  0.73526  0.87830  1.0000
  C   C1428     1.0  0.64738  0.71896  0.87121  1.0000
  C   C1429     1.0  0.65702  0.70503  0.88327  1.0000
  C   C1430     1.0  0.65693  0.70708  0.90271  1.0000
  C   C1431     1.0  0.64733  0.72341  0.90975  1.0000
  C   C1432     1.0  0.63784  0.73742  0.89767  1.0000
  H   H2444     1.0  0.64754  0.71721  0.85623  1.0000
  H   H2445     1.0  0.66480  0.69296  0.87746  1.0000
  H   H2446     1.0  0.64718  0.72527  0.92468  1.0000
  H   H2447     1.0  0.63051  0.74984  0.90338  1.0000
  C   C1433     1.0  0.52302  0.80734  0.85632  1.0000
  H   H2448     1.0  0.67936  0.72695  0.96833  1.0000
  C   C1434     1.0  0.52158  0.89963  0.99542  1.0000
  H   H2449     1.0  0.56234  0.89111  0.96032  1.0000
  C   C1435     1.0  0.52046  0.79333  0.87127  1.0000
  H   H2450     1.0  0.68052  0.67930  0.95848  1.0000
  C   C1436     1.0  0.66666  0.58026  0.96442  1.0000
  H   H2451     1.0  0.53247  0.78739  0.87894  1.0000
  C   C1437     1.0  0.63700  0.86083  0.76708  1.0000
  C   C1438     1.0  0.64978  0.86685  0.77892  1.0000
  C   C1439     1.0  0.64866  0.86098  0.79852  1.0000
  C   C1440     1.0  0.63474  0.84908  0.80664  1.0000
  C   C1441     1.0  0.62197  0.84305  0.79480  1.0000
  C   C1442     1.0  0.62313  0.84887  0.77519  1.0000
  H   H2452     1.0  0.66054  0.87601  0.77298  1.0000
  H   H2453     1.0  0.65867  0.86570  0.80748  1.0000
  H   H2454     1.0  0.61123  0.83386  0.80074  1.0000
  H   H2455     1.0  0.61318  0.84405  0.76624  1.0000
  C   C1443     1.0  0.66250  0.97810  0.70171  1.0000
  H   H2456     1.0  0.65884  0.94775  0.93315  1.0000
  H   H2457     1.0  0.67305  0.71130  0.95226  1.0000
  C   C1444     1.0  0.63181  0.95672  0.98146  1.0000
  H   H2458     1.0  0.69062  0.96454  0.69858  1.0000
  C   C1445     1.0  0.60785  0.87448  0.95049  1.0000
  C   C1446     1.0  0.60925  0.87418  0.93065  1.0000
  C   C1447     1.0  0.60700  0.85737  0.92216  1.0000
  C   C1448     1.0  0.60358  0.84066  0.93349  1.0000
  C   C1449     1.0  0.60275  0.84087  0.95332  1.0000
  C   C1450     1.0  0.60473  0.85770  0.96178  1.0000
  H   H2459     1.0  0.61181  0.88706  0.92179  1.0000
  H   H2460     1.0  0.60770  0.85740  0.90688  1.0000
  H   H2461     1.0  0.60033  0.82797  0.96220  1.0000
  H   H2462     1.0  0.60395  0.85766  0.97706  1.0000
  C   C1451     1.0  0.50723  0.81488  0.84648  1.0000
  H   H2463     1.0  0.74980  0.56449  0.87073  1.0000
  H   H2464     1.0  0.65693  0.97261  0.95196  1.0000
  C   C1452     1.0  0.67041  0.71498  0.96720  1.0000
  C   C1453     1.0  0.70479  0.83741  0.67129  1.0000
  H   H2465     1.0  0.56788  0.90577  0.70800  1.0000
  H   H2466     1.0  0.69921  0.71122  0.99142  1.0000
  Fe  Fe217     1.0  0.65208  0.89457  0.67697  1.0000
  H   H2467     1.0  0.54918  0.86943  0.92840  1.0000
  H   H2468     1.0  0.67161  0.53531  0.92854  1.0000
  C   C1454     1.0  0.61604  0.56300  0.91687  1.0000
  C   C1455     1.0  0.63184  0.55445  0.90716  1.0000
  C   C1456     1.0  0.64772  0.56477  0.90175  1.0000
  C   C1457     1.0  0.64820  0.58349  0.90648  1.0000
  C   C1458     1.0  0.63264  0.59188  0.91672  1.0000
  C   C1459     1.0  0.61652  0.58173  0.92167  1.0000
  H   H2469     1.0  0.63154  0.54012  0.90322  1.0000
  H   H2470     1.0  0.65962  0.55827  0.89363  1.0000
  H   H2471     1.0  0.63279  0.60633  0.92034  1.0000
  H   H2472     1.0  0.60430  0.58844  0.92911  1.0000
  C   C1460     1.0  0.64990  0.72398  0.96939  1.0000
  H   H2473     1.0  0.67597  0.66120  0.86530  1.0000
  C   C1461     1.0  0.57300  0.86711  0.71746  1.0000
  H   H2474     1.0  0.62272  0.78718  0.80558  1.0000
  C   C1462     1.0  0.58349  0.85903  0.73517  1.0000
  H   H2475     1.0  0.64757  0.73164  0.98240  1.0000
  C   C1463     1.0  0.62241  0.56182  0.97153  1.0000
  C   C1464     1.0  0.65182  0.99559  0.70300  1.0000
  C   C1465     1.0  0.66652  0.52405  0.93909  1.0000
  H   H2476     1.0  0.66306  0.95327  0.97858  1.0000
  H   H2477     1.0  0.64970  0.69993  0.99881  1.0000
  H   H2478     1.0  0.66276  0.62860  0.86869  1.0000
  H   H2479     1.0  0.63285  0.76395  0.81347  1.0000
  H   H2480     1.0  0.64394  0.55745  0.99174  1.0000
  H   H2481     1.0  0.59028  0.91894  0.72684  1.0000
  H   H2482     1.0  0.61192  0.88190  0.68898  1.0000
  H   H2483     1.0  0.58110  0.89794  0.73833  1.0000
  H   H2484     1.0  0.68260  0.77540  0.86184  1.0000
  C   C1466     1.0  0.62841  0.66514  0.86155  1.0000
  C   C1467     1.0  0.68223  0.97789  0.69951  1.0000
  H   H2485     1.0  0.65105  0.63501  0.84760  1.0000
  S   S427      1.0  0.58018  0.50938  0.95446  1.0000
  C   C1468     1.0  0.67594  0.75144  0.81047  1.0000
  C   C1469     1.0  0.52432  0.86049  0.95622  1.0000
  S   S428      1.0  0.57099  0.91740  0.99315  1.0000
  H   H2486     1.0  0.71337  0.64734  0.98661  1.0000
  H   H2487     1.0  0.74164  0.61807  0.87134  1.0000
  H   H2488     1.0  0.60137  0.66321  0.88023  1.0000
  H   H2489     1.0  0.50833  0.95570  0.96117  1.0000
  H   H2490     1.0  0.65284  0.66112  0.96558  1.0000
  H   H2491     1.0  0.62724  0.61692  0.84990  1.0000
  H   H2492     1.0  0.64463  0.51941  0.96145  1.0000
  H   H2493     1.0  0.63663  0.67768  0.86255  1.0000
  C   C1470     1.0  0.67302  0.53833  0.97661  1.0000
  H   H2494     1.0  0.62100  0.95894  0.99342  1.0000
  S   S429      1.0  0.72180  0.88046  0.68864  1.0000
  C   C1471     1.0  0.65067  0.53180  0.95304  1.0000
  H   H2495     1.0  0.63568  0.66386  0.91795  1.0000
  C   C1472     1.0  0.55526  0.86888  0.94246  1.0000
  C   C1473     1.0  0.62904  0.66192  0.90466  1.0000
  H   H2496     1.0  0.70658  0.71029  0.95509  1.0000
  C   C1474     1.0  0.63049  0.99066  0.97263  1.0000
  H   H2497     1.0  0.60088  0.52118  0.98183  1.0000
  H   H2498     1.0  0.54314  0.82485  0.96097  1.0000
  H   H2499     1.0  0.60603  0.68633  0.87007  1.0000
  H   H2500     1.0  0.60970  0.63699  0.84978  1.0000
  H   H2501     1.0  0.68783  0.75523  0.80015  1.0000
  H   H2502     1.0  0.67936  0.73655  0.81618  1.0000
  H   H2503     1.0  0.64596  0.68552  0.95996  1.0000
  H   H2504     1.0  0.66075  0.51352  0.93089  1.0000
  N   N103      1.0  0.67597  0.69817  0.98096  1.0000
  H   H2505     1.0  0.61314  0.63467  0.88662  1.0000
  N   N104      1.0  0.58389  0.87919  0.70251  1.0000
  H   H2506     1.0  0.63304  0.61898  0.88293  1.0000
  H   H2507     1.0  0.68405  0.51498  0.99572  1.0000
  H   H2508     1.0  0.62260  0.99177  0.98665  1.0000
  C   C1475     1.0  0.70662  0.64414  0.00056  1.0000
  H   H2509     1.0  0.54371  0.86959  0.98278  1.0000
  H   H2510     1.0  0.60680  0.97930  0.94525  1.0000
  C   C1476     1.0  0.59037  0.90337  0.72611  1.0000
  H   H2511     1.0  0.58402  0.88587  0.67212  1.0000
  H   H2512     1.0  0.50871  0.94274  0.98377  1.0000
  C   C1477     1.0  0.55483  0.88792  0.68235  1.0000
  C   C1478     1.0  0.67324  0.67977  0.97284  1.0000
  H   H2513     1.0  0.59809  0.94491  0.97337  1.0000
  H   H2514     1.0  0.51300  0.83352  0.96819  1.0000
  C   C1479     1.0  0.60371  0.51729  0.99642  1.0000
  H   H2515     1.0  0.59838  0.66974  0.85558  1.0000
  H   H2516     1.0  0.53446  0.90647  0.99170  1.0000
  H   H2517     1.0  0.61212  0.87225  0.71255  1.0000
  H   H2518     1.0  0.55970  0.87512  0.72247  1.0000
  H   H2519     1.0  0.65898  0.58129  0.97843  1.0000
  C   C1480     1.0  0.55497  0.88971  0.94735  1.0000
  C   C1481     1.0  0.60443  0.87215  0.69962  1.0000
  H   H2520     1.0  0.57319  0.85855  0.74775  1.0000
  H   H2521     1.0  0.65013  0.56888  0.94414  1.0000
  S   S430      1.0  0.67530  0.91460  0.67340  1.0000
  H   H2522     1.0  0.56590  0.83169  0.95306  1.0000
  H   H2523     1.0  0.60515  0.89757  0.72771  1.0000
  C   C1482     1.0  0.69113  0.99500  0.69874  1.0000
  H   H2524     1.0  0.54916  0.88397  0.66920  1.0000
  H   H2525     1.0  0.64264  0.93774  0.95019  1.0000
  H   H2526     1.0  0.61096  0.56319  0.98296  1.0000
  H   H2527     1.0  0.51966  0.85961  0.94176  1.0000
  H   H2528     1.0  0.63408  0.95013  0.92876  1.0000
  C   C1483     1.0  0.58277  0.89959  0.70717  1.0000
  H   H2529     1.0  0.50289  0.96814  0.98178  1.0000
  C   C1484     1.0  0.67403  0.76420  0.82707  1.0000
  H   H2530     1.0  0.66330  0.66712  0.84412  1.0000
  H   H2531     1.0  0.64110  0.80290  0.82294  1.0000
  H   H2532     1.0  0.60924  0.94232  0.94999  1.0000
  C   C1485     1.0  0.66519  0.69980  0.99997  1.0000
  N   N105      1.0  0.65621  0.54599  0.96579  1.0000
  H   H2533     1.0  0.50903  0.90982  0.96930  1.0000
  H   H2534     1.0  0.66991  0.98576  0.76486  1.0000
  H   H2535     1.0  0.66450  0.75735  0.83842  1.0000
  H   H2536     1.0  0.53193  0.83439  0.92785  1.0000
  C   C1486     1.0  0.64253  0.96938  0.94865  1.0000
  C   C1487     1.0  0.67083  0.51919  0.98848  1.0000
  C   C1488     1.0  0.60820  0.85210  0.69281  1.0000
  H   H2537     1.0  0.61654  0.55478  0.96020  1.0000
  H   H2538     1.0  0.62999  0.94230  0.97749  1.0000
  H   H2539     1.0  0.62402  0.67637  0.89894  1.0000
  H   H2540     1.0  0.52080  0.87545  0.95918  1.0000
  C   C1489     1.0  0.55057  0.83547  0.95139  1.0000
  H   H2541     1.0  0.60585  0.85226  0.67751  1.0000
  H   H2542     1.0  0.56282  0.89788  0.93564  1.0000
  H   H2543     1.0  0.66624  0.81029  0.83811  1.0000
  C   C1490     1.0  0.66948  0.65535  0.85366  1.0000
  C   C1491     1.0  0.64409  0.65265  0.89092  1.0000
  H   H2544     1.0  0.67204  0.79760  0.86887  1.0000
  C   C1492     1.0  0.66139  0.56363  0.95374  1.0000
  C   C1493     1.0  0.65500  0.64071  0.86067  1.0000
  C   C1494     1.0  0.57521  0.87875  0.68377  1.0000
  C   C1495     1.0  0.64431  0.95018  0.93984  1.0000
  H   H2545     1.0  0.61704  0.65308  0.90876  1.0000
  H   H2546     1.0  0.59036  0.90840  0.69566  1.0000
  H   H2547     1.0  0.56847  0.85451  0.71121  1.0000
  H   H2548     1.0  0.65742  0.78049  0.86184  1.0000
  H   H2549     1.0  0.59949  0.84163  0.70113  1.0000
  H   H2550     1.0  0.71107  0.68488  0.95963  1.0000
  H   H2551     1.0  0.68837  0.76289  0.83266  1.0000
  H   H2552     1.0  0.50906  0.82572  0.83489  1.0000
  H   H2553     1.0  0.64408  0.67492  0.98437  1.0000
  C   C1496     1.0  0.71031  0.69862  0.96596  1.0000
  H   H2554     1.0  0.54047  0.89666  0.94871  1.0000
  H   H2555     1.0  0.66282  0.59389  0.95610  1.0000
  N   N106      1.0  0.62835  0.97165  0.96533  1.0000
  C   C1497     1.0  0.67121  0.78668  0.85877  1.0000
  H   H2556     1.0  0.65545  0.81550  0.79505  1.0000
  C   C1498     1.0  0.63621  0.77863  0.80836  1.0000
  H   H2557     1.0  0.68602  0.53681  0.96694  1.0000
  C   C1499     1.0  0.67059  0.81361  0.79811  1.0000
  H   H2558     1.0  0.56695  0.86161  0.97495  1.0000
  H   H2559     1.0  0.67342  0.82336  0.80872  1.0000
  H   H2560     1.0  0.67880  0.81809  0.78475  1.0000
  H   H2561     1.0  0.51343  0.85128  0.98508  1.0000
  H   H2562     1.0  0.62903  0.66305  0.84615  1.0000
  H   H2563     1.0  0.64743  0.73471  0.95724  1.0000
  H   H2564     1.0  0.61087  0.99029  0.68326  1.0000
  H   H2565     1.0  0.65537  0.66263  0.88881  1.0000
  H   H2566     1.0  0.68210  0.57928  0.96635  1.0000
  H   H2567     1.0  0.60544  0.61528  0.86365  1.0000
  H   H2568     1.0  0.63908  0.53809  0.94422  1.0000
  H   H2569     1.0  0.67991  0.66757  0.98151  1.0000
  N   N107      1.0  0.66746  0.78488  0.82288  1.0000
  H   H2570     1.0  0.66281  0.75152  0.80309  1.0000
  C   C1500     1.0  0.67384  0.79589  0.83822  1.0000
  H   H2571     1.0  0.63991  0.78192  0.83734  1.0000
  C   C1501     1.0  0.64618  0.78764  0.82344  1.0000
  H   H2572     1.0  0.67355  0.78461  0.79232  1.0000
  H   H2573     1.0  0.65051  0.63960  0.89862  1.0000
  H   H2574     1.0  0.59823  0.97917  0.96940  1.0000
  H   H2575     1.0  0.64418  0.77877  0.79441  1.0000
  H   H2576     1.0  0.68132  0.64812  0.84527  1.0000
  C   C1502     1.0  0.67654  0.79270  0.80423  1.0000
  H   H2577     1.0  0.68913  0.79842  0.83576  1.0000
  H   H2578     1.0  0.67385  0.56048  0.94380  1.0000
  C   C1503     1.0  0.62504  0.63166  0.87612  1.0000
  N   N108      1.0  0.63762  0.64791  0.87229  1.0000
  H   H2579     1.0  0.64551  0.99234  0.97512  1.0000
  H   H2580     1.0  0.72483  0.70051  0.96989  1.0000
  C   C1504     1.0  0.60835  0.97151  0.95946  1.0000
  C   C1505     1.0  0.65143  0.95571  0.98957  1.0000
  H   H2581     1.0  0.63908  0.98019  0.93683  1.0000
  H   H2582     1.0  0.65916  0.52016  0.99970  1.0000
  H   H2583     1.0  0.62332  0.84726  0.69440  1.0000
  C   C1506     1.0  0.51131  0.84886  0.97021  1.0000
  H   H2584     1.0  0.62574  0.57641  0.96614  1.0000
  C   C1507     1.0  0.60037  0.95200  0.95889  1.0000
  H   H2585     1.0  0.50484  0.84975  0.88626  1.0000
  C   C1508     1.0  0.50719  0.90151  0.98276  1.0000
  Fe  Fe218     1.0  0.59886  0.90030  0.99096  1.0000
  C   C1509     1.0  0.55219  0.84021  0.99085  1.0000
  H   H2586     1.0  0.57483  0.86392  0.68003  1.0000
  H   H2587     1.0  0.54516  0.88306  0.69446  1.0000
  H   H2588     1.0  0.58624  0.95412  0.95298  1.0000
  C   C1510     1.0  0.50235  0.78680  0.87611  1.0000
  C   C1511     1.0  0.69674  0.69857  0.98400  1.0000
  H   H2589     1.0  0.67633  0.54860  0.98662  1.0000
  H   H2590     1.0  0.66863  0.50759  0.97961  1.0000
  H   H2591     1.0  0.55457  0.90365  0.68090  1.0000
  H   H2592     1.0  0.67182  0.99583  0.79469  1.0000
  H   H2593     1.0  0.70641  0.99467  0.69724  1.0000
  H   H2594     1.0  0.70302  0.82503  0.68186  1.0000
  H   H2595     1.0  0.53884  0.83311  0.99237  1.0000
  H   H2596     1.0  0.67855  0.51652  0.94642  1.0000
  H   H2597     1.0  0.63658  0.99580  0.70504  1.0000
  H   H2598     1.0  0.70124  0.85013  0.67911  1.0000
  H   H2599     1.0  0.70182  0.68603  0.99331  1.0000
  H   H2600     1.0  0.59694  0.97715  0.67017  1.0000
  C   C1512     1.0  0.73744  0.87768  0.66796  1.0000
  C   C1513     1.0  0.60590  0.98936  0.66897  1.0000
  H   H2601     1.0  0.50277  0.50186  0.89408  1.0000
  H   H2602     1.0  0.65344  0.96852  0.99681  1.0000
  H   H2603     1.0  0.65250  0.94349  0.00050  1.0000
  Fe  Fe219     1.0  0.98596  0.41054  0.10930  1.0000
  C   C1514     1.0  0.99105  0.41248  0.16845  1.0000
  S   S431      1.0  0.96056  0.42161  0.12754  1.0000
  H   H2604     1.0  0.87333  0.49352  0.17955  1.0000
  S   S432      1.0  0.99637  0.38028  0.10589  1.0000
  S   S433      1.0  0.88380  0.31661  0.31006  1.0000
  Fe  Fe220     1.0  0.86864  0.38808  0.18141  1.0000
  S   S434      1.0  0.87453  0.40683  0.20345  1.0000
  S   S435      1.0  0.89278  0.37378  0.16361  1.0000
  Fe  Fe221     1.0  0.82565  0.39326  0.18934  1.0000
  S   S436      1.0  0.82871  0.41296  0.21221  1.0000
  S   S437      1.0  0.79527  0.38733  0.18309  1.0000
  Fe  Fe222     1.0  0.85072  0.42656  0.19229  1.0000
  S   S438      1.0  0.85815  0.45723  0.18477  1.0000
  Fe  Fe223     1.0  0.85244  0.39201  0.22221  1.0000
  S   S439      1.0  0.85807  0.38870  0.25389  1.0000
  S   S440      1.0  0.84610  0.40854  0.16877  1.0000
  S   S441      1.0  0.84801  0.37144  0.20078  1.0000
  C   C1515     1.0  0.78334  0.37814  0.16493  1.0000
  C   C1516     1.0  0.79308  0.36965  0.14965  1.0000
  C   C1517     1.0  0.78308  0.36206  0.13597  1.0000
  C   C1518     1.0  0.76339  0.37902  0.16614  1.0000
  H   H2605     1.0  0.80830  0.36882  0.14855  1.0000
  H   H2606     1.0  0.79086  0.35540  0.12436  1.0000
  H   H2607     1.0  0.89025  0.44169  0.28805  1.0000
  C   C1519     1.0  0.77250  0.28724  0.17067  1.0000
  C   C1520     1.0  0.85041  0.47902  0.19438  1.0000
  C   C1521     1.0  0.83436  0.48100  0.20691  1.0000
  H   H2608     1.0  0.88478  0.47157  0.24529  1.0000
  H   H2609     1.0  0.75325  0.34239  0.18721  1.0000
  H   H2610     1.0  0.82568  0.46919  0.21036  1.0000
  C   C1522     1.0  0.87740  0.33699  0.29450  1.0000
  C   C1523     1.0  0.87673  0.35548  0.29998  1.0000
  C   C1524     1.0  0.87087  0.37107  0.28734  1.0000
  C   C1525     1.0  0.86583  0.36846  0.26899  1.0000
  C   C1526     1.0  0.86666  0.34997  0.26346  1.0000
  C   C1527     1.0  0.87228  0.33437  0.27618  1.0000
  H   H2611     1.0  0.88056  0.35777  0.31400  1.0000
  H   H2612     1.0  0.87025  0.38526  0.29184  1.0000
  H   H2613     1.0  0.86280  0.34768  0.24945  1.0000
  H   H2614     1.0  0.87272  0.32017  0.27175  1.0000
  H   H2615     1.0  0.76533  0.31944  0.18955  1.0000
  H   H2616     1.0  0.75263  0.27939  0.13866  1.0000
  C   C1528     1.0  0.91141  0.38727  0.15339  1.0000
  C   C1529     1.0  0.92551  0.37894  0.14114  1.0000
  C   C1530     1.0  0.94049  0.38937  0.13281  1.0000
  C   C1531     1.0  0.94159  0.40814  0.13687  1.0000
  C   C1532     1.0  0.92738  0.41649  0.14895  1.0000
  C   C1533     1.0  0.91231  0.40615  0.15711  1.0000
  H   H2617     1.0  0.92484  0.36438  0.13807  1.0000
  H   H2618     1.0  0.95115  0.38292  0.12323  1.0000
  H   H2619     1.0  0.92805  0.43104  0.15209  1.0000
  H   H2620     1.0  0.90147  0.41279  0.16638  1.0000
  H   H2621     1.0  0.82342  0.42696  0.25068  1.0000
  S   S442      1.0  0.98950  0.41969  0.07822  1.0000
  H   H2622     1.0  0.84165  0.45306  0.23524  1.0000
  C   C1534     1.0  0.84880  0.44234  0.24519  1.0000
  C   C1535     1.0  0.99931  0.35956  0.15928  1.0000
  N   N109      1.0  0.85950  0.37922  0.11438  1.0000
  C   C1536     1.0  0.87894  0.36903  0.11247  1.0000
  C   C1537     1.0  0.85110  0.37455  0.13424  1.0000
  C   C1538     1.0  0.86042  0.40042  0.11106  1.0000
  C   C1539     1.0  0.84751  0.37288  0.09989  1.0000
  C   C1540     1.0  0.89041  0.37312  0.09341  1.0000
  C   C1541     1.0  0.84581  0.35395  0.13913  1.0000
  C   C1542     1.0  0.87509  0.40901  0.12209  1.0000
  C   C1543     1.0  0.82675  0.38143  0.10025  1.0000
  H   H2623     1.0  0.88772  0.37216  0.12395  1.0000
  H   H2624     1.0  0.87807  0.35341  0.11431  1.0000
  H   H2625     1.0  0.83839  0.38414  0.13769  1.0000
  H   H2626     1.0  0.86103  0.37720  0.14477  1.0000
  H   H2627     1.0  0.86339  0.40485  0.09576  1.0000
  H   H2628     1.0  0.84639  0.40783  0.11489  1.0000
  H   H2629     1.0  0.85360  0.37684  0.08532  1.0000
  H   H2630     1.0  0.84772  0.35714  0.10050  1.0000
  H   H2631     1.0  0.90497  0.36626  0.09454  1.0000
  H   H2632     1.0  0.88430  0.36694  0.08167  1.0000
  H   H2633     1.0  0.89189  0.38844  0.08967  1.0000
  H   H2634     1.0  0.84041  0.35235  0.15426  1.0000
  H   H2635     1.0  0.83435  0.35038  0.13063  1.0000
  H   H2636     1.0  0.85821  0.34353  0.13768  1.0000
  H   H2637     1.0  0.87349  0.40499  0.13749  1.0000
  H   H2638     1.0  0.87312  0.42473  0.12010  1.0000
  H   H2639     1.0  0.88985  0.40494  0.11694  1.0000
  H   H2640     1.0  0.82557  0.39517  0.09141  1.0000
  H   H2641     1.0  0.82038  0.38370  0.11461  1.0000
  H   H2642     1.0  0.81778  0.37137  0.09473  1.0000
  C   C1544     1.0  0.98009  0.35407  0.15366  1.0000
  C   C1545     1.0  0.97324  0.43933  0.01212  1.0000
  H   H2643     1.0  0.84926  0.45504  0.28125  1.0000
  C   C1546     1.0  0.84344  0.48039  0.26238  1.0000
  C   C1547     1.0  0.76313  0.36290  0.13722  1.0000
  H   H2644     1.0  0.99972  0.35692  0.21302  1.0000
  H   H2645     1.0  0.88147  0.42353  0.25301  1.0000
  H   H2646     1.0  0.97802  0.48255  0.10593  1.0000
  C   C1548     1.0  0.97036  0.41989  0.02307  1.0000
  C   C1549     1.0  0.87563  0.46214  0.23908  1.0000
  C   C1550     1.0  0.82910  0.30825  0.32059  1.0000
  N   N110      1.0  0.86449  0.45053  0.25421  1.0000
  H   H2647     1.0  0.77759  0.30103  0.16495  1.0000
  H   H2648     1.0  0.85464  0.43086  0.23626  1.0000
  H   H2649     1.0  0.75845  0.31450  0.14482  1.0000
  C   C1551     1.0  0.87667  0.43426  0.26321  1.0000
  H   H2650     1.0  0.85551  0.25940  0.31705  1.0000
  C   C1552     1.0  0.85677  0.46323  0.26927  1.0000
  H   H2651     1.0  0.97315  0.36536  0.14418  1.0000
  H   H2652     1.0  0.98248  0.34133  0.14554  1.0000
  H   H2653     1.0  0.78030  0.28276  0.18352  1.0000
  N   N111      1.0  0.99850  0.37596  0.17148  1.0000
  H   H2654     1.0  0.85923  0.28362  0.30881  1.0000
  H   H2655     1.0  0.85114  0.49081  0.25274  1.0000
  H   H2656     1.0  0.82784  0.30828  0.30509  1.0000
  S   S443      1.0  0.99023  0.37579  0.05142  1.0000
  H   H2657     1.0  0.86597  0.47209  0.23057  1.0000
  C   C1553     1.0  0.88812  0.45081  0.22477  1.0000
  H   H2658     1.0  0.95770  0.42114  0.03317  1.0000
  H   H2659     1.0  0.87969  0.44150  0.21772  1.0000
  C   C1554     1.0  0.82489  0.28855  0.33043  1.0000
  H   H2660     1.0  0.95908  0.44570  0.00860  1.0000
  H   H2661     1.0  0.97521  0.39205  0.15762  1.0000
  C   C1555     1.0  0.83313  0.43391  0.25893  1.0000
  H   H2662     1.0  0.90005  0.44234  0.23144  1.0000
  H   H2663     1.0  0.89425  0.46083  0.21346  1.0000
  C   C1556     1.0  0.89401  0.43963  0.27287  1.0000
  H   H2664     1.0  0.82435  0.44499  0.26629  1.0000
  H   H2665     1.0  0.97588  0.37041  0.01577  1.0000
  C   C1557     1.0  0.98579  0.37304  0.18931  1.0000
  H   H2666     1.0  0.77704  0.27648  0.16052  1.0000
  H   H2667     1.0  0.86828  0.42594  0.27439  1.0000
  C   C1558     1.0  0.99067  0.48465  0.09678  1.0000
  H   H2668     1.0  0.90546  0.42804  0.27189  1.0000
  C   C1559     1.0  0.99046  0.37375  0.01299  1.0000
  C   C1560     1.0  0.98971  0.35470  0.20228  1.0000
  H   H2669     1.0  0.86851  0.46920  0.27575  1.0000
  H   H2670     1.0  0.81699  0.49978  0.22454  1.0000
  H   H2671     1.0  0.83878  0.42286  0.26949  1.0000
  H   H2672     1.0  0.97039  0.35038  0.16617  1.0000
  H   H2673     1.0  0.90017  0.45253  0.26601  1.0000
  C   C1561     1.0  0.86261  0.27199  0.31986  1.0000
  C   C1562     1.0  0.86098  0.49484  0.18934  1.0000
  H   H2674     1.0  0.75562  0.38558  0.17783  1.0000
  H   H2675     1.0  0.83134  0.47619  0.25516  1.0000
  H   H2676     1.0  0.97058  0.37407  0.18616  1.0000
  H   H2677     1.0  0.96813  0.40884  0.01363  1.0000
  H   H2678     1.0  0.97620  0.35062  0.20985  1.0000
  H   H2679     1.0  0.84353  0.31231  0.32244  1.0000
  H   H2680     1.0  0.94765  0.50040  0.11842  1.0000
  H   H2681     1.0  0.87811  0.26841  0.31799  1.0000
  H   H2682     1.0  0.97784  0.44863  0.02248  1.0000
  H   H2683     1.0  0.98281  0.41299  0.18228  1.0000
  H   H2684     1.0  0.82595  0.27830  0.31943  1.0000
  C   C1563     1.0  0.99034  0.39328  0.15997  1.0000
  H   H2685     1.0  0.75354  0.12372  0.33184  1.0000
  H   H2686     1.0  0.98651  0.38484  0.19844  1.0000
  H   H2687     1.0  0.83749  0.48791  0.27477  1.0000
  H   H2688     1.0  0.99500  0.34227  0.19464  1.0000
  H   H2689     1.0  0.76408  0.33278  0.16650  1.0000
  H   H2690     1.0  0.92252  0.49691  0.11813  1.0000
  H   H2691     1.0  0.98250  0.41511  0.03175  1.0000
  H   H2692     1.0  0.81844  0.31936  0.32555  1.0000
  S   S444      1.0  0.75140  0.35225  0.11989  1.0000
  C   C1564     1.0  0.82936  0.49842  0.21477  1.0000
  H   H2693     1.0  0.98450  0.42391  0.15873  1.0000
  H   H2694     1.0  0.75364  0.10528  0.28812  1.0000
  H   H2695     1.0  0.75235  0.29749  0.11932  1.0000
  C   C1565     1.0  0.75335  0.37155  0.15240  1.0000
  H   H2696     1.0  0.99723  0.45487  0.09444  1.0000
  H   H2697     1.0  0.99773  0.39466  0.14560  1.0000
  C   C1566     1.0  0.75624  0.32901  0.18018  1.0000
  H   H2698     1.0  0.82665  0.24774  0.33171  1.0000
  H   H2699     1.0  0.93747  0.49779  0.09692  1.0000
  C   C1567     1.0  0.00108  0.37697  0.02814  1.0000
  Fe  Fe224     1.0  0.91085  0.42282  0.49941  1.0000
  S   S445      1.0  0.93565  0.41813  0.51727  1.0000
  S   S446      1.0  0.89966  0.45182  0.48696  1.0000
  Fe  Fe225     1.0  0.91058  0.38031  0.49448  1.0000
  S   S447      1.0  0.93554  0.37231  0.51205  1.0000
  S   S448      1.0  0.89586  0.35822  0.48110  1.0000
  Fe  Fe226     1.0  0.92130  0.39306  0.53167  1.0000
  S   S449      1.0  0.92367  0.38949  0.56345  1.0000
  Fe  Fe227     1.0  0.94770  0.39785  0.49638  1.0000
  S   S450      1.0  0.97659  0.39855  0.48148  1.0000
  S   S451      1.0  0.89512  0.39934  0.51535  1.0000
  S   S452      1.0  0.92402  0.40423  0.47737  1.0000
  C   C1568     1.0  0.90917  0.07459  0.39605  1.0000
  H   H2700     1.0  0.95136  0.04854  0.39017  1.0000
  S   S453      1.0  0.87195  0.01884  0.39407  1.0000
  H   H2701     1.0  0.82157  0.07226  0.66509  1.0000
  S   S454      1.0  0.90510  0.04495  0.57515  1.0000
  C   C1569     1.0  0.96394  0.34767  0.61743  1.0000
  C   C1570     1.0  0.85395  0.12202  0.47657  1.0000
  H   H2702     1.0  0.84833  0.24094  0.34367  1.0000
  H   H2703     1.0  0.95068  0.25294  0.41320  1.0000
  Fe  Fe228     1.0  0.90573  0.30984  0.64140  1.0000
  S   S455      1.0  0.92507  0.28352  0.64001  1.0000
  S   S456      1.0  0.89108  0.32034  0.61487  1.0000
  H   H2704     1.0  0.94442  0.45828  0.52636  1.0000
  C   C1571     1.0  0.88303  0.22306  0.58473  1.0000
  H   H2705     1.0  0.79534  0.10364  0.60535  1.0000
  H   H2706     1.0  0.90003  0.24594  0.42141  1.0000
  H   H2707     1.0  0.84535  0.29096  0.37262  1.0000
  H   H2708     1.0  0.94877  0.48325  0.52497  1.0000
  Fe  Fe229     1.0  0.84515  0.13320  0.61318  1.0000
  S   S457      1.0  0.82379  0.13137  0.59191  1.0000
  S   S458      1.0  0.86062  0.10615  0.62567  1.0000
  Fe  Fe230     1.0  0.83613  0.17593  0.61616  1.0000
  S   S459      1.0  0.81352  0.17669  0.59520  1.0000
  S   S460      1.0  0.83988  0.20514  0.62666  1.0000
  Fe  Fe231     1.0  0.80435  0.14945  0.61075  1.0000
  S   S461      1.0  0.77377  0.14075  0.61339  1.0000
  Fe  Fe232     1.0  0.83437  0.15850  0.57808  1.0000
  S   S462      1.0  0.84163  0.16581  0.54652  1.0000
  S   S463      1.0  0.82520  0.14991  0.63298  1.0000
  S   S464      1.0  0.85754  0.15913  0.59806  1.0000
  Fe  Fe233     1.0  0.83339  0.12210  0.42090  1.0000
  S   S465      1.0  0.80397  0.12126  0.43414  1.0000
  S   S466      1.0  0.85461  0.09767  0.42930  1.0000
  Fe  Fe234     1.0  0.82648  0.16353  0.40562  1.0000
  S   S467      1.0  0.79615  0.16552  0.41832  1.0000
  S   S468      1.0  0.84266  0.18510  0.38573  1.0000
  Fe  Fe235     1.0  0.80812  0.14945  0.44437  1.0000
  S   S469      1.0  0.79731  0.15026  0.47549  1.0000
  Fe  Fe236     1.0  0.79385  0.13692  0.40729  1.0000
  H   H2709     1.0  0.85028  0.38477  0.62890  1.0000
  S   S470      1.0  0.83829  0.14955  0.43249  1.0000
  S   S471      1.0  0.82348  0.13561  0.39313  1.0000
  Fe  Fe237     1.0  0.90616  0.32655  0.37683  1.0000
  S   S472      1.0  0.91761  0.29767  0.38819  1.0000
  S   S473      1.0  0.90766  0.35285  0.39241  1.0000
  Fe  Fe238     1.0  0.89245  0.28685  0.37601  1.0000
  S   S474      1.0  0.87367  0.26608  0.39379  1.0000
  Fe  Fe239     1.0  0.93221  0.29616  0.35909  1.0000
  H   H2710     1.0  0.98348  0.47354  0.51664  1.0000
  S   S475      1.0  0.87980  0.31621  0.36690  1.0000
  H   H2711     1.0  0.86515  0.29177  0.33993  1.0000
  C   C1572     1.0  0.98196  0.30021  0.37807  1.0000
  C   C1573     1.0  0.98291  0.28962  0.36231  1.0000
  H   H2712     1.0  0.80035  0.05131  0.37648  1.0000
  C   C1574     1.0  0.85207  0.20706  0.38892  1.0000
  C   C1575     1.0  0.86432  0.21517  0.37444  1.0000
  C   C1576     1.0  0.87147  0.23294  0.37585  1.0000
  C   C1577     1.0  0.86629  0.24298  0.39172  1.0000
  C   C1578     1.0  0.85426  0.23478  0.40631  1.0000
  C   C1579     1.0  0.84724  0.21693  0.40498  1.0000
  H   H2713     1.0  0.86813  0.20770  0.36194  1.0000
  H   H2714     1.0  0.88066  0.23899  0.36449  1.0000
  H   H2715     1.0  0.85012  0.24238  0.41867  1.0000
  H   H2716     1.0  0.83781  0.21097  0.41622  1.0000
  H   H2717     1.0  0.86422  0.29038  0.60426  1.0000
  C   C1580     1.0  0.76259  0.18172  0.57559  1.0000
  H   H2718     1.0  0.90543  0.03792  0.41010  1.0000
  C   C1581     1.0  0.83004  0.16005  0.52680  1.0000
  C   C1582     1.0  0.83541  0.16838  0.50868  1.0000
  C   C1583     1.0  0.82596  0.16500  0.49272  1.0000
  C   C1584     1.0  0.81078  0.15349  0.49480  1.0000
  C   C1585     1.0  0.80558  0.14491  0.51288  1.0000
  C   C1586     1.0  0.81546  0.14780  0.52874  1.0000
  H   H2719     1.0  0.84677  0.17778  0.50702  1.0000
  H   H2720     1.0  0.83002  0.17178  0.47891  1.0000
  H   H2721     1.0  0.79391  0.13590  0.51460  1.0000
  H   H2722     1.0  0.81165  0.14086  0.54249  1.0000
  H   H2723     1.0  0.99776  0.31179  0.39851  1.0000
  C   C1587     1.0  0.86775  0.24229  0.65310  1.0000
  C   C1588     1.0  0.85416  0.23367  0.64392  1.0000
  C   C1589     1.0  0.85719  0.21471  0.63934  1.0000
  C   C1590     1.0  0.87392  0.20433  0.64449  1.0000
  Fe  Fe240     1.0  0.94420  0.29737  0.65753  1.0000
  C   C1591     1.0  0.79953  0.08848  0.60384  1.0000
  H   H2724     1.0  0.84120  0.24180  0.64024  1.0000
  H   H2725     1.0  0.88845  0.21579  0.59796  1.0000
  H   H2726     1.0  0.96933  0.35302  0.55654  1.0000
  H   H2727     1.0  0.86106  0.12525  0.53008  1.0000
  H   H2728     1.0  0.95785  0.49070  0.47166  1.0000
  H   H2729     1.0  0.77241  0.13149  0.35783  1.0000
  C   C1592     1.0  0.89210  0.06133  0.58952  1.0000
  C   C1593     1.0  0.88414  0.07844  0.58080  1.0000
  C   C1594     1.0  0.87421  0.09216  0.59165  1.0000
  C   C1595     1.0  0.87230  0.08896  0.61140  1.0000
  C   C1596     1.0  0.87999  0.07174  0.62013  1.0000
  C   C1597     1.0  0.88981  0.05794  0.60924  1.0000
  H   H2730     1.0  0.88588  0.08118  0.56556  1.0000
  H   H2731     1.0  0.86840  0.10537  0.58478  1.0000
  H   H2732     1.0  0.87861  0.06917  0.63539  1.0000
  H   H2733     1.0  0.89590  0.04486  0.61612  1.0000
  C   C1598     1.0  0.95257  0.25247  0.39758  1.0000
  C   C1599     1.0  0.97959  0.35989  0.56419  1.0000
  H   H2734     1.0  0.76990  0.19531  0.51613  1.0000
  C   C1600     1.0  0.86511  0.04035  0.40424  1.0000
  C   C1601     1.0  0.85892  0.05646  0.39268  1.0000
  C   C1602     1.0  0.85501  0.07413  0.40025  1.0000
  C   C1603     1.0  0.85719  0.07568  0.41945  1.0000
  C   C1604     1.0  0.86303  0.05951  0.43102  1.0000
  C   C1605     1.0  0.86672  0.04189  0.42351  1.0000
  H   H2735     1.0  0.85770  0.05539  0.37773  1.0000
  H   H2736     1.0  0.85104  0.08666  0.39112  1.0000
  H   H2737     1.0  0.86479  0.06060  0.44587  1.0000
  H   H2738     1.0  0.87092  0.02952  0.43266  1.0000
  H   H2739     1.0  0.86515  0.25686  0.65649  1.0000
  H   H2740     1.0  0.95684  0.23701  0.36355  1.0000
  H   H2741     1.0  0.81051  0.28886  0.37927  1.0000
  H   H2742     1.0  0.83526  0.35862  0.62856  1.0000
  C   C1606     1.0  0.90144  0.35454  0.45694  1.0000
  C   C1607     1.0  0.91470  0.36505  0.44594  1.0000
  C   C1608     1.0  0.91699  0.36385  0.42623  1.0000
  C   C1609     1.0  0.90655  0.35164  0.41742  1.0000
  C   C1610     1.0  0.89404  0.34032  0.42855  1.0000
  C   C1611     1.0  0.89138  0.34190  0.44823  1.0000
  H   H2743     1.0  0.92285  0.37449  0.45250  1.0000
  H   H2744     1.0  0.92677  0.37257  0.41772  1.0000
  H   H2745     1.0  0.88582  0.33096  0.42188  1.0000
  H   H2746     1.0  0.88115  0.33365  0.45664  1.0000
  C   C1612     1.0  0.91414  0.37033  0.57739  1.0000
  C   C1613     1.0  0.90390  0.35731  0.56962  1.0000
  C   C1614     1.0  0.89677  0.34203  0.58125  1.0000
  C   C1615     1.0  0.90031  0.33943  0.60052  1.0000
  C   C1616     1.0  0.91070  0.35235  0.60820  1.0000
  C   C1617     1.0  0.91729  0.36794  0.59676  1.0000
  H   H2747     1.0  0.90136  0.35911  0.55469  1.0000
  H   H2748     1.0  0.88863  0.33213  0.57523  1.0000
  H   H2749     1.0  0.91355  0.35045  0.62299  1.0000
  H   H2750     1.0  0.92512  0.37805  0.60284  1.0000
  N   N112      1.0  0.80888  0.08172  0.63860  1.0000
  C   C1618     1.0  0.86851  0.26012  0.59903  1.0000
  C   C1619     1.0  0.98818  0.41065  0.51395  1.0000
  C   C1620     1.0  0.86805  0.13667  0.47936  1.0000
  H   H2751     1.0  0.97470  0.40698  0.52066  1.0000
  C   C1621     1.0  0.90297  0.47222  0.49850  1.0000
  C   C1622     1.0  0.90579  0.47101  0.51786  1.0000
  H   H2752     1.0  0.91726  0.02638  0.35558  1.0000
  S   S476      1.0  0.96222  0.28307  0.35272  1.0000
  H   H2753     1.0  0.90605  0.45736  0.52603  1.0000
  C   C1623     1.0  0.86280  0.27622  0.61205  1.0000
  S   S477      1.0  0.97502  0.29774  0.64561  1.0000
  N   N113      1.0  0.96855  0.46852  0.49198  1.0000
  C   C1624     1.0  0.95521  0.45416  0.48784  1.0000
  C   C1625     1.0  0.90770  0.48756  0.52682  1.0000
  C   C1626     1.0  0.95037  0.45426  0.46700  1.0000
  H   H2754     1.0  0.94141  0.45617  0.49610  1.0000
  H   H2755     1.0  0.88833  0.34545  0.64776  1.0000
  H   H2756     1.0  0.86569  0.39700  0.64171  1.0000
  H   H2757     1.0  0.96116  0.43951  0.49218  1.0000
  H   H2758     1.0  0.98492  0.47144  0.46494  1.0000
  H   H2759     1.0  0.81743  0.31222  0.38027  1.0000
  H   H2760     1.0  0.81104  0.07972  0.36401  1.0000
  Fe  Fe241     1.0  0.91763  0.01532  0.58471  1.0000
  C   C1627     1.0  0.87389  0.09333  0.48629  1.0000
  H   H2761     1.0  0.76191  0.14260  0.57366  1.0000
  C   C1628     1.0  0.99360  0.00404  0.42254  1.0000
  H   H2762     1.0  0.84151  0.30959  0.35478  1.0000
  H   H2763     1.0  0.94824  0.34970  0.61815  1.0000
  C   C1629     1.0  0.80345  0.05176  0.39158  1.0000
  H   H2764     1.0  0.94475  0.34070  0.58596  1.0000
  C   C1630     1.0  0.85023  0.10807  0.50999  1.0000
  H   H2765     1.0  0.89740  0.44612  0.42926  1.0000
  C   C1631     1.0  0.94776  0.06777  0.36558  1.0000
  H   H2766     1.0  0.77901  0.20301  0.58611  1.0000
  C   C1632     1.0  0.90251  0.49005  0.48811  1.0000
  C   C1633     1.0  0.90620  0.09081  0.38039  1.0000
  H   H2767     1.0  0.92219  0.26414  0.56864  1.0000
  C   C1634     1.0  0.96318  0.20705  0.39009  1.0000
  H   H2768     1.0  0.91499  0.01818  0.38004  1.0000
  H   H2769     1.0  0.82029  0.10915  0.63641  1.0000
  C   C1635     1.0  0.81617  0.30112  0.37047  1.0000
  C   C1636     1.0  0.79115  0.07192  0.64508  1.0000
  C   C1637     1.0  0.91847  0.27385  0.57990  1.0000
  H   H2770     1.0  0.97809  0.45000  0.51577  1.0000
  C   C1638     1.0  0.81414  0.07996  0.61781  1.0000
  S   S478      1.0  0.92221  0.32571  0.34819  1.0000
  C   C1639     1.0  0.80724  0.10242  0.64219  1.0000
  H   H2771     1.0  0.84765  0.27559  0.61703  1.0000
  H   H2772     1.0  0.83675  0.26001  0.37016  1.0000
  H   H2773     1.0  0.98577  0.36583  0.62498  1.0000
  N   N114      1.0  0.76707  0.18194  0.55444  1.0000
  Fe  Fe242     1.0  0.90959  0.27354  0.66727  1.0000
  C   C1640     1.0  0.89742  0.27451  0.58686  1.0000
  H   H2774     1.0  0.92762  0.24260  0.62015  1.0000
  H   H2775     1.0  0.81029  0.20315  0.54464  1.0000
  H   H2776     1.0  0.98914  0.31911  0.60807  1.0000
  H   H2777     1.0  0.93874  0.07993  0.35959  1.0000
  H   H2778     1.0  0.89181  0.06874  0.49667  1.0000
  C   C1641     1.0  0.81957  0.10050  0.48432  1.0000
  H   H2779     1.0  0.86893  0.06299  0.49152  1.0000
  C   C1642     1.0  0.99491  0.30044  0.65856  1.0000
  C   C1643     1.0  0.80304  0.08611  0.39369  1.0000
  H   H2780     1.0  0.77200  0.09460  0.63024  1.0000
  H   H2781     1.0  0.96015  0.46645  0.54151  1.0000
  H   H2782     1.0  0.80073  0.02149  0.39109  1.0000
  H   H2783     1.0  0.83865  0.11954  0.51088  1.0000
  H   H2784     1.0  0.98081  0.26174  0.39808  1.0000
  H   H2785     1.0  0.81000  0.08940  0.48220  1.0000
  C   C1644     1.0  0.84711  0.34751  0.62987  1.0000
  C   C1645     1.0  0.88074  0.35967  0.64915  1.0000
  H   H2786     1.0  0.85597  0.11869  0.46151  1.0000
  C   C1646     1.0  0.76408  0.20024  0.58489  1.0000
  H   H2787     1.0  0.88299  0.13104  0.47740  1.0000
  H   H2788     1.0  0.90028  0.20467  0.65781  1.0000
  C   C1647     1.0  0.77310  0.07206  0.39252  1.0000
  H   H2789     1.0  0.91932  0.09809  0.37664  1.0000
  H   H2790     1.0  0.98193  0.37171  0.59041  1.0000
  C   C1648     1.0  0.97235  0.46491  0.51267  1.0000
  H   H2791     1.0  0.95511  0.00484  0.47066  1.0000
  C   C1649     1.0  0.79456  0.20423  0.54640  1.0000
  H   H2792     1.0  0.97828  0.24927  0.37803  1.0000
  H   H2793     1.0  0.98288  0.01597  0.59645  1.0000
  H   H2794     1.0  0.94810  0.05600  0.35630  1.0000
  H   H2795     1.0  0.87648  0.18972  0.64121  1.0000
  C   C1650     1.0  0.78785  0.18398  0.54924  1.0000
  H   H2796     1.0  0.83981  0.07831  0.49332  1.0000
  H   H2797     1.0  0.88566  0.10153  0.48942  1.0000
  H   H2798     1.0  0.82774  0.08650  0.61353  1.0000
  H   H2799     1.0  0.99380  0.35224  0.56282  1.0000
  H   H2800     1.0  0.92024  0.25882  0.42256  1.0000
  C   C1651     1.0  0.95188  0.31414  0.60183  1.0000
  H   H2801     1.0  0.92740  0.03636  0.43684  1.0000
  H   H2802     1.0  0.76130  0.07369  0.63936  1.0000
  H   H2803     1.0  0.87946  0.36591  0.63437  1.0000
  H   H2804     1.0  0.91741  0.22192  0.61480  1.0000
  H   H2805     1.0  0.90951  0.48652  0.54188  1.0000
  H   H2806     1.0  0.92771  0.27055  0.59186  1.0000
  H   H2807     1.0  0.86519  0.14267  0.49324  1.0000
  H   H2808     1.0  0.84460  0.09542  0.51830  1.0000
  S   S479      1.0  0.76600  0.12570  0.39955  1.0000
  H   H2809     1.0  0.98024  0.23670  0.40148  1.0000
  H   H2810     1.0  0.87887  0.11896  0.51247  1.0000
  H   H2811     1.0  0.95844  0.36986  0.58501  1.0000
  H   H2812     1.0  0.81757  0.08441  0.39857  1.0000
  H   H2813     1.0  0.91482  0.23128  0.36150  1.0000
  H   H2814     1.0  0.91413  0.05855  0.36121  1.0000
  C   C1652     1.0  0.89150  0.24232  0.57918  1.0000
  H   H2815     1.0  0.79097  0.05854  0.63807  1.0000
  H   H2816     1.0  0.81751  0.11169  0.47256  1.0000
  H   H2817     1.0  0.88922  0.23750  0.62002  1.0000
  H   H2818     1.0  0.88697  0.21349  0.57330  1.0000
  C   C1653     1.0  0.83312  0.24572  0.34553  1.0000
  H   H2819     1.0  0.84383  0.08730  0.46929  1.0000
  C   C1654     1.0  0.97413  0.24953  0.39335  1.0000
  C   C1655     1.0  0.84018  0.09169  0.48388  1.0000
  H   H2820     1.0  0.94165  0.30712  0.59427  1.0000
  N   N115      1.0  0.83710  0.28159  0.34647  1.0000
  H   H2821     1.0  0.83980  0.12982  0.47803  1.0000
  N   N116      1.0  0.87595  0.41168  0.43917  1.0000
  C   C1656     1.0  0.86981  0.39420  0.43141  1.0000
  C   C1657     1.0  0.87752  0.40716  0.46019  1.0000
  C   C1658     1.0  0.89531  0.41536  0.43000  1.0000
  C   C1659     1.0  0.86173  0.42819  0.43455  1.0000
  C   C1660     1.0  0.86995  0.39459  0.40964  1.0000
  C   C1661     1.0  0.85977  0.39965  0.47129  1.0000
  C   C1662     1.0  0.90440  0.43277  0.43566  1.0000
  C   C1663     1.0  0.85949  0.44417  0.44814  1.0000
  H   H2822     1.0  0.87882  0.38140  0.43629  1.0000
  H   H2823     1.0  0.85516  0.39133  0.43692  1.0000
  H   H2824     1.0  0.88129  0.41954  0.46719  1.0000
  H   H2825     1.0  0.88929  0.39613  0.46281  1.0000
  H   H2826     1.0  0.90543  0.40278  0.43288  1.0000
  H   H2827     1.0  0.89506  0.41758  0.41432  1.0000
  H   H2828     1.0  0.86510  0.43491  0.42002  1.0000
  H   H2829     1.0  0.84728  0.42330  0.43412  1.0000
  H   H2830     1.0  0.86224  0.38259  0.40594  1.0000
  H   H2831     1.0  0.86293  0.40790  0.40318  1.0000
  H   H2832     1.0  0.88458  0.39226  0.40316  1.0000
  H   H2833     1.0  0.84652  0.40772  0.46708  1.0000
  H   H2834     1.0  0.85890  0.38439  0.46940  1.0000
  H   H2835     1.0  0.86090  0.40067  0.48668  1.0000
  C   C1664     1.0  0.77196  0.08350  0.64217  1.0000
  H   H2836     1.0  0.91939  0.43223  0.42992  1.0000
  H   H2837     1.0  0.90463  0.43318  0.45115  1.0000
  H   H2838     1.0  0.85254  0.43945  0.46208  1.0000
  H   H2839     1.0  0.85021  0.45616  0.44195  1.0000
  H   H2840     1.0  0.87298  0.44994  0.45061  1.0000
  N   N117      1.0  0.94069  0.23801  0.39095  1.0000
  C   C1665     1.0  0.92024  0.24332  0.39704  1.0000
  C   C1666     1.0  0.94212  0.23940  0.36957  1.0000
  H   H2841     1.0  0.97272  0.21556  0.38043  1.0000
  C   C1667     1.0  0.94613  0.21835  0.39981  1.0000
  C   C1668     1.0  0.95526  0.46852  0.52692  1.0000
  C   C1669     1.0  0.92999  0.22615  0.36043  1.0000
  H   H2842     1.0  0.93678  0.02753  0.37008  1.0000
  H   H2843     1.0  0.91087  0.23265  0.39323  1.0000
  H   H2844     1.0  0.93776  0.25411  0.36386  1.0000
  H   H2845     1.0  0.89558  0.10166  0.38601  1.0000
  C   C1670     1.0  0.88459  0.23199  0.65804  1.0000
  H   H2846     1.0  0.79176  0.09799  0.36662  1.0000
  H   H2847     1.0  0.93397  0.20932  0.40020  1.0000
  H   H2848     1.0  0.75612  0.21270  0.57796  1.0000
  H   H2849     1.0  0.92565  0.23852  0.59603  1.0000
  H   H2850     1.0  0.94915  0.21895  0.41490  1.0000
  C   C1671     1.0  0.80401  0.10666  0.66315  1.0000
  H   H2851     1.0  0.95825  0.19570  0.38234  1.0000
  H   H2852     1.0  0.79223  0.17783  0.53563  1.0000
  H   H2853     1.0  0.96832  0.30532  0.38424  1.0000
  H   H2854     1.0  0.00067  0.01789  0.54728  1.0000
  H   H2855     1.0  0.81895  0.05326  0.39139  1.0000
  H   H2856     1.0  0.87102  0.27503  0.62480  1.0000
  H   H2857     1.0  0.84221  0.33460  0.62461  1.0000
  C   C1672     1.0  0.92115  0.02919  0.36986  1.0000
  C   C1673     1.0  0.91830  0.23725  0.61025  1.0000
  H   H2858     1.0  0.94551  0.07228  0.39526  1.0000
  H   H2859     1.0  0.93168  0.21128  0.36663  1.0000
  H   H2860     1.0  0.88918  0.28134  0.57496  1.0000
  C   C1674     1.0  0.80529  0.09172  0.37216  1.0000
  H   H2861     1.0  0.94799  0.26696  0.39137  1.0000
  H   H2862     1.0  0.81456  0.26537  0.36016  1.0000
  H   H2863     1.0  0.85948  0.35139  0.62032  1.0000
  H   H2864     1.0  0.90642  0.23899  0.57424  1.0000
  H   H2865     1.0  0.89921  0.25910  0.62208  1.0000
  H   H2866     1.0  0.86733  0.22453  0.58621  1.0000
  H   H2867     1.0  0.98077  0.37429  0.55680  1.0000
  C   C1675     1.0  0.91281  0.04912  0.37450  1.0000
  H   H2868     1.0  0.76697  0.16149  0.53340  1.0000
  C   C1676     1.0  0.83005  0.26356  0.35645  1.0000
  C   C1677     1.0  0.85179  0.34290  0.65069  1.0000
  C   C1678     1.0  0.79081  0.06692  0.42121  1.0000
  H   H2869     1.0  0.89600  0.28468  0.59798  1.0000
  H   H2870     1.0  0.78243  0.07963  0.42646  1.0000
  H   H2871     1.0  0.86094  0.26381  0.58583  1.0000
  H   H2872     1.0  0.79616  0.09862  0.40049  1.0000
  C   C1679     1.0  0.98661  0.46507  0.47970  1.0000
  H   H2873     1.0  0.86208  0.24730  0.60610  1.0000
  H   H2874     1.0  0.77213  0.17097  0.58332  1.0000
  H   H2875     1.0  0.86605  0.14880  0.46844  1.0000
  H   H2876     1.0  0.90026  0.49112  0.47314  1.0000
  C   C1680     1.0  0.00106  0.41860  0.52434  1.0000
  H   H2877     1.0  0.77364  0.14701  0.65382  1.0000
  C   C1681     1.0  0.77044  0.14525  0.56005  1.0000
  H   H2878     1.0  0.94419  0.48921  0.49312  1.0000
  S   S480      1.0  0.90310  0.00398  0.43646  1.0000
  H   H2879     1.0  0.81595  0.07870  0.43044  1.0000
  H   H2880     1.0  0.90036  0.08624  0.36767  1.0000
  H   H2881     1.0  0.96307  0.45136  0.45736  1.0000
  H   H2882     1.0  0.81234  0.02702  0.41076  1.0000
  C   C1682     1.0  0.75296  0.12081  0.38013  1.0000
  N   N118      1.0  0.79260  0.06865  0.39982  1.0000
  C   C1683     1.0  0.85187  0.39068  0.64250  1.0000
  H   H2883     1.0  0.81488  0.10628  0.49801  1.0000
  H   H2884     1.0  0.87663  0.09100  0.47095  1.0000
  C   C1684     1.0  0.91564  0.24531  0.41840  1.0000
  H   H2885     1.0  0.88470  0.24886  0.56625  1.0000
  H   H2886     1.0  0.80595  0.30714  0.36008  1.0000
  C   C1685     1.0  0.76124  0.13980  0.65171  1.0000
  H   H2887     1.0  0.91519  0.08110  0.40771  1.0000
  C   C1686     1.0  0.83595  0.29601  0.36099  1.0000
  C   C1687     1.0  0.97265  0.36190  0.58506  1.0000
  H   H2888     1.0  0.99259  0.34195  0.43547  1.0000
  C   C1688     1.0  0.94166  0.06127  0.38633  1.0000
  H   H2889     1.0  0.78949  0.21203  0.53326  1.0000
  C   C1689     1.0  0.89843  0.24789  0.61226  1.0000
  H   H2890     1.0  0.92173  0.23313  0.42745  1.0000
  H   H2891     1.0  0.82014  0.05434  0.42477  1.0000
  H   H2892     1.0  0.94099  0.44269  0.46597  1.0000
  C   C1690     1.0  0.86656  0.11368  0.52113  1.0000
  C   C1691     1.0  0.88742  0.21287  0.65392  1.0000
  H   H2893     1.0  0.92165  0.28825  0.57359  1.0000
  N   N119      1.0  0.85483  0.10398  0.48958  1.0000
  H   H2894     1.0  0.79670  0.17568  0.55981  1.0000
  N   N120      1.0  0.88950  0.25601  0.59438  1.0000
  H   H2895     1.0  0.96398  0.30359  0.60452  1.0000
  H   H2896     1.0  0.96386  0.37862  0.61817  1.0000
  H   H2897     1.0  0.94236  0.46763  0.46203  1.0000
  H   H2898     1.0  0.89487  0.07067  0.40172  1.0000
  C   C1692     1.0  0.99292  0.40729  0.49503  1.0000
  C   C1693     1.0  0.95917  0.48805  0.48721  1.0000
  C   C1694     1.0  0.92004  0.04259  0.40757  1.0000
  N   N121      1.0  0.92119  0.05711  0.39068  1.0000
  H   H2899     1.0  0.78684  0.03076  0.41040  1.0000
  H   H2900     1.0  0.97203  0.19962  0.40116  1.0000
  C   C1695     1.0  0.87657  0.07377  0.49760  1.0000
  H   H2901     1.0  0.87143  0.10169  0.53123  1.0000
  C   C1696     1.0  0.92580  0.04894  0.42642  1.0000
  H   H2902     1.0  0.91513  0.25694  0.38936  1.0000
  H   H2903     1.0  0.87204  0.07428  0.51283  1.0000
  H   H2904     1.0  0.81662  0.06484  0.61479  1.0000
  H   H2905     1.0  0.92925  0.02952  0.40490  1.0000
  H   H2906     1.0  0.82626  0.23391  0.35405  1.0000
  H   H2907     1.0  0.93957  0.05537  0.42478  1.0000
  H   H2908     1.0  0.96242  0.07226  0.36494  1.0000
  C   C1697     1.0  0.80037  0.03195  0.40186  1.0000
  H   H2909     1.0  0.98998  0.44955  0.47852  1.0000
  H   H2910     1.0  0.89729  0.04823  0.37749  1.0000
  H   H2911     1.0  0.83430  0.37344  0.66194  1.0000
  H   H2912     1.0  0.99491  0.32641  0.58438  1.0000
  H   H2913     1.0  0.77383  0.07477  0.37683  1.0000
  S   S481      1.0  0.90789  0.28308  0.34777  1.0000
  C   C1698     1.0  0.89413  0.37164  0.65835  1.0000
  H   H2914     1.0  0.91465  0.05883  0.43269  1.0000
  H   H2915     1.0  0.79054  0.21278  0.55845  1.0000
  H   H2916     1.0  0.80694  0.06012  0.44621  1.0000
  H   H2917     1.0  0.90554  0.37606  0.64771  1.0000
  H   H2918     1.0  0.83957  0.05064  0.63209  1.0000
  H   H2919     1.0  0.81539  0.10295  0.36947  1.0000
  C   C1699     1.0  0.99042  0.33214  0.59823  1.0000
  C   C1700     1.0  0.95795  0.33192  0.58939  1.0000
  H   H2920     1.0  0.94447  0.31766  0.61549  1.0000
  H   H2921     1.0  0.96396  0.32680  0.57569  1.0000
  H   H2922     1.0  0.99072  0.01850  0.42622  1.0000
  C   C1701     1.0  0.00079  0.28302  0.35457  1.0000
  C   C1702     1.0  0.75525  0.19701  0.52262  1.0000
  N   N122      1.0  0.86165  0.35757  0.65956  1.0000
  H   H2923     1.0  0.93433  0.22630  0.34507  1.0000
  C   C1703     1.0  0.80965  0.06486  0.43098  1.0000
  H   H2924     1.0  0.78534  0.14626  0.56312  1.0000
  H   H2925     1.0  0.79580  0.11060  0.63458  1.0000
  H   H2926     1.0  0.79104  0.06763  0.66058  1.0000
  H   H2927     1.0  0.86043  0.32904  0.65152  1.0000
  H   H2928     1.0  0.76567  0.08501  0.39815  1.0000
  H   H2929     1.0  0.86538  0.26839  0.35026  1.0000
  H   H2930     1.0  0.78268  0.05486  0.42708  1.0000
  C   C1704     1.0  0.75462  0.19729  0.54439  1.0000
  H   H2931     1.0  0.83801  0.34022  0.65852  1.0000
  N   N123      1.0  0.97162  0.34363  0.59765  1.0000
  C   C1705     1.0  0.99612  0.00863  0.60049  1.0000
  H   H2932     1.0  0.96734  0.33535  0.62780  1.0000
  H   H2933     1.0  0.78686  0.08020  0.60505  1.0000
  H   H2934     1.0  0.75818  0.21163  0.54726  1.0000
  C   C1706     1.0  0.97025  0.36540  0.62551  1.0000
  H   H2935     1.0  0.96505  0.36532  0.64067  1.0000
  H   H2936     1.0  0.80594  0.08762  0.58916  1.0000
  C   C1707     1.0  0.75929  0.12482  0.36115  1.0000
  Fe  Fe243     1.0  0.89667  0.31313  0.33903  1.0000
  S   S482      1.0  0.94740  0.00555  0.57426  1.0000
  H   H2937     1.0  0.76988  0.13264  0.55199  1.0000
  C   C1708     1.0  0.76214  0.16312  0.54851  1.0000
  C   C1709     1.0  0.75811  0.13506  0.63358  1.0000
  H   H2938     1.0  0.84078  0.40256  0.64384  1.0000
  C   C1710     1.0  0.84958  0.37610  0.65992  1.0000
  S   S483      1.0  0.92575  0.32461  0.65668  1.0000
  C   C1711     1.0  0.99870  0.30385  0.38615  1.0000
  H   H2939     1.0  0.88674  0.38458  0.66385  1.0000
  H   H2940     1.0  0.99741  0.42123  0.53897  1.0000
  H   H2941     1.0  0.80003  0.12205  0.66384  1.0000
  C   C1712     1.0  0.85782  0.27851  0.33996  1.0000
  C   C1713     1.0  0.75976  0.05601  0.39697  1.0000
  S   S484      1.0  0.95507  0.00273  0.42524  1.0000
  H   H2942     1.0  0.76492  0.04333  0.38950  1.0000
  H   H2943     1.0  0.76635  0.08987  0.65537  1.0000
  C   C1714     1.0  0.83122  0.05150  0.64590  1.0000
  H   H2944     1.0  0.81907  0.04258  0.64659  1.0000
  C   C1715     1.0  0.82507  0.07229  0.64955  1.0000
  H   H2945     1.0  0.83790  0.08036  0.64667  1.0000
  H   H2946     1.0  0.75712  0.05225  0.41236  1.0000
  H   H2947     1.0  0.84079  0.04532  0.65692  1.0000
  H   H2948     1.0  0.75787  0.19840  0.59972  1.0000
  S   S485      1.0  0.88896  0.29942  0.66781  1.0000
  H   H2949     1.0  0.80971  0.28929  0.33560  1.0000
  Fe  Fe244     1.0  0.98476  0.38277  0.91090  1.0000
  S   S486      1.0  0.96126  0.36583  0.90249  1.0000
  H   H2950     1.0  0.93456  0.37150  0.82011  1.0000
  C   C1716     1.0  0.95800  0.45073  0.87605  1.0000
  Fe  Fe245     1.0  0.91054  0.31236  0.68361  1.0000
  S   S487      1.0  0.93032  0.28553  0.68521  1.0000
  S   S488      1.0  0.90526  0.33596  0.70407  1.0000
  Fe  Fe246     1.0  0.87809  0.39438  0.83143  1.0000
  S   S489      1.0  0.87182  0.40318  0.80114  1.0000
  S   S490      1.0  0.90712  0.40107  0.83878  1.0000
  Fe  Fe247     1.0  0.83745  0.38329  0.84234  1.0000
  S   S491      1.0  0.82850  0.39136  0.81284  1.0000
  S   S492      1.0  0.81926  0.37437  0.86911  1.0000
  Fe  Fe248     1.0  0.85648  0.37655  0.80283  1.0000
  S   S493      1.0  0.85940  0.35265  0.78281  1.0000
  Fe  Fe249     1.0  0.84487  0.41727  0.81379  1.0000
  S   S494      1.0  0.83291  0.44732  0.80497  1.0000
  S   S495      1.0  0.86444  0.36690  0.83263  1.0000
  S   S496      1.0  0.85204  0.41003  0.84380  1.0000
  H   H2951     1.0  0.78392  0.40541  0.80628  1.0000
  C   C1717     1.0  0.83510  0.48585  0.80639  1.0000
  C   C1718     1.0  0.84130  0.46751  0.81384  1.0000
  C   C1719     1.0  0.85364  0.46565  0.82847  1.0000
  C   C1720     1.0  0.99354  0.30026  0.67831  1.0000
  H   H2952     1.0  0.82566  0.48747  0.79499  1.0000
  H   H2953     1.0  0.85863  0.45170  0.83431  1.0000
  H   H2954     1.0  0.93437  0.38712  0.77461  1.0000
  C   C1721     1.0  0.76733  0.35939  0.85698  1.0000
  C   C1722     1.0  0.78622  0.36442  0.85492  1.0000
  C   C1723     1.0  0.79578  0.36700  0.87090  1.0000
  C   C1724     1.0  0.78631  0.36412  0.88894  1.0000
  C   C1725     1.0  0.76472  0.44214  0.84482  1.0000
  H   H2955     1.0  0.79336  0.36627  0.84096  1.0000
  H   H2956     1.0  0.79354  0.36601  0.90143  1.0000
  H   H2957     1.0  0.95046  0.33968  0.80121  1.0000
  H   H2958     1.0  0.93047  0.45903  0.86698  1.0000
  C   C1726     1.0  0.89171  0.34041  0.72561  1.0000
  C   C1727     1.0  0.89105  0.35863  0.73213  1.0000
  C   C1728     1.0  0.88088  0.36284  0.74931  1.0000
  C   C1729     1.0  0.87140  0.34874  0.76036  1.0000
  C   C1730     1.0  0.87187  0.33060  0.75371  1.0000
  C   C1731     1.0  0.88190  0.32645  0.73646  1.0000
  H   H2959     1.0  0.89852  0.36959  0.72385  1.0000
  H   H2960     1.0  0.88051  0.37691  0.75407  1.0000
  H   H2961     1.0  0.86456  0.31958  0.76207  1.0000
  H   H2962     1.0  0.88224  0.31237  0.73170  1.0000
  H   H2963     1.0  0.91150  0.39956  0.77698  1.0000
  C   C1732     1.0  0.76744  0.35899  0.89101  1.0000
  H   H2964     1.0  0.87492  0.33689  0.67981  1.0000
  H   H2965     1.0  0.97999  0.29872  0.68608  1.0000
  C   C1733     1.0  0.94580  0.37581  0.88517  1.0000
  C   C1734     1.0  0.93198  0.36492  0.87934  1.0000
  C   C1735     1.0  0.91960  0.37254  0.86548  1.0000
  C   C1736     1.0  0.92115  0.39104  0.85719  1.0000
  C   C1737     1.0  0.93492  0.40188  0.86302  1.0000
  C   C1738     1.0  0.94703  0.39440  0.87706  1.0000
  H   H2966     1.0  0.93107  0.35047  0.88545  1.0000
  H   H2967     1.0  0.90922  0.36399  0.86091  1.0000
  H   H2968     1.0  0.93628  0.41616  0.85659  1.0000
  H   H2969     1.0  0.95740  0.40298  0.88149  1.0000
  H   H2970     1.0  0.89937  0.33640  0.80122  1.0000
  H   H2971     1.0  0.84196  0.33153  0.68906  1.0000
  H   H2972     1.0  0.90354  0.33274  0.83465  1.0000
  H   H2973     1.0  0.95852  0.36241  0.81905  1.0000
  H   H2974     1.0  0.92639  0.34162  0.83213  1.0000
  H   H2975     1.0  0.95155  0.38156  0.80272  1.0000
  H   H2976     1.0  0.96791  0.46354  0.96563  1.0000
  H   H2977     1.0  0.75985  0.39827  0.86776  1.0000
  C   C1739     1.0  0.91398  0.33810  0.80532  1.0000
  C   C1740     1.0  0.91902  0.38558  0.77439  1.0000
  H   H2978     1.0  0.85234  0.38374  0.67235  1.0000
  H   H2979     1.0  0.94900  0.46747  0.85105  1.0000
  H   H2980     1.0  0.95142  0.43949  0.98132  1.0000
  H   H2981     1.0  0.81374  0.43791  0.86994  1.0000
  C   C1741     1.0  0.93449  0.32403  0.77022  1.0000
  H   H2982     1.0  0.75948  0.28531  0.87843  1.0000
  Fe  Fe250     1.0  0.99191  0.42141  0.92205  1.0000
  H   H2983     1.0  0.98651  0.41184  0.98380  1.0000
  H   H2984     1.0  0.86901  0.48025  0.84702  1.0000
  C   C1742     1.0  0.75777  0.35672  0.87501  1.0000
  H   H2985     1.0  0.91038  0.37713  0.80323  1.0000
  C   C1743     1.0  0.98889  0.48583  0.92459  1.0000
  H   H2986     1.0  0.83593  0.35654  0.69207  1.0000
  H   H2987     1.0  0.95456  0.41384  0.98335  1.0000
  C   C1744     1.0  0.84735  0.34493  0.69255  1.0000
  H   H2988     1.0  0.91049  0.48609  0.87625  1.0000
  C   C1745     1.0  0.80783  0.44821  0.85876  1.0000
  C   C1746     1.0  0.94413  0.46584  0.86635  1.0000
  H   H2989     1.0  0.92878  0.47355  0.90130  1.0000
  H   H2990     1.0  0.89711  0.36817  0.78673  1.0000
  H   H2991     1.0  0.93100  0.35336  0.76065  1.0000
  H   H2992     1.0  0.90947  0.34289  0.76778  1.0000
  H   H2993     1.0  0.76029  0.35699  0.90497  1.0000
  C   C1747     1.0  0.94381  0.35369  0.79577  1.0000
  C   C1748     1.0  0.91235  0.34302  0.82606  1.0000
  N   N124      1.0  0.86943  0.36852  0.90466  1.0000
  C   C1749     1.0  0.88897  0.35868  0.90615  1.0000
  C   C1750     1.0  0.86975  0.38206  0.88696  1.0000
  C   C1751     1.0  0.85488  0.35450  0.90333  1.0000
  C   C1752     1.0  0.86423  0.37881  0.92215  1.0000
  C   C1753     1.0  0.89123  0.34265  0.92221  1.0000
  C   C1754     1.0  0.87996  0.40025  0.88804  1.0000
  C   C1755     1.0  0.85866  0.34155  0.88698  1.0000
  C   C1756     1.0  0.84478  0.39036  0.92268  1.0000
  H   H2994     1.0  0.89407  0.35251  0.89269  1.0000
  H   H2995     1.0  0.89941  0.36901  0.90828  1.0000
  H   H2996     1.0  0.85522  0.38643  0.88257  1.0000
  H   H2997     1.0  0.87677  0.37498  0.87466  1.0000
  H   H2998     1.0  0.85302  0.34532  0.91680  1.0000
  H   H2999     1.0  0.84067  0.36202  0.90149  1.0000
  H   H3000     1.0  0.86366  0.36860  0.93498  1.0000
  H   H3001     1.0  0.87538  0.38815  0.92492  1.0000
  H   H3002     1.0  0.90615  0.33650  0.92138  1.0000
  H   H3003     1.0  0.88854  0.34794  0.93644  1.0000
  H   H3004     1.0  0.88224  0.33088  0.92085  1.0000
  H   H3005     1.0  0.87204  0.40992  0.89776  1.0000
  H   H3006     1.0  0.89467  0.39715  0.89227  1.0000
  H   H3007     1.0  0.88086  0.40814  0.87380  1.0000
  H   H3008     1.0  0.84677  0.33229  0.88721  1.0000
  H   H3009     1.0  0.87181  0.33214  0.88835  1.0000
  H   H3010     1.0  0.85910  0.34985  0.87298  1.0000
  H   H3011     1.0  0.83362  0.38165  0.92989  1.0000
  H   H3012     1.0  0.84016  0.39573  0.90852  1.0000
  H   H3013     1.0  0.84555  0.40311  0.93049  1.0000
  H   H3014     1.0  0.91572  0.38244  0.76003  1.0000
  C   C1757     1.0  0.91191  0.37044  0.78967  1.0000
  S   S497      1.0  0.98201  0.39556  0.93899  1.0000
  H   H3015     1.0  0.90531  0.35728  0.82783  1.0000
  C   C1758     1.0  0.85955  0.48190  0.83564  1.0000
  C   C1759     1.0  0.94679  0.36816  0.81016  1.0000
  H   H3016     1.0  0.92151  0.32374  0.80571  1.0000
  H   H3017     1.0  0.94899  0.32302  0.77518  1.0000
  H   H3018     1.0  0.79841  0.44831  0.83071  1.0000
  H   H3019     1.0  0.93586  0.32116  0.75502  1.0000
  H   H3020     1.0  0.79296  0.40146  0.83855  1.0000
  C   C1760     1.0  0.78116  0.41933  0.86845  1.0000
  H   H3021     1.0  0.97209  0.45574  0.87739  1.0000
  H   H3022     1.0  0.98931  0.43088  0.96618  1.0000
  H   H3023     1.0  0.80459  0.49488  0.87428  1.0000
  H   H3024     1.0  0.79734  0.45849  0.86521  1.0000
  S   S498      1.0  0.99253  0.40953  0.89396  1.0000
  C   C1761     1.0  0.76273  0.41021  0.87582  1.0000
  C   C1762     1.0  0.86503  0.34990  0.67968  1.0000
  H   H3025     1.0  0.95250  0.35813  0.78263  1.0000
  H   H3026     1.0  0.95887  0.42700  0.96130  1.0000
  N   N125      1.0  0.92373  0.35176  0.79103  1.0000
  H   H3027     1.0  0.90114  0.36312  0.67013  1.0000
  C   C1763     1.0  0.98928  0.45922  0.98682  1.0000
  C   C1764     1.0  0.78130  0.41257  0.83551  1.0000
  H   H3028     1.0  0.97572  0.49049  0.91839  1.0000
  C   C1765     1.0  0.92410  0.34384  0.77195  1.0000
  H   H3029     1.0  0.77069  0.42748  0.80917  1.0000
  H   H3030     1.0  0.91966  0.48178  0.84153  1.0000
  H   H3031     1.0  0.95680  0.49877  0.85036  1.0000
  H   H3032     1.0  0.95334  0.47477  0.90108  1.0000
  H   H3033     1.0  0.80290  0.49946  0.84954  1.0000
  H   H3034     1.0  0.92626  0.31263  0.77768  1.0000
  H   H3035     1.0  0.85138  0.34244  0.70746  1.0000
  C   C1766     1.0  0.94042  0.48256  0.89573  1.0000
  C   C1767     1.0  0.79986  0.43785  0.84330  1.0000
  H   H3036     1.0  0.79629  0.42554  0.80952  1.0000
  H   H3037     1.0  0.81976  0.45629  0.85227  1.0000
  C   C1768     1.0  0.78317  0.41841  0.81398  1.0000
  S   S499      1.0  0.97732  0.45019  0.92576  1.0000
  C   C1769     1.0  0.98171  0.42696  0.98010  1.0000
  N   N126      1.0  0.78164  0.42836  0.84834  1.0000
  H   H3038     1.0  0.99386  0.46781  0.99774  1.0000
  C   C1770     1.0  0.99320  0.46664  0.92992  1.0000
  H   H3039     1.0  0.95206  0.44531  0.89025  1.0000
  C   C1771     1.0  0.76118  0.45850  0.85779  1.0000
  H   H3040     1.0  0.96024  0.43835  0.86743  1.0000
  C   C1772     1.0  0.96041  0.42711  0.97675  1.0000
  C   C1773     1.0  0.92218  0.49405  0.86882  1.0000
  C   C1774     1.0  0.97181  0.47003  0.97827  1.0000
  H   H3041     1.0  0.76418  0.40414  0.89068  1.0000
  H   H3042     1.0  0.97539  0.48464  0.97311  1.0000
  C   C1775     1.0  0.99856  0.37483  0.99425  1.0000
  H   H3043     1.0  0.81721  0.10349  0.67065  1.0000
  H   H3044     1.0  0.81153  0.42728  0.83904  1.0000
  H   H3045     1.0  0.95953  0.47143  0.98872  1.0000
  H   H3046     1.0  0.76797  0.40529  0.83805  1.0000
  H   H3047     1.0  0.99027  0.37227  0.98270  1.0000
  H   H3048     1.0  0.79312  0.40827  0.87009  1.0000
  C   C1776     1.0  0.91880  0.49576  0.84746  1.0000
  H   H3049     1.0  0.87203  0.36024  0.68717  1.0000
  C   C1777     1.0  0.85354  0.50022  0.82806  1.0000
  N   N127      1.0  0.94121  0.48497  0.87436  1.0000
  H   H3050     1.0  0.76927  0.47075  0.85210  1.0000
  H   H3051     1.0  0.76599  0.44915  0.83016  1.0000
  H   H3052     1.0  0.00053  0.45976  0.97521  1.0000
  N   N128      1.0  0.98711  0.43908  0.99497  1.0000
  H   H3053     1.0  0.78339  0.42955  0.87879  1.0000
  H   H3054     1.0  0.98430  0.48312  0.86099  1.0000
  H   H3055     1.0  0.93828  0.49738  0.92134  1.0000
  H   H3056     1.0  0.76003  0.35761  0.84451  1.0000
  H   H3057     1.0  0.76441  0.45436  0.87264  1.0000
  H   H3058     1.0  0.79247  0.09885  0.67075  1.0000
  H   H3059     1.0  0.97787  0.48528  0.88576  1.0000
  C   C1778     1.0  0.95618  0.49781  0.86610  1.0000
  C   C1779     1.0  0.97670  0.49232  0.87137  1.0000
  H   H3060     1.0  0.75147  0.43472  0.84508  1.0000
  C   C1780     1.0  0.93774  0.50103  0.90583  1.0000
  S   S500      1.0  0.90257  0.24240  0.66900  1.0000
  H   H3061     1.0  0.91881  0.56640  0.12871  1.0000
  Fe  Fe251     1.0  0.90705  0.66115  0.32593  1.0000
  S   S501      1.0  0.98742  0.57391  0.07978  1.0000
  H   H3062     1.0  0.76156  0.56608  0.14005  1.0000
  H   H3063     1.0  0.94823  0.61949  0.18118  1.0000
  S   S502      1.0  0.96507  0.60947  0.11439  1.0000
  H   H3064     1.0  0.76708  0.59017  0.13670  1.0000
  H   H3065     1.0  0.76310  0.63814  0.12218  1.0000
  Fe  Fe252     1.0  0.84468  0.56389  0.20848  1.0000
  S   S503      1.0  0.85347  0.56967  0.17762  1.0000
  S   S504      1.0  0.83362  0.53567  0.22052  1.0000
  Fe  Fe253     1.0  0.85270  0.60406  0.21801  1.0000
  S   S505      1.0  0.86186  0.61231  0.18753  1.0000
  S   S506      1.0  0.85286  0.62844  0.23718  1.0000
  Fe  Fe254     1.0  0.83656  0.59790  0.17991  1.0000
  S   S507      1.0  0.81889  0.61166  0.15574  1.0000
  Fe  Fe255     1.0  0.87761  0.58361  0.18794  1.0000
  S   S508      1.0  0.90881  0.57622  0.18070  1.0000
  S   S509      1.0  0.82636  0.59141  0.21033  1.0000
  S   S510      1.0  0.86989  0.57607  0.21890  1.0000
  S   S511      1.0  0.89981  0.63639  0.30952  1.0000
  C   C1781     1.0  0.79408  0.61732  0.15424  1.0000
  C   C1782     1.0  0.78739  0.62600  0.13711  1.0000
  C   C1783     1.0  0.76795  0.63139  0.13542  1.0000
  C   C1784     1.0  0.78101  0.61398  0.16967  1.0000
  H   H3066     1.0  0.79734  0.62864  0.12505  1.0000
  H   H3067     1.0  0.78584  0.60711  0.18285  1.0000
  C   C1785     1.0  0.86570  0.63021  0.25755  1.0000
  C   C1786     1.0  0.87589  0.61460  0.26645  1.0000
  C   C1787     1.0  0.88613  0.61681  0.28232  1.0000
  C   C1788     1.0  0.88651  0.63465  0.28945  1.0000
  C   C1789     1.0  0.87636  0.65027  0.28052  1.0000
  C   C1790     1.0  0.86594  0.64802  0.26477  1.0000
  H   H3068     1.0  0.87577  0.60078  0.26121  1.0000
  H   H3069     1.0  0.89386  0.60460  0.28910  1.0000
  H   H3070     1.0  0.87643  0.66407  0.28582  1.0000
  H   H3071     1.0  0.85811  0.66022  0.25809  1.0000
  C   C1791     1.0  0.93066  0.52561  0.10696  1.0000
  H   H3072     1.0  0.94002  0.54723  0.14605  1.0000
  H   H3073     1.0  0.94372  0.53043  0.09909  1.0000
  H   H3074     1.0  0.76642  0.67148  0.19744  1.0000
  C   C1792     1.0  0.94935  0.60072  0.13308  1.0000
  C   C1793     1.0  0.93015  0.60748  0.13400  1.0000
  C   C1794     1.0  0.91737  0.60017  0.14848  1.0000
  C   C1795     1.0  0.92386  0.58629  0.16227  1.0000
  C   C1796     1.0  0.94310  0.58004  0.16166  1.0000
  C   C1797     1.0  0.95574  0.58709  0.14709  1.0000
  H   H3075     1.0  0.92512  0.61813  0.12327  1.0000
  H   H3076     1.0  0.90256  0.60520  0.14889  1.0000
  H   H3077     1.0  0.94829  0.56954  0.17246  1.0000
  H   H3078     1.0  0.97053  0.58224  0.14696  1.0000
  H   H3079     1.0  0.86415  0.52432  0.19300  1.0000
  C   C1798     1.0  0.89977  0.54090  0.15124  1.0000
  C   C1799     1.0  0.99633  0.50293  0.09181  1.0000
  H   H3080     1.0  0.94087  0.62480  0.24496  1.0000
  C   C1800     1.0  0.76162  0.61964  0.16807  1.0000
  H   H3081     1.0  0.89539  0.60034  0.33175  1.0000
  H   H3082     1.0  0.93245  0.59313  0.20789  1.0000
  N   N129      1.0  0.80763  0.66104  0.19500  1.0000
  C   C1801     1.0  0.82600  0.66733  0.18524  1.0000
  C   C1802     1.0  0.80223  0.67402  0.21052  1.0000
  C   C1803     1.0  0.79293  0.66360  0.18049  1.0000
  C   C1804     1.0  0.81075  0.64046  0.20232  1.0000
  C   C1805     1.0  0.83328  0.65759  0.16727  1.0000
  C   C1806     1.0  0.81611  0.67288  0.22639  1.0000
  C   C1807     1.0  0.91933  0.58068  0.33106  1.0000
  C   C1808     1.0  0.79637  0.63258  0.21798  1.0000
  H   H3083     1.0  0.82483  0.68290  0.18111  1.0000
  H   H3084     1.0  0.83769  0.66476  0.19498  1.0000
  H   H3085     1.0  0.78815  0.67165  0.21761  1.0000
  H   H3086     1.0  0.80072  0.68907  0.20442  1.0000
  H   H3087     1.0  0.79299  0.67806  0.17288  1.0000
  H   H3088     1.0  0.79627  0.65345  0.16944  1.0000
  H   H3089     1.0  0.81122  0.63120  0.19046  1.0000
  H   H3090     1.0  0.82498  0.63762  0.20804  1.0000
  H   H3091     1.0  0.82401  0.66137  0.15538  1.0000
  H   H3092     1.0  0.84743  0.66240  0.16234  1.0000
  H   H3093     1.0  0.83509  0.64201  0.17012  1.0000
  H   H3094     1.0  0.81905  0.65818  0.23276  1.0000
  H   H3095     1.0  0.82964  0.67897  0.22135  1.0000
  H   H3096     1.0  0.80974  0.68138  0.23796  1.0000
  H   H3097     1.0  0.88734  0.53392  0.15825  1.0000
  H   H3098     1.0  0.91932  0.52813  0.09680  1.0000
  H   H3099     1.0  0.89481  0.55590  0.14746  1.0000
  H   H3100     1.0  0.79024  0.62007  0.21323  1.0000
  S   S512      1.0  0.96810  0.69361  0.31789  1.0000
  H   H3101     1.0  0.80379  0.62742  0.23093  1.0000
  H   H3102     1.0  0.93240  0.63997  0.17475  1.0000
  C   C1809     1.0  0.94145  0.53509  0.13708  1.0000
  H   H3103     1.0  0.91527  0.66684  0.19257  1.0000
  S   S513      1.0  0.91135  0.69201  0.31747  1.0000
  S   S514      1.0  0.99950  0.56448  0.12404  1.0000
  H   H3104     1.0  0.78436  0.64246  0.22220  1.0000
  H   H3105     1.0  0.94070  0.56093  0.09038  1.0000
  H   H3106     1.0  0.86942  0.85910  0.33294  1.0000
  H   H3107     1.0  0.90071  0.67162  0.21403  1.0000
  C   C1810     1.0  0.75494  0.62842  0.15097  1.0000
  C   C1811     1.0  0.90711  0.53062  0.13361  1.0000
  C   C1812     1.0  0.92207  0.55737  0.11673  1.0000
  C   C1813     1.0  0.85580  0.51233  0.19693  1.0000
  H   H3108     1.0  0.91049  0.54023  0.16186  1.0000
  N   N130      1.0  0.92554  0.53674  0.12395  1.0000
  H   H3109     1.0  0.98820  0.52939  0.05085  1.0000
  H   H3110     1.0  0.90943  0.55950  0.10814  1.0000
  H   H3111     1.0  0.92351  0.61740  0.18256  1.0000
  H   H3112     1.0  0.93491  0.58188  0.10203  1.0000
  S   S515      1.0  0.98333  0.52217  0.10134  1.0000
  H   H3113     1.0  0.00121  0.55188  0.01329  1.0000
  C   C1814     1.0  0.84003  0.51419  0.20981  1.0000
  H   H3114     1.0  0.76337  0.66272  0.17534  1.0000
  H   H3115     1.0  0.91922  0.61463  0.25520  1.0000
  C   C1815     1.0  0.93851  0.56637  0.10458  1.0000
  H   H3116     1.0  0.91703  0.58137  0.22511  1.0000
  H   H3117     1.0  0.98444  0.53453  0.01593  1.0000
  H   H3118     1.0  0.93328  0.59657  0.23260  1.0000
  H   H3119     1.0  0.92588  0.63622  0.26252  1.0000
  H   H3120     1.0  0.99597  0.59653  0.03114  1.0000
  H   H3121     1.0  0.95195  0.56460  0.11175  1.0000
  H   H3122     1.0  0.89020  0.67070  0.19219  1.0000
  N   N131      1.0  0.91420  0.63125  0.21604  1.0000
  C   C1816     1.0  0.91444  0.63953  0.23484  1.0000
  C   C1817     1.0  0.90810  0.61118  0.21890  1.0000
  C   C1818     1.0  0.89915  0.64281  0.20509  1.0000
  C   C1819     1.0  0.93330  0.63243  0.20548  1.0000
  C   C1820     1.0  0.92590  0.62787  0.25001  1.0000
  C   C1821     1.0  0.92379  0.59490  0.22136  1.0000
  C   C1822     1.0  0.90179  0.66417  0.20089  1.0000
  C   C1823     1.0  0.93433  0.62713  0.18481  1.0000
  H   H3123     1.0  0.92029  0.65369  0.23294  1.0000
  H   H3124     1.0  0.89981  0.64200  0.24131  1.0000
  H   H3125     1.0  0.90046  0.60768  0.20667  1.0000
  H   H3126     1.0  0.89742  0.60971  0.23114  1.0000
  H   H3127     1.0  0.89767  0.63709  0.19123  1.0000
  H   H3128     1.0  0.88500  0.64160  0.21284  1.0000
  H   H3129     1.0  0.93818  0.64694  0.20519  1.0000
  H   H3130     1.0  0.94453  0.62361  0.21299  1.0000
  Fe  Fe256     1.0  0.93915  0.68681  0.33161  1.0000
  H   H3131     1.0  0.94080  0.52062  0.16578  1.0000
  C   C1824     1.0  0.93463  0.50399  0.11075  1.0000
  H   H3132     1.0  0.98210  0.55351  0.04292  1.0000
  H   H3133     1.0  0.77050  0.64625  0.19415  1.0000
  C   C1825     1.0  0.77228  0.66082  0.18770  1.0000
  H   H3134     1.0  0.89572  0.53268  0.12347  1.0000
  Fe  Fe257     1.0  0.99052  0.59006  0.10508  1.0000
  C   C1826     1.0  0.75712  0.58010  0.13291  1.0000
  H   H3135     1.0  0.95526  0.53643  0.12881  1.0000
  H   H3136     1.0  0.91554  0.57560  0.31760  1.0000
  H   H3137     1.0  0.90775  0.51528  0.13812  1.0000
  C   C1827     1.0  0.99350  0.54186  0.04214  1.0000
  H   H3138     1.0  0.99280  0.50181  0.02077  1.0000
  H   H3139     1.0  0.93445  0.50560  0.14868  1.0000
  C   C1828     1.0  0.99798  0.53807  0.02113  1.0000
  C   C1829     1.0  0.98870  0.69259  0.33085  1.0000
  C   C1830     1.0  0.94353  0.51695  0.15089  1.0000
  Fe  Fe258     1.0  0.99835  0.54893  0.09832  1.0000
  H   H3140     1.0  0.95839  0.51071  0.14961  1.0000
  H   H3141     1.0  0.75906  0.57978  0.11730  1.0000
  H   H3142     1.0  0.92911  0.59198  0.32695  1.0000
  H   H3143     1.0  0.75170  0.61719  0.18019  1.0000
  Fe  Fe259     1.0  0.91534  0.55398  0.51221  1.0000
  S   S516      1.0  0.92631  0.55771  0.48175  1.0000
  S   S517      1.0  0.90935  0.52584  0.52841  1.0000
  Fe  Fe260     1.0  0.91804  0.59564  0.51901  1.0000
  S   S518      1.0  0.92951  0.60254  0.48912  1.0000
  S   S519      1.0  0.91371  0.62147  0.53599  1.0000
  Fe  Fe261     1.0  0.90760  0.58490  0.48035  1.0000
  S   S520      1.0  0.89016  0.59555  0.45552  1.0000
  Fe  Fe262     1.0  0.94724  0.57511  0.49282  1.0000
  S   S521      1.0  0.97731  0.57418  0.48084  1.0000
  S   S522      1.0  0.89452  0.57975  0.51008  1.0000
  S   S523      1.0  0.93789  0.56963  0.52349  1.0000
  Fe  Fe263     1.0  0.90431  0.95462  0.41807  1.0000
  S   S524      1.0  0.91487  0.97976  0.39962  1.0000
  S   S525      1.0  0.90580  0.92379  0.41167  1.0000
  Fe  Fe264     1.0  0.89337  0.97713  0.45130  1.0000
  C   C1831     1.0  0.97101  0.62884  0.49818  1.0000
  Fe  Fe265     1.0  0.92865  0.98654  0.42544  1.0000
  C   C1832     1.0  0.76550  0.86100  0.65276  1.0000
  S   S526      1.0  0.87696  0.97020  0.42753  1.0000
  S   S527      1.0  0.92024  0.96020  0.44306  1.0000
  H   H3144     1.0  0.98497  0.63409  0.49371  1.0000
  S   S528      1.0  0.93738  0.96258  0.59199  1.0000
  H   H3145     1.0  0.89025  0.70034  0.44436  1.0000
  Fe  Fe266     1.0  0.90866  0.97526  0.60109  1.0000
  S   S529      1.0  0.88417  0.95931  0.61509  1.0000
  Fe  Fe267     1.0  0.94857  0.98822  0.60229  1.0000
  Fe  Fe268     1.0  0.91547  0.69404  0.64678  1.0000
  C   C1833     1.0  0.91159  0.98474  0.52346  1.0000
  C   C1834     1.0  0.88013  0.58779  0.56165  1.0000
  Fe  Fe269     1.0  0.91724  0.65174  0.64088  1.0000
  S   S530      1.0  0.91311  0.62613  0.62489  1.0000
  S   S531      1.0  0.93693  0.67444  0.63121  1.0000
  Fe  Fe270     1.0  0.84895  0.85669  0.60543  1.0000
  S   S532      1.0  0.82600  0.86832  0.58663  1.0000
  S   S533      1.0  0.87560  0.87157  0.60878  1.0000
  Fe  Fe271     1.0  0.83436  0.81664  0.61035  1.0000
  S   S534      1.0  0.81010  0.82595  0.59175  1.0000
  S   S535      1.0  0.83746  0.78496  0.62121  1.0000
  Fe  Fe272     1.0  0.83127  0.84132  0.57215  1.0000
  S   S536      1.0  0.83990  0.84087  0.54037  1.0000
  Fe  Fe273     1.0  0.80634  0.85228  0.60784  1.0000
  S   S537      1.0  0.77685  0.86743  0.61417  1.0000
  S   S538      1.0  0.85546  0.83050  0.58986  1.0000
  S   S539      1.0  0.82928  0.84208  0.62767  1.0000
  Fe  Fe274     1.0  0.82337  0.85661  0.40625  1.0000
  S   S540      1.0  0.79401  0.85193  0.41871  1.0000
  S   S541      1.0  0.82913  0.88757  0.40074  1.0000
  Fe  Fe275     1.0  0.83418  0.81414  0.40465  1.0000
  S   S542      1.0  0.80549  0.80649  0.41737  1.0000
  S   S543      1.0  0.86065  0.79445  0.39766  1.0000
  Fe  Fe276     1.0  0.79353  0.83061  0.39752  1.0000
  S   S544      1.0  0.76789  0.82689  0.38088  1.0000
  Fe  Fe277     1.0  0.80810  0.82871  0.43763  1.0000
  S   S545      1.0  0.79598  0.82660  0.46838  1.0000
  S   S546      1.0  0.82209  0.83677  0.38348  1.0000
  S   S547      1.0  0.83756  0.83486  0.42651  1.0000
  C   C1835     1.0  0.92915  0.98025  0.66023  1.0000
  S   S548      1.0  0.89272  0.66687  0.35452  1.0000
  H   H3146     1.0  0.90842  0.83721  0.35823  1.0000
  H   H3147     1.0  0.87428  0.59076  0.37163  1.0000
  H   H3148     1.0  0.94241  0.59135  0.35593  1.0000
  H   H3149     1.0  0.95343  0.66826  0.53283  1.0000
  C   C1836     1.0  0.87220  0.55554  0.55753  1.0000
  Fe  Fe278     1.0  0.92160  0.66387  0.36557  1.0000
  S   S549      1.0  0.93298  0.64766  0.39173  1.0000
  H   H3150     1.0  0.89787  0.84252  0.33655  1.0000
  S   S550      1.0  0.92667  0.69478  0.36009  1.0000
  N   N132      1.0  0.97927  0.96955  0.47825  1.0000
  C   C1837     1.0  0.98752  0.69375  0.35047  1.0000
  H   H3151     1.0  0.97379  0.69478  0.35813  1.0000
  H   H3152     1.0  0.85485  0.70699  0.41729  1.0000
  C   C1838     1.0  0.86392  0.77395  0.38464  1.0000
  C   C1839     1.0  0.84878  0.76571  0.37797  1.0000
  C   C1840     1.0  0.85206  0.74917  0.36820  1.0000
  C   C1841     1.0  0.87047  0.74063  0.36488  1.0000
  C   C1842     1.0  0.88565  0.74898  0.37139  1.0000
  C   C1843     1.0  0.88237  0.76549  0.38123  1.0000
  H   H3153     1.0  0.83452  0.77200  0.38043  1.0000
  C   C1844     1.0  0.85827  0.58636  0.59940  1.0000
  H   H3154     1.0  0.89991  0.74274  0.36882  1.0000
  H   H3155     1.0  0.89422  0.77174  0.38625  1.0000
  C   C1845     1.0  0.82740  0.83572  0.52096  1.0000
  C   C1846     1.0  0.83745  0.83408  0.50329  1.0000
  C   C1847     1.0  0.82809  0.83118  0.48710  1.0000
  C   C1848     1.0  0.80852  0.82977  0.48845  1.0000
  C   C1849     1.0  0.79852  0.83099  0.50622  1.0000
  C   C1850     1.0  0.80789  0.83398  0.52241  1.0000
  H   H3156     1.0  0.85259  0.83521  0.50208  1.0000
  H   H3157     1.0  0.83601  0.83000  0.47360  1.0000
  H   H3158     1.0  0.78339  0.82983  0.50745  1.0000
  H   H3159     1.0  0.79997  0.83525  0.53591  1.0000
  C   C1851     1.0  0.88890  0.74157  0.63168  1.0000
  C   C1852     1.0  0.87049  0.73575  0.63237  1.0000
  C   C1853     1.0  0.85499  0.74924  0.62934  1.0000
  C   C1854     1.0  0.85762  0.76870  0.62528  1.0000
  C   C1855     1.0  0.87605  0.77447  0.62430  1.0000
  C   C1856     1.0  0.89152  0.76101  0.62751  1.0000
  H   H3160     1.0  0.86820  0.72086  0.63509  1.0000
  H   H3161     1.0  0.84084  0.74455  0.62999  1.0000
  H   H3162     1.0  0.87838  0.78934  0.62125  1.0000
  H   H3163     1.0  0.85364  0.68435  0.39708  1.0000
  S   S551      1.0  0.93563  0.65589  0.33794  1.0000
  H   H3164     1.0  0.92301  0.94820  0.62841  1.0000
  H   H3165     1.0  0.84509  0.58609  0.60884  1.0000
  C   C1857     1.0  0.90484  0.50657  0.49700  1.0000
  H   H3166     1.0  0.89613  0.67455  0.40055  1.0000
  H   H3167     1.0  0.86393  0.83181  0.37879  1.0000
  C   C1858     1.0  0.99586  0.95948  0.50945  1.0000
  C   C1859     1.0  0.87742  0.89613  0.61005  1.0000
  C   C1860     1.0  0.89542  0.90322  0.60743  1.0000
  C   C1861     1.0  0.89759  0.92266  0.60825  1.0000
  C   C1862     1.0  0.88184  0.93507  0.61243  1.0000
  C   C1863     1.0  0.86388  0.92797  0.61529  1.0000
  C   C1864     1.0  0.86161  0.90864  0.61380  1.0000
  H   H3168     1.0  0.90771  0.89363  0.60450  1.0000
  H   H3169     1.0  0.91146  0.92795  0.60579  1.0000
  H   H3170     1.0  0.85162  0.93745  0.61868  1.0000
  H   H3171     1.0  0.84771  0.90332  0.61601  1.0000
  H   H3172     1.0  0.97901  0.51040  0.48130  1.0000
  C   C1865     1.0  0.76256  0.87156  0.63544  1.0000
  C   C1866     1.0  0.88433  0.91380  0.40912  1.0000
  C   C1867     1.0  0.86841  0.92516  0.40342  1.0000
  C   C1868     1.0  0.85166  0.91684  0.40075  1.0000
  C   C1869     1.0  0.85054  0.89719  0.40419  1.0000
  C   C1870     1.0  0.86626  0.88585  0.41041  1.0000
  C   C1871     1.0  0.88325  0.89409  0.41252  1.0000
  H   H3173     1.0  0.86915  0.94032  0.40059  1.0000
  H   H3174     1.0  0.83951  0.92572  0.39599  1.0000
  H   H3175     1.0  0.86528  0.87081  0.41369  1.0000
  H   H3176     1.0  0.89551  0.88526  0.41706  1.0000
  H   H3177     1.0  0.88148  0.82733  0.40550  1.0000
  H   H3178     1.0  0.96267  0.58831  0.56757  1.0000
  H   H3179     1.0  0.87340  0.76210  0.54168  1.0000
  C   C1872     1.0  0.89723  0.98692  0.51079  1.0000
  C   C1873     1.0  0.92555  0.96976  0.52239  1.0000
  H   H3180     1.0  0.87142  0.73730  0.56491  1.0000
  C   C1874     1.0  0.91137  0.95966  0.49535  1.0000
  H   H3181     1.0  0.98636  0.99769  0.48352  1.0000
  H   H3182     1.0  0.76263  0.85086  0.44969  1.0000
  C   C1875     1.0  0.90185  0.61009  0.43766  1.0000
  C   C1876     1.0  0.89171  0.62003  0.42312  1.0000
  C   C1877     1.0  0.90101  0.63160  0.40877  1.0000
  C   C1878     1.0  0.92045  0.63333  0.40904  1.0000
  C   C1879     1.0  0.93052  0.62334  0.42350  1.0000
  C   C1880     1.0  0.92130  0.61169  0.43767  1.0000
  H   H3183     1.0  0.87666  0.61874  0.42299  1.0000
  H   H3184     1.0  0.89322  0.63910  0.39754  1.0000
  H   H3185     1.0  0.94559  0.62451  0.42371  1.0000
  H   H3186     1.0  0.92935  0.60376  0.44848  1.0000
  C   C1881     1.0  0.91513  0.62271  0.56059  1.0000
  C   C1882     1.0  0.92035  0.60676  0.57264  1.0000
  C   C1883     1.0  0.92004  0.60811  0.59230  1.0000
  C   C1884     1.0  0.91525  0.62557  0.60000  1.0000
  C   C1885     1.0  0.91102  0.64173  0.58782  1.0000
  C   C1886     1.0  0.91079  0.64025  0.56821  1.0000
  H   H3187     1.0  0.92431  0.59337  0.56685  1.0000
  H   H3188     1.0  0.92348  0.59560  0.60166  1.0000
  H   H3189     1.0  0.90724  0.65521  0.59362  1.0000
  H   H3190     1.0  0.90693  0.65271  0.55895  1.0000
  H   H3191     1.0  0.91254  0.62045  0.37128  1.0000
  H   H3192     1.0  0.97768  0.55392  0.51831  1.0000
  H   H3193     1.0  0.88011  0.87969  0.37125  1.0000
  H   H3194     1.0  0.84256  0.87015  0.36713  1.0000
  H   H3195     1.0  0.90431  0.52024  0.48888  1.0000
  H   H3196     1.0  0.75970  0.86755  0.38582  1.0000
  C   C1887     1.0  0.91522  0.96469  0.66064  1.0000
  H   H3197     1.0  0.90566  0.76573  0.62689  1.0000
  S   S552      1.0  0.90445  0.99154  0.57306  1.0000
  H   H3198     1.0  0.88784  0.79449  0.54572  1.0000
  H   H3199     1.0  0.89250  0.80306  0.56759  1.0000
  H   H3200     1.0  0.95048  0.96186  0.47674  1.0000
  C   C1888     1.0  0.98233  0.97433  0.41580  1.0000
  N   N133      1.0  0.83598  0.89253  0.46744  1.0000
  C   C1889     1.0  0.85275  0.88085  0.47549  1.0000
  C   C1890     1.0  0.82372  0.89943  0.48408  1.0000
  C   C1891     1.0  0.84348  0.90932  0.45549  1.0000
  C   C1892     1.0  0.82597  0.88033  0.45566  1.0000
  C   C1893     1.0  0.86816  0.87325  0.46100  1.0000
  C   C1894     1.0  0.81563  0.88378  0.49820  1.0000
  C   C1895     1.0  0.82883  0.92346  0.44584  1.0000
  C   C1896     1.0  0.80504  0.88647  0.45195  1.0000
  H   H3201     1.0  0.85989  0.88906  0.48517  1.0000
  H   H3202     1.0  0.84810  0.86811  0.48429  1.0000
  H   H3203     1.0  0.81157  0.90913  0.47966  1.0000
  H   H3204     1.0  0.83183  0.90825  0.49231  1.0000
  H   H3205     1.0  0.85189  0.91752  0.46406  1.0000
  H   H3206     1.0  0.85334  0.90463  0.44368  1.0000
  H   H3207     1.0  0.83382  0.87911  0.44162  1.0000
  H   H3208     1.0  0.82608  0.86552  0.46239  1.0000
  H   H3209     1.0  0.87828  0.86306  0.46862  1.0000
  H   H3210     1.0  0.86226  0.86546  0.45026  1.0000
  H   H3211     1.0  0.87656  0.88473  0.45397  1.0000
  H   H3212     1.0  0.80444  0.89027  0.50788  1.0000
  H   H3213     1.0  0.80912  0.87295  0.49107  1.0000
  H   H3214     1.0  0.82663  0.87671  0.50731  1.0000
  H   H3215     1.0  0.83637  0.93530  0.43819  1.0000
  H   H3216     1.0  0.81822  0.92994  0.45602  1.0000
  H   H3217     1.0  0.82185  0.91689  0.43489  1.0000
  H   H3218     1.0  0.80305  0.88602  0.43664  1.0000
  H   H3219     1.0  0.79992  0.90092  0.45534  1.0000
  H   H3220     1.0  0.79556  0.87617  0.45958  1.0000
  N   N134      1.0  0.97876  0.62372  0.53375  1.0000
  C   C1897     1.0  0.96926  0.61500  0.55183  1.0000
  C   C1898     1.0  0.90112  0.58858  0.34166  1.0000
  C   C1899     1.0  0.88733  0.83801  0.39470  1.0000
  C   C1900     1.0  0.97064  0.61621  0.51709  1.0000
  H   H3221     1.0  0.94456  0.95357  0.63615  1.0000
  H   H3222     1.0  0.97093  0.97776  0.50642  1.0000
  C   C1901     1.0  0.89457  0.83786  0.35176  1.0000
  H   H3223     1.0  0.89848  0.93539  0.64810  1.0000
  C   C1902     1.0  0.86820  0.71379  0.41276  1.0000
  H   H3224     1.0  0.95109  0.92535  0.62105  1.0000
  C   C1903     1.0  0.97553  0.64498  0.53382  1.0000
  Fe  Fe279     1.0  0.89860  0.69763  0.34692  1.0000
  H   H3225     1.0  0.96463  0.93559  0.46558  1.0000
  H   H3226     1.0  0.97797  0.60227  0.51412  1.0000
  H   H3227     1.0  0.95554  0.61320  0.52038  1.0000
  H   H3228     1.0  0.94538  0.61560  0.34952  1.0000
  H   H3229     1.0  0.88641  0.88506  0.33506  1.0000
  C   C1904     1.0  0.97864  0.93437  0.47170  1.0000
  H   H3230     1.0  0.85852  0.60092  0.59232  1.0000
  H   H3231     1.0  0.92337  0.57178  0.36950  1.0000
  N   N135      1.0  0.90316  0.59532  0.36089  1.0000
  H   H3232     1.0  0.87479  0.81672  0.34625  1.0000
  H   H3233     1.0  0.94523  0.64609  0.52803  1.0000
  H   H3234     1.0  0.90527  0.96897  0.64929  1.0000
  C   C1905     1.0  0.97749  0.96520  0.49945  1.0000
  Fe  Fe280     1.0  0.93415  0.98075  0.56492  1.0000
  H   H3235     1.0  0.90915  0.87182  0.33755  1.0000
  H   H3236     1.0  0.90751  0.66767  0.42799  1.0000
  S   S553      1.0  0.87958  0.97745  0.48066  1.0000
  S   S554      1.0  0.98086  0.65780  0.66325  1.0000
  H   H3237     1.0  0.83837  0.87395  0.34271  1.0000
  H   H3238     1.0  0.87028  0.58353  0.60864  1.0000
  H   H3239     1.0  0.86940  0.61228  0.54400  1.0000
  H   H3240     1.0  0.96738  0.95424  0.50383  1.0000
  H   H3241     1.0  0.91385  0.62080  0.34631  1.0000
  S   S555      1.0  0.94336  0.96669  0.53832  1.0000
  H   H3242     1.0  0.87472  0.74441  0.58833  1.0000
  H   H3243     1.0  0.91844  0.57065  0.40284  1.0000
  H   H3244     1.0  0.88365  0.77039  0.57171  1.0000
  H   H3245     1.0  0.91928  0.59540  0.39599  1.0000
  C   C1906     1.0  0.89206  0.56159  0.58347  1.0000
  C   C1907     1.0  0.86427  0.59857  0.55035  1.0000
  C   C1908     1.0  0.91010  0.55403  0.57218  1.0000
  H   H3246     1.0  0.89261  0.58599  0.55141  1.0000
  H   H3247     1.0  0.89646  0.57289  0.59173  1.0000
  H   H3248     1.0  0.88803  0.55004  0.59434  1.0000
  H   H3249     1.0  0.98953  0.95685  0.45258  1.0000
  H   H3250     1.0  0.90202  0.86620  0.37231  1.0000
  H   H3251     1.0  0.85132  0.60205  0.55941  1.0000
  H   H3252     1.0  0.92093  0.99426  0.66033  1.0000
  H   H3253     1.0  0.76291  0.82299  0.42179  1.0000
  H   H3254     1.0  0.85343  0.73907  0.42356  1.0000
  H   H3255     1.0  0.89074  0.57753  0.34274  1.0000
  H   H3256     1.0  0.91477  0.56422  0.56042  1.0000
  N   N136      1.0  0.87270  0.93614  0.55140  1.0000
  C   C1909     1.0  0.87703  0.95447  0.55885  1.0000
  C   C1910     1.0  0.88849  0.92147  0.55652  1.0000
  C   C1911     1.0  0.85413  0.93037  0.56113  1.0000
  C   C1912     1.0  0.87132  0.93981  0.53029  1.0000
  C   C1913     1.0  0.86145  0.97095  0.55720  1.0000
  C   C1914     1.0  0.90843  0.92563  0.54793  1.0000
  C   C1915     1.0  0.85043  0.90917  0.56229  1.0000
  C   C1916     1.0  0.86900  0.92265  0.51910  1.0000
  H   H3257     1.0  0.88011  0.95208  0.57408  1.0000
  H   H3258     1.0  0.88996  0.96007  0.55131  1.0000
  H   H3259     1.0  0.88597  0.90721  0.55257  1.0000
  H   H3260     1.0  0.88916  0.91958  0.57213  1.0000
  H   H3261     1.0  0.85288  0.93402  0.57615  1.0000
  H   H3262     1.0  0.84197  0.93842  0.55429  1.0000
  H   H3263     1.0  0.85903  0.95003  0.52706  1.0000
  H   H3264     1.0  0.88355  0.94726  0.52352  1.0000
  H   H3265     1.0  0.86604  0.98321  0.56385  1.0000
  H   H3266     1.0  0.85919  0.97596  0.54222  1.0000
  Fe  Fe281     1.0  0.88881  0.99600  0.41174  1.0000
  H   H3267     1.0  0.90903  0.92741  0.53225  1.0000
  H   H3268     1.0  0.91368  0.93812  0.55358  1.0000
  H   H3269     1.0  0.91851  0.91337  0.55197  1.0000
  H   H3270     1.0  0.85220  0.90312  0.54844  1.0000
  H   H3271     1.0  0.83559  0.90751  0.56792  1.0000
  H   H3272     1.0  0.85957  0.90059  0.57243  1.0000
  H   H3273     1.0  0.85384  0.91998  0.51894  1.0000
  H   H3274     1.0  0.87717  0.90953  0.52426  1.0000
  H   H3275     1.0  0.87477  0.92575  0.50425  1.0000
  H   H3276     1.0  0.89095  0.85036  0.40184  1.0000
  H   H3277     1.0  0.86682  0.71903  0.39765  1.0000
  S   S556      1.0  0.87341  0.71896  0.35369  1.0000
  H   H3278     1.0  0.93408  0.99271  0.47198  1.0000
  H   H3279     1.0  0.90231  0.71738  0.39520  1.0000
  H   H3280     1.0  0.94947  0.65055  0.55191  1.0000
  H   H3281     1.0  0.93332  0.70782  0.40555  1.0000
  H   H3282     1.0  0.98545  0.99425  0.45929  1.0000
  C   C1917     1.0  0.88480  0.69068  0.43490  1.0000
  H   H3283     1.0  0.98328  0.65007  0.54523  1.0000
  H   H3284     1.0  0.92656  0.56840  0.33906  1.0000
  C   C1918     1.0  0.95467  0.65273  0.53678  1.0000
  H   H3285     1.0  0.86105  0.62486  0.36403  1.0000
  C   C1919     1.0  0.97253  0.59324  0.55558  1.0000
  H   H3286     1.0  0.97080  0.96569  0.41417  1.0000
  C   C1920     1.0  0.96889  0.50513  0.49288  1.0000
  H   H3287     1.0  0.87038  0.72762  0.43916  1.0000
  C   C1921     1.0  0.88373  0.60260  0.36849  1.0000
  H   H3288     1.0  0.93587  0.94525  0.50782  1.0000
  H   H3289     1.0  0.90173  0.66991  0.45241  1.0000
  H   H3290     1.0  0.84019  0.74287  0.36326  1.0000
  H   H3291     1.0  0.87778  0.74164  0.41753  1.0000
  S   S557      1.0  0.97454  0.98104  0.61916  1.0000
  S   S558      1.0  0.89477  0.67170  0.65439  1.0000
  C   C1922     1.0  0.98853  0.95303  0.46817  1.0000
  H   H3292     1.0  0.88454  0.60882  0.38220  1.0000
  H   H3293     1.0  0.86814  0.52621  0.55356  1.0000
  H   H3294     1.0  0.95992  0.97399  0.45576  1.0000
  H   H3295     1.0  0.97720  0.92940  0.48696  1.0000
  H   H3296     1.0  0.92183  0.55133  0.58181  1.0000
  H   H3297     1.0  0.86991  0.68870  0.44033  1.0000
  H   H3298     1.0  0.84382  0.76190  0.59015  1.0000
  H   H3299     1.0  0.84386  0.78553  0.52004  1.0000
  H   H3300     1.0  0.88640  0.99851  0.51167  1.0000
  C   C1923     1.0  0.88981  0.86959  0.36331  1.0000
  H   H3301     1.0  0.76663  0.78992  0.43514  1.0000
  H   H3302     1.0  0.95368  0.61800  0.55192  1.0000
  H   H3303     1.0  0.99082  0.63805  0.37247  1.0000
  C   C1924     1.0  0.88409  0.68546  0.40037  1.0000
  C   C1925     1.0  0.86583  0.67490  0.40210  1.0000
  H   H3304     1.0  0.86244  0.66874  0.41674  1.0000
  C   C1926     1.0  0.86414  0.85608  0.34797  1.0000
  H   H3305     1.0  0.82062  0.77891  0.54501  1.0000
  H   H3306     1.0  0.86075  0.59084  0.53838  1.0000
  H   H3307     1.0  0.84905  0.75893  0.54012  1.0000
  H   H3308     1.0  0.88524  0.69268  0.38577  1.0000
  C   C1927     1.0  0.90953  0.57864  0.37428  1.0000
  H   H3309     1.0  0.97366  0.62140  0.56442  1.0000
  N   N137      1.0  0.85475  0.77505  0.56316  1.0000
  H   H3310     1.0  0.98706  0.58889  0.55988  1.0000
  H   H3311     1.0  0.96734  0.62034  0.48678  1.0000
  H   H3312     1.0  0.88806  0.81033  0.36695  1.0000
  N   N138      1.0  0.87559  0.56900  0.57193  1.0000
  C   C1928     1.0  0.89728  0.97453  0.49660  1.0000
  H   H3313     1.0  0.90053  0.83090  0.38865  1.0000
  C   C1929     1.0  0.99062  0.56096  0.51539  1.0000
  H   H3314     1.0  0.96969  0.58579  0.54318  1.0000
  H   H3315     1.0  0.88430  0.55463  0.54668  1.0000
  H   H3316     1.0  0.92473  0.69375  0.42593  1.0000
  C   C1930     1.0  0.91613  0.61129  0.35942  1.0000
  C   C1931     1.0  0.88861  0.81737  0.35233  1.0000
  H   H3317     1.0  0.86867  0.78263  0.51557  1.0000
  H   H3318     1.0  0.94273  0.60790  0.37383  1.0000
  C   C1932     1.0  0.92190  0.69858  0.41105  1.0000
  H   H3319     1.0  0.88431  0.59758  0.57167  1.0000
  C   C1933     1.0  0.86770  0.73140  0.42406  1.0000
  H   H3320     1.0  0.88223  0.62928  0.34970  1.0000
  S   S559      1.0  0.90909  0.72545  0.63608  1.0000
  C   C1934     1.0  0.92536  0.95712  0.50842  1.0000
  H   H3321     1.0  0.98736  0.69810  0.65375  1.0000
  C   C1935     1.0  0.93767  0.60575  0.35980  1.0000
  H   H3322     1.0  0.89962  0.56721  0.37463  1.0000
  H   H3323     1.0  0.90824  0.54036  0.56644  1.0000
  C   C1936     1.0  0.87311  0.61802  0.35564  1.0000
  H   H3324     1.0  0.86236  0.85451  0.38642  1.0000
  H   H3325     1.0  0.84522  0.57446  0.57705  1.0000
  H   H3326     1.0  0.77725  0.85034  0.65371  1.0000
  C   C1937     1.0  0.86828  0.53519  0.56557  1.0000
  H   H3327     1.0  0.85977  0.56085  0.54942  1.0000
  H   H3328     1.0  0.98135  0.65235  0.52048  1.0000
  H   H3329     1.0  0.96026  0.64106  0.49868  1.0000
  C   C1938     1.0  0.97847  0.99296  0.42062  1.0000
  H   H3330     1.0  0.87928  0.52846  0.57479  1.0000
  C   C1939     1.0  0.90726  0.50540  0.51645  1.0000
  C   C1940     1.0  0.95954  0.97351  0.47150  1.0000
  H   H3331     1.0  0.85735  0.72859  0.58532  1.0000
  H   H3332     1.0  0.86862  0.78575  0.58564  1.0000
  H   H3333     1.0  0.85573  0.55764  0.59378  1.0000
  H   H3334     1.0  0.81261  0.77532  0.56982  1.0000
  C   C1941     1.0  0.88108  0.79863  0.55946  1.0000
  H   H3335     1.0  0.89691  0.58532  0.40247  1.0000
  C   C1942     1.0  0.94233  0.92384  0.63466  1.0000
  C   C1943     1.0  0.85897  0.76945  0.54318  1.0000
  H   H3336     1.0  0.85420  0.53481  0.57340  1.0000
  C   C1944     1.0  0.87200  0.78180  0.57087  1.0000
  H   H3337     1.0  0.95172  0.91729  0.64559  1.0000
  H   H3338     1.0  0.84196  0.80364  0.55671  1.0000
  C   C1945     1.0  0.85810  0.57122  0.58513  1.0000
  C   C1946     1.0  0.87261  0.84395  0.37988  1.0000
  H   H3339     1.0  0.87106  0.81126  0.55715  1.0000
  C   C1947     1.0  0.84892  0.75788  0.57577  1.0000
  H   H3340     1.0  0.97612  0.50235  0.50619  1.0000
  H   H3341     1.0  0.83640  0.79398  0.57974  1.0000
  H   H3342     1.0  0.88575  0.65947  0.43940  1.0000
  C   C1948     1.0  0.81946  0.78512  0.55881  1.0000
  C   C1949     1.0  0.83870  0.79020  0.56483  1.0000
  C   C1950     1.0  0.89562  0.67093  0.43837  1.0000
  C   C1951     1.0  0.86418  0.74125  0.57850  1.0000
  Fe  Fe282     1.0  0.94968  0.66711  0.65930  1.0000
  H   H3343     1.0  0.85907  0.79996  0.53075  1.0000
  H   H3344     1.0  0.93141  0.91405  0.63261  1.0000
  H   H3345     1.0  0.86762  0.66310  0.39275  1.0000
  H   H3346     1.0  0.85587  0.84341  0.34803  1.0000
  H   H3347     1.0  0.83671  0.75182  0.57022  1.0000
  H   H3348     1.0  0.91118  0.94984  0.48461  1.0000
  H   H3349     1.0  0.90344  0.72163  0.41939  1.0000
  H   H3350     1.0  0.91308  0.91681  0.65924  1.0000
  N   N139      1.0  0.88521  0.69963  0.41475  1.0000
  C   C1952     1.0  0.85742  0.78552  0.52688  1.0000
  H   H3351     1.0  0.80983  0.79827  0.55739  1.0000
  C   C1953     1.0  0.94849  0.99202  0.47724  1.0000
  C   C1954     1.0  0.91106  0.58301  0.39497  1.0000
  H   H3352     1.0  0.92327  0.68643  0.40224  1.0000
  N   N140      1.0  0.92373  0.94470  0.65878  1.0000
  C   C1955     1.0  0.75322  0.81858  0.43417  1.0000
  C   C1956     1.0  0.90271  0.71022  0.40983  1.0000
  N   N141      1.0  0.88031  0.85189  0.36073  1.0000
  C   C1957     1.0  0.90764  0.93186  0.66021  1.0000
  H   H3353     1.0  0.91205  0.99494  0.53375  1.0000
  H   H3354     1.0  0.98739  0.92315  0.46442  1.0000
  H   H3355     1.0  0.84789  0.96735  0.56488  1.0000
  H   H3356     1.0  0.86704  0.61183  0.34385  1.0000
  C   C1958     1.0  0.93336  0.94358  0.63923  1.0000
  C   C1959     1.0  0.99406  0.57133  0.49789  1.0000
  H   H3357     1.0  0.85600  0.88649  0.35165  1.0000
  H   H3358     1.0  0.94656  0.99259  0.49280  1.0000
  C   C1960     1.0  0.98993  0.98705  0.47297  1.0000
  C   C1961     1.0  0.89759  0.88038  0.34491  1.0000
  C   C1962     1.0  0.84967  0.87265  0.35286  1.0000
  H   H3359     1.0  0.99232  0.95100  0.52302  1.0000
  H   H3360     1.0  0.95992  0.95590  0.66050  1.0000
  H   H3361     1.0  0.89931  0.80882  0.34383  1.0000
  S   S560      1.0  0.91976  0.99984  0.61371  1.0000
  H   H3362     1.0  0.76079  0.82058  0.44691  1.0000
  C   C1963     1.0  0.00085  0.69009  0.65542  1.0000
  C   C1964     1.0  0.99605  0.99116  0.61131  1.0000
  C   C1965     1.0  0.99969  0.61811  0.53425  1.0000
  H   H3363     1.0  0.93885  0.98102  0.64729  1.0000
  H   H3364     1.0  0.95790  0.51683  0.49566  1.0000
  H   H3365     1.0  0.90367  0.89339  0.34861  1.0000
  C   C1966     1.0  0.75215  0.79696  0.43399  1.0000
  H   H3366     1.0  0.75185  0.87365  0.44260  1.0000
  C   C1967     1.0  0.00121  0.96685  0.41301  1.0000
  C   C1968     1.0  0.90331  0.73568  0.68578  1.0000
  C   C1969     1.0  0.77685  0.55475  0.85708  1.0000
  H   H3367     1.0  0.90790  0.72244  0.67916  1.0000
  H   H3368     1.0  0.80801  0.53683  0.81205  1.0000
  H   H3369     1.0  0.82128  0.52618  0.88869  1.0000
  S   S561      1.0  0.96433  0.54780  0.89128  1.0000
  Fe  Fe283     1.0  0.83314  0.58894  0.83056  1.0000
  S   S562      1.0  0.83924  0.56844  0.80780  1.0000
  S   S563      1.0  0.80173  0.59862  0.83657  1.0000
  Fe  Fe284     1.0  0.87514  0.58762  0.83813  1.0000
  S   S564      1.0  0.88387  0.56710  0.81637  1.0000
  S   S565      1.0  0.89678  0.59988  0.85459  1.0000
  Fe  Fe285     1.0  0.86410  0.58555  0.79770  1.0000
  S   S566      1.0  0.87390  0.59058  0.76617  1.0000
  Fe  Fe286     1.0  0.85845  0.55177  0.82807  1.0000
  S   S567      1.0  0.86129  0.52007  0.83803  1.0000
  S   S568      1.0  0.85674  0.60714  0.81889  1.0000
  S   S569      1.0  0.85107  0.57129  0.85132  1.0000
  H   H3370     1.0  0.77985  0.56892  0.85006  1.0000
  H   H3371     1.0  0.87986  0.74626  0.72274  1.0000
  H   H3372     1.0  0.99868  0.51372  0.92179  1.0000
  Fe  Fe287     1.0  0.91020  0.66482  0.68121  1.0000
  S   S570      1.0  0.89529  0.66373  0.71113  1.0000
  H   H3373     1.0  0.92550  0.60593  0.74571  1.0000
  H   H3374     1.0  0.90667  0.96572  0.67430  1.0000
  H   H3375     1.0  0.83427  0.53744  0.86832  1.0000
  H   H3376     1.0  0.82058  0.53545  0.84202  1.0000
  H   H3377     1.0  0.84902  0.74450  0.70748  1.0000
  C   C1970     1.0  0.87935  0.61125  0.75110  1.0000
  C   C1971     1.0  0.88757  0.60905  0.73269  1.0000
  C   C1972     1.0  0.89265  0.62486  0.72036  1.0000
  C   C1973     1.0  0.88944  0.64320  0.72623  1.0000
  C   C1974     1.0  0.88119  0.64543  0.74465  1.0000
  C   C1975     1.0  0.87619  0.62959  0.75701  1.0000
  H   H3378     1.0  0.89008  0.59496  0.72792  1.0000
  H   H3379     1.0  0.89892  0.62285  0.70627  1.0000
  H   H3380     1.0  0.87853  0.65952  0.74935  1.0000
  H   H3381     1.0  0.86968  0.63157  0.77101  1.0000
  C   C1976     1.0  0.84026  0.73981  0.68020  1.0000
  H   H3382     1.0  0.84275  0.69809  0.68635  1.0000
  C   C1977     1.0  0.78804  0.60610  0.85711  1.0000
  C   C1978     1.0  0.76826  0.60938  0.85643  1.0000
  C   C1979     1.0  0.00113  0.52017  0.98434  1.0000
  H   H3383     1.0  0.79655  0.55160  0.88815  1.0000
  C   C1980     1.0  0.78469  0.61487  0.88967  1.0000
  C   C1981     1.0  0.79616  0.60865  0.87396  1.0000
  H   H3384     1.0  0.90851  0.73501  0.70018  1.0000
  H   H3385     1.0  0.95230  0.58810  0.79195  1.0000
  H   H3386     1.0  0.81132  0.60623  0.87478  1.0000
  H   H3387     1.0  0.85855  0.68615  0.70329  1.0000
  C   C1982     1.0  0.94572  0.56273  0.88128  1.0000
  C   C1983     1.0  0.94497  0.58251  0.88098  1.0000
  C   C1984     1.0  0.92984  0.59374  0.87287  1.0000
  C   C1985     1.0  0.91540  0.58532  0.86493  1.0000
  C   C1986     1.0  0.91622  0.56557  0.86513  1.0000
  C   C1987     1.0  0.93126  0.55438  0.87332  1.0000
  H   H3388     1.0  0.95597  0.58913  0.88710  1.0000
  H   H3389     1.0  0.92928  0.60902  0.87281  1.0000
  H   H3390     1.0  0.90517  0.55893  0.85911  1.0000
  H   H3391     1.0  0.93158  0.53918  0.87362  1.0000
  H   H3392     1.0  0.95252  0.51276  0.86936  1.0000
  C   C1988     1.0  0.91340  0.61461  0.80899  1.0000
  H   H3393     1.0  0.86088  0.68093  0.67925  1.0000
  C   C1989     1.0  0.80556  0.50623  0.86248  1.0000
  H   H3394     1.0  0.80852  0.56565  0.86977  1.0000
  C   C1990     1.0  0.93389  0.60558  0.75834  1.0000
  C   C1991     1.0  0.79727  0.53789  0.82417  1.0000
  H   H3395     1.0  0.96144  0.94911  0.68502  1.0000
  H   H3396     1.0  0.90269  0.60390  0.80987  1.0000
  C   C1992     1.0  0.80539  0.55075  0.87464  1.0000
  H   H3397     1.0  0.91976  0.50872  0.87325  1.0000
  C   C1993     1.0  0.87718  0.71705  0.71461  1.0000
  H   H3398     1.0  0.78615  0.54884  0.81942  1.0000
  C   C1994     1.0  0.84992  0.73236  0.69850  1.0000
  H   H3399     1.0  0.89380  0.63548  0.79381  1.0000
  C   C1995     1.0  0.95731  0.94426  0.67158  1.0000
  H   H3400     1.0  0.88478  0.94510  0.67853  1.0000
  N   N142      1.0  0.79503  0.54246  0.85994  1.0000
  C   C1996     1.0  0.88171  0.73980  0.68597  1.0000
  H   H3401     1.0  0.84102  0.72177  0.70659  1.0000
  N   N143      1.0  0.87011  0.72435  0.69560  1.0000
  H   H3402     1.0  0.93788  0.92249  0.67667  1.0000
  H   H3403     1.0  0.76177  0.60746  0.84351  1.0000
  H   H3404     1.0  0.87807  0.75355  0.69220  1.0000
  H   H3405     1.0  0.96380  0.63719  0.80846  1.0000
  H   H3406     1.0  0.86832  0.70586  0.72158  1.0000
  S   S571      1.0  0.99934  0.58675  0.90713  1.0000
  H   H3407     1.0  0.76162  0.54501  0.88417  1.0000
  H   H3408     1.0  0.88609  0.70057  0.68346  1.0000
  C   C1997     1.0  0.87168  0.70801  0.68327  1.0000
  C   C1998     1.0  0.87731  0.73186  0.72922  1.0000
  H   H3409     1.0  0.87837  0.74284  0.67089  1.0000
  H   H3410     1.0  0.88908  0.72774  0.73859  1.0000
  C   C1999     1.0  0.89440  0.93197  0.67846  1.0000
  H   H3411     1.0  0.76800  0.54858  0.84729  1.0000
  H   H3412     1.0  0.91206  0.64600  0.80513  1.0000
  C   C2000     1.0  0.85755  0.69264  0.68857  1.0000
  H   H3413     1.0  0.94340  0.59106  0.82865  1.0000
  H   H3414     1.0  0.94487  0.61576  0.75467  1.0000
  H   H3415     1.0  0.82517  0.74422  0.68390  1.0000
  H   H3416     1.0  0.93051  0.94331  0.68809  1.0000
  H   H3417     1.0  0.96134  0.61304  0.81665  1.0000
  C   C2001     1.0  0.80676  0.54379  0.84133  1.0000
  H   H3418     1.0  0.90836  0.60219  0.77626  1.0000
  H   H3419     1.0  0.84676  0.75253  0.67311  1.0000
  H   H3420     1.0  0.93840  0.63819  0.78726  1.0000
  H   H3421     1.0  0.95596  0.61973  0.78258  1.0000
  C   C2002     1.0  0.79015  0.52247  0.86637  1.0000
  C   C2003     1.0  0.93752  0.58981  0.79830  1.0000
  H   H3422     1.0  0.92316  0.57860  0.82492  1.0000
  H   H3423     1.0  0.91457  0.62598  0.77122  1.0000
  H   H3424     1.0  0.94299  0.63137  0.82257  1.0000
  H   H3425     1.0  0.83088  0.54839  0.88994  1.0000
  H   H3426     1.0  0.91879  0.61378  0.82329  1.0000
  H   H3427     1.0  0.89150  0.70939  0.71318  1.0000
  C   C2004     1.0  0.95337  0.62629  0.81137  1.0000
  H   H3428     1.0  0.92957  0.57963  0.79151  1.0000
  H   H3429     1.0  0.84051  0.72891  0.66996  1.0000
  C   C2005     1.0  0.93766  0.58170  0.81925  1.0000
  H   H3430     1.0  0.83678  0.51611  0.80719  1.0000
  C   C2006     1.0  0.75676  0.61540  0.87222  1.0000
  C   C2007     1.0  0.76493  0.61841  0.88892  1.0000
  H   H3431     1.0  0.94058  0.59096  0.76059  1.0000
  C   C2008     1.0  0.90257  0.63429  0.80619  1.0000
  H   H3432     1.0  0.81059  0.55861  0.83766  1.0000
  H   H3433     1.0  0.76942  0.56889  0.88327  1.0000
  C   C2009     1.0  0.92046  0.61130  0.77535  1.0000
  H   H3434     1.0  0.94644  0.56800  0.82024  1.0000
  N   N144      1.0  0.92909  0.60998  0.79425  1.0000
  Fe  Fe288     1.0  0.98906  0.55786  0.90548  1.0000
  H   H3435     1.0  0.86373  0.73263  0.73804  1.0000
  H   H3436     1.0  0.98970  0.53179  0.98480  1.0000
  S   S572      1.0  0.92995  0.68816  0.67426  1.0000
  H   H3437     1.0  0.89257  0.63621  0.81879  1.0000
  C   C2010     1.0  0.94414  0.62389  0.79290  1.0000
  C   C2011     1.0  0.93671  0.93828  0.67441  1.0000
  H   H3438     1.0  0.79121  0.61718  0.90247  1.0000
  S   S573      1.0  0.93093  0.64338  0.66831  1.0000
  H   H3439     1.0  0.78592  0.52126  0.88183  1.0000
  H   H3440     1.0  0.91022  0.74730  0.67703  1.0000
  S   S574      1.0  0.99299  0.54910  0.93634  1.0000
  H   H3441     1.0  0.92852  0.50524  0.83906  1.0000
  H   H3442     1.0  0.77759  0.51906  0.85921  1.0000
  C   C2012     1.0  0.99652  0.59495  0.00078  1.0000
  H   H3443     1.0  0.94926  0.51047  0.90156  1.0000
  H   H3444     1.0  0.79124  0.52395  0.82708  1.0000
  C   C2013     1.0  0.76386  0.55825  0.87502  1.0000
  C   C2014     1.0  0.82397  0.53985  0.88047  1.0000
  H   H3445     1.0  0.98424  0.50543  0.87136  1.0000
  H   H3446     1.0  0.82033  0.51018  0.86139  1.0000
  H   H3447     1.0  0.75541  0.85570  0.68211  1.0000
  H   H3448     1.0  0.99541  0.50631  0.98879  1.0000
  H   H3449     1.0  0.92383  0.50888  0.90365  1.0000
  H   H3450     1.0  0.96735  0.93188  0.66862  1.0000
  H   H3451     1.0  0.90224  0.92992  0.69149  1.0000
  S   S575      1.0  0.99757  0.59449  0.96201  1.0000
  H   H3452     1.0  0.88513  0.92005  0.67888  1.0000
  C   C2015     1.0  0.75302  0.86406  0.66886  1.0000
  H   H3453     1.0  0.93733  0.97863  0.67304  1.0000
  H   H3454     1.0  0.98266  0.60232  0.99950  1.0000
  C   C2016     1.0  0.84133  0.50213  0.81332  1.0000
  H   H3455     1.0  0.90421  0.50228  0.84549  1.0000
  H   H3456     1.0  0.87013  0.71306  0.66816  1.0000
  S   S576      1.0  0.75134  0.62699  0.90904  1.0000
