data_image0
_chemical_formula_structural       FeS2FeS2FeSFeS3FeS2HC2NCHFeS2CHFeCH4C2H3C6H9C6H4SCH2CHNC4NC3H3CSH7SC2H7CHC2H2C2FeC2HCHCH12FeHCH2C2H5CH2CH2CH5CH2CHNC2H6CH3CH3CH3CHC2HFeS2FeS2FeSFeS3FeS2FeS2FeSFeS3CFeS4FeS3FeS2H2CSFeS2FeS2FeSFeS3C3H5CHC6H4C6H6CHCH2CHNC6H4C6H3C6H4C6H5FeHCFeH5C2H6SCNC8H19CHSHC4H2NC4HC3H6CHCH11NC5H13CHCH7FeSHC3SHCHCH4CH3C4H3CH2CHCH3C2HNCH5C3H3CH2CH2CHCHCH7SH6CHCHC2H3C2HC2H2C2H2NHNH8FeH2C3H6CNH4SHFeCHCFeH2SC2HCHCH2NCHCH2CH2NHC2HCHCHCHCHC2H4CNH2CH3CH3CH5CHCH4NC2SH2SFeS2FeS2FeSFeS3FeS2FeS2HFeH3S2CHC3H3C2HC6H4C6H4C2H6CH3CHC2HCHSHC2HC3H9CH2SH3NH2CHC2H6CH5CH4NH2CH2CH5CHC2H2CH3CH5CHC2HC2H2FeCSH4CHFeS2FeS2FeSFeS3FeS2CH4C6H5C2H5CH2C6H10SCH4C2NC8H9CH2CHCH9CHCH3FeHSCH3CH2C2H2NC5H15NCHC3HC2H5C4H3CHCHFeCH2CSCHCHC3HNH3SH2CH2NH2FeS2FeS2FeS2FeS2FeSFeS3FeS2FeS2FeSFeS3FeS2FeS2FeSFeS3FeS2HC3H2FeS2HCH3CH3CH3SHFeH2C8H5CHC6H4C6H4C2H3C3HC6H3C6H4C7H4C6H5CH2NH3NH3CH4CHCH4CHCHC5NC8H23CH2C3H6CH3CHCH8CHCH4CHCH11SCHC3H2NSCH5SH3C2H2CFeHC2H3CH3SHC3H2FeHN2CH5C6HCHCH10CHC3H4NH6CH7CNHCH3C2HCH3CHC6H4C2H2CH6SC2H2FeH2C3HSH4C3H2SHNCFeS2FeS2FeS2FeHFeS3FeHSH3NHCHC2H2CHCH2C6H6CNC7H8NC8H11C2H2CH4SH3CSH10CH5C3H9CSCH2SHC2H7FeH3CHCH2CH2NC8H2C3H6CHSH5C2H4CH4CHCHFeSFeS2FeS2FeSFeS3FeS2HFeS2FeS2FeSFeS3C2HFeS2CHCHCHC2NCH2CHCH2C6H5CH2C8H6CH2C6H4C6H4CHCHCH2NH3CH5C2H2SH4CHNC4FeC3H7CHSH11FeHC3HCHCHSH8NC4H2CH3C2SH4C2H4FeSHCH3NC8H20NC5H6CH4CH5CH3CH2CNH8SC3H2NH3CH4CH2SC2SHSH2SH2FeSFeSCH2SFeS2HC2HCSCHSHNHC6H4CHCNH2C2H2C6H7C2H3CHCH3C2H2CH5C2H3CFeH2NCHSH4CH3CHCH4CHCH3CSH3C2FeH2FeHCH2CH3C2FeHCHSHSFeSH3FeS2FeS2FeSFeS3CH2CH2FeS2FeS2FeS2FeSFeS3FeS2HCHCH5C6H4C3H2NH2C6H4CHCH2C6H4FeC7H4FeCHCH2NC8H6SH10CH2NC4H2CHCHSHCH2CHCH2CFeHCH4NHCH3CH2CH7SCNCHCH2NH2CHCHCHCH2SH3CHNC2H2C2H12CH3FeCHCH3C2HCHCH2CH2CH3S2C3H3CHC2HCHCH6C2H2CHCHC2HCH6CHCH2CH6CH2CHCH6CH4C2H2FeSHCH4CH3FeSFeS2FeS2FeSFeS3FeS2CH4FeS2FeS2FeSFeS3FeCHFeS2HFeH3C2H2C3HC7H4CH4C6H4C6H4CHC6H4CHC4NC7H14C2HCHCH3CHCH3CH6CHC2HCHCH3SH3CH2CH2NH3NHCH2CH2C2H3C2H2C2HCHSHC2H6C2H6CHCNHSHNSH2C2HCHCH2CH2CH2NC7H12NH5CHCHCHC2H2CSHCH18SHCH3CH3CH4CH3CSH2SHFeS3NFeHSCHSHFeS2C7H6CH3CH5CHC10H3CSHCHSH3C2HCH4SC2HCHC2HCNCSHCFeH3C2HC2H3C2FeH2CHCH2SCSCH2CH3NCH4CH2NH3CH2CHFeH6SH3CHCH3CH4C2H4CH2FeC2H2C2H4CH3FeH9SFeHSH2CH2SHFeS2FeS2FeSFeS3FeS2FeS2FeS2FeSFeS3H2SH7CH4CHCSHC6H5CH3CHC6H4C2H2FeC6H5C7H9NC6H15SNC4HCH12CH2SHCHCH6CH2CH6CNHCHC2HC2HFeNCHC3HC2H3CH11CH5NC3H5CHC2H2C2HSHFeCHCH3C2H4C2HNC2SH2C3H2NC7H6SH2CH2CH2CH3CFeSFeS2FeS2FeSFeS3FeS2FeS2FeS2FeSFeS3HCH2SHFeS2CH2CH4C4H4C6H4SH5C7H4C6H4C2H2SC6H5NC8H20NC4H12CHFeHC2H4CH3FeC2HNHC2HCH2C2NC5HCH12C3HCH3FeCH10CH3CHCH6SH4NC8H19C3H2CSCHCH2CHCHC3H3NCH2NH6CH2CHCHCHSCHCSFeS2FeHFeCFeSFeSCSHSCHC3SFeS2HCSHCH6C7H5CHC2FeCH4FeCHSFeHC6H5NH3CH2CHCH2CH4NH2CHC2H2CSCH2CH3CSH2CH3SHSH3SCH4CH5SC3H2CHC3H2C3H5CH2CH3C2HCHNH2C2H3FeHSCHS2FeS2FeS2FeSFeS3FeS2H4CHFeS2FeS2FeSFeS4CH4FeS2HCH2CHC6H4CHCH4C6H4C6H4C3H2CH2C6H4CHNC8H17C3H2CH7CFeHCH10CH3CH3CHCH7C3H2CHCH2CH2CHCH2NH2CNCSC3H3CH8SH2CH5C3HCNFeH4CNH5CNCHCHC2HFeCHCH2CH3CNHCSC2H3C4SH4NHCH2C4HFeSHCH7C2H5C2HCH2SFeHCH2SFeSFeS2FeS2FeSFeS3H2CFeSNFeS2FeS2FeS2FeSFeS3FeS2CHC3HCH3C3H2C6H8CHC8H4CHC3HCHC6H4C6H5CH2NC7H17CH2CNCHCHC5H3CH8CH2CH4SHC2H10C2H4C3H3CH3SH4C2HNH4C2HC2HCHCH3CHC3H3C2HC2H7NH2CHCH3C2H7SC2HCH2CFeCHCH3SHNH2CHNCH8CH2NCHC2H2C3H6CH2CH5CH2CH6C2H5SHCHC3H4SHSH2FeS2HCSCHCFeSH2CHSH2CH2CHFeS2C10H5SC3HCH6C3H2SCHSH2C6H3CH2C2HNH4CHSH3CH2FeCSHCNC4HC3H12CH8FeNFeCHC3H2C2H3SH4CH3NH3FeH2FeHCH2C2H5C2H8CH2FeHSH2S2FeS2FeS2FeSFeS3FeS2FeS2FeS2FeSFeS3FeS2H2CH3C6H4CH2SH5C7H4C6H4C3SHCH2C6H10FeHNHCH2CHCHCH5NC6HCH13FeH2CH3CHCHCHCHC2HCH5CH5SH2CHC2H2CHCHCHNC3HC2H6CH3CHC2H3CH2CH3CH3C4H2N2HC3H3CHCH5SHNH2CH4SH2C2H3CH5C2HSCHCH7FeS2FeS2FeSFeS3H2CH3FeS2FeHS2CH7C6H4CHC2HC6H8SHCH3CHSNCH2C2HCH3CH5NC6H3NH11CH2NC8H11CH5NH2CH3C5HCH4CH3CH4FeH2C6HCH3FeS2FeS2FeSFeS3FeS2FeS2FeSFeS3HCH2CFeSH3SHCH3FeS2FeS2H2CFeS2FeS2FeSFeS4HC6H6C6H5C2HCHC6H4C6H4C2H2CSHC6H4C6H5C2H2CH2C2HC3H3FeCHSCH2NH4CSCH3CH4SH2NHNC8H21CH2C2H2CH4CHFeH2CHNHCH3CH2CHCHCH2FeH7NC8H22CH2CHCH2SCHSH4CH3CH2C2HCNH3C2HCHC5HCH11NCH3CHC2NH2SHCHFeH6C3H2CH4CH2C3H4CHCHC2NH7C3HCH8CH4C3SH3CFeH2CHC2SCHCH4C2HCHCHC4H2CNFe2S2FeS2FeSFeS3FeS2FeS2HCH4C2H2S2HCHSHC6H4C3H2C6H6C2H8C5H2CH4NC2H2C2HNFeH8C2HCH4CH2C2HC2H7C5H3NH3C4H4NH4C2HCH2CH7CHCH5CH2CSHCHC2H3C2H4CH14CHCH2CHSCFeS2FeS2FeS2FeSFeS3C3FeS2HCHC6H4NH3CH2C2HC6H4SNHCH4CSH3CHCH2SCHCHCH2FeCH2CH2NH2C2H2CH2CH4CH2CHCH3CH6C2HCH3CH3CH2C2H9CH2CHFeH2FeS2H2FeS2FeS2FeS2FeSFeS3FeS2FeS2FeSFeS3FeS2FeS2FeSFeS3FeS2FeS2HCNCH2C6H4C2HCHCHC6H4C6H12C2H2CHC7H2C6H4C6H3C6H4C2HCNHC2FeH2CNCH9SH4C2HNC8H25NH2NC8H19CH2C2HSH7NSHSCHCSCH2SCH18CNHC2HSNH3CH3CFeH6CH3CSHCHCH3CH2CHCH2C4HC3HC2H4CH3C4HCH3CHC2H2C2H13SH5NC4HC4H5CH6FeH5CH3C2SFeCHCHCH2C2HCH2CFeCHC2NCH2CHFeS2FeS2FeS2FeSFeS3H3FeS2H2C6H4C2NH4C2H3C7H4CH3SH2CH2C3HCH7CHFeC2H2C4HCSHCH2CHCH3NH3CHCH3CH6CHNHCH6CH3C2H2SH2CHCSH5CH3CH3FeC2
_chemical_formula_sum              "Fe288 S576 H3456 C2016 N144"
_cell_length_a       70.9701
_cell_length_b       70.788
_cell_length_c       70.8865
_cell_angle_alpha    84.3319
_cell_angle_beta     84.3185
_cell_angle_gamma    84.2307

_space_group_name_H-M_alt    "P 1"
_space_group_IT_number       1

loop_
  _space_group_symop_operation_xyz
  'x, y, z'

loop_
  _atom_site_type_symbol
  _atom_site_label
  _atom_site_symmetry_multiplicity
  _atom_site_fract_x
  _atom_site_fract_y
  _atom_site_fract_z
  _atom_site_occupancy
  Fe  Fe1       1.0  0.18538  0.40490  0.14547  1.0000
  S   S1        1.0  0.16193  0.38541  0.14567  1.0000
  S   S2        1.0  0.21489  0.40246  0.12877  1.0000
  Fe  Fe2       1.0  0.15898  0.43552  0.16513  1.0000
  S   S3        1.0  0.13412  0.41801  0.16649  1.0000
  S   S4        1.0  0.15070  0.46385  0.17801  1.0000
  Fe  Fe3       1.0  0.15382  0.39290  0.17611  1.0000
  S   S5        1.0  0.14067  0.37123  0.19906  1.0000
  Fe  Fe4       1.0  0.14374  0.41202  0.13631  1.0000
  S   S6        1.0  0.11992  0.41724  0.11629  1.0000
  S   S7        1.0  0.17853  0.41071  0.17648  1.0000
  S   S8        1.0  0.16733  0.43118  0.13444  1.0000
  Fe  Fe5       1.0  0.09484  0.40739  0.01103  1.0000
  S   S9        1.0  0.06416  0.41529  0.01991  1.0000
  S   S10       1.0  0.11769  0.39668  0.03094  1.0000
  H   H1        1.0  0.16420  0.42166  0.22979  1.0000
  C   C1        1.0  0.15144  0.42582  0.22190  1.0000
  C   C2        1.0  0.08681  0.47496  0.04903  1.0000
  N   N1        1.0  0.12258  0.47353  0.03732  1.0000
  C   C3        1.0  0.17973  0.48516  0.16136  1.0000
  H   H2        1.0  0.07896  0.33061  0.02172  1.0000
  Fe  Fe6       1.0  0.10297  0.34398  0.31050  1.0000
  S   S11       1.0  0.08942  0.31936  0.30172  1.0000
  S   S12       1.0  0.12378  0.36115  0.29019  1.0000
  C   C4        1.0  0.14575  0.44439  0.04718  1.0000
  H   H3        1.0  0.15401  0.43945  0.21335  1.0000
  Fe  Fe7       1.0  0.06633  0.44027  0.99819  1.0000
  C   C5        1.0  0.16945  0.32567  0.25027  1.0000
  H   H4        1.0  0.17918  0.08485  0.32036  1.0000
  H   H5        1.0  0.08808  0.39776  0.21299  1.0000
  H   H6        1.0  0.22675  0.35227  0.02260  1.0000
  H   H7        1.0  0.12311  0.44193  0.19905  1.0000
  C   C6        1.0  0.16268  0.30882  0.31273  1.0000
  C   C7        1.0  0.14187  0.46624  0.04365  1.0000
  H   H8        1.0  0.13674  0.32090  0.30126  1.0000
  H   H9        1.0  0.08068  0.46462  0.04106  1.0000
  H   H10       1.0  0.08012  0.38367  0.05694  1.0000
  C   C8        1.0  0.13611  0.36891  0.22442  1.0000
  C   C9        1.0  0.12084  0.35875  0.23279  1.0000
  C   C10       1.0  0.11656  0.35658  0.25276  1.0000
  C   C11       1.0  0.12773  0.36426  0.26477  1.0000
  C   C12       1.0  0.14310  0.37428  0.25642  1.0000
  C   C13       1.0  0.14729  0.37656  0.23644  1.0000
  H   H11       1.0  0.11210  0.35267  0.22371  1.0000
  H   H12       1.0  0.10464  0.34891  0.25884  1.0000
  H   H13       1.0  0.15200  0.38013  0.26550  1.0000
  H   H14       1.0  0.15940  0.38393  0.23036  1.0000
  H   H15       1.0  0.24052  0.32321  0.07964  1.0000
  H   H16       1.0  0.15344  0.47140  0.03324  1.0000
  H   H17       1.0  0.09406  0.34525  0.00630  1.0000
  H   H18       1.0  0.18603  0.47232  0.15524  1.0000
  H   H19       1.0  0.05452  0.37828  0.03657  1.0000
  C   C14       1.0  0.11992  0.41165  0.09243  1.0000
  C   C15       1.0  0.13518  0.40104  0.08323  1.0000
  C   C16       1.0  0.13434  0.39672  0.06434  1.0000
  C   C17       1.0  0.11835  0.40309  0.05441  1.0000
  C   C18       1.0  0.10314  0.41381  0.06355  1.0000
  C   C19       1.0  0.10392  0.41799  0.08248  1.0000
  H   H20       1.0  0.14755  0.39604  0.09072  1.0000
  H   H21       1.0  0.14614  0.38834  0.05741  1.0000
  H   H22       1.0  0.09073  0.41876  0.05612  1.0000
  H   H23       1.0  0.09203  0.42616  0.08952  1.0000
  S   S13       1.0  0.03341  0.38179  0.00276  1.0000
  C   C20       1.0  0.11883  0.46488  0.01963  1.0000
  H   H24       1.0  0.07807  0.47653  0.06277  1.0000
  H   H25       1.0  0.22177  0.36378  0.14774  1.0000
  C   C21       1.0  0.23380  0.36658  0.13758  1.0000
  H   H26       1.0  0.17636  0.31243  0.24453  1.0000
  N   N2        1.0  0.07227  0.35616  0.05124  1.0000
  C   C22       1.0  0.08641  0.35638  0.03381  1.0000
  C   C23       1.0  0.07885  0.36916  0.06441  1.0000
  C   C24       1.0  0.05322  0.36418  0.04478  1.0000
  C   C25       1.0  0.07161  0.33585  0.05984  1.0000
  N   N3        1.0  0.15305  0.30590  0.27901  1.0000
  C   C26       1.0  0.09801  0.36249  0.07262  1.0000
  C   C27       1.0  0.03656  0.36692  0.06020  1.0000
  C   C28       1.0  0.06287  0.33272  0.08070  1.0000
  H   H27       1.0  0.08830  0.37130  0.02785  1.0000
  H   H28       1.0  0.10075  0.35014  0.03746  1.0000
  H   H29       1.0  0.06844  0.37171  0.07675  1.0000
  C   C29       1.0  0.24116  0.34986  0.04872  1.0000
  S   S14       1.0  0.05220  0.46886  0.00515  1.0000
  H   H30       1.0  0.04818  0.35488  0.03492  1.0000
  H   H31       1.0  0.06360  0.32775  0.05109  1.0000
  H   H32       1.0  0.08622  0.32835  0.05930  1.0000
  H   H33       1.0  0.15069  0.41464  0.21222  1.0000
  H   H34       1.0  0.12665  0.32050  0.27036  1.0000
  H   H35       1.0  0.02491  0.43161  0.00718  1.0000
  H   H36       1.0  0.07963  0.42042  0.21997  1.0000
  S   S15       1.0  0.03371  0.33891  0.30692  1.0000
  C   C30       1.0  0.17050  0.09793  0.32453  1.0000
  C   C31       1.0  0.16385  0.32295  0.27192  1.0000
  H   H37       1.0  0.08598  0.42729  0.27137  1.0000
  H   H38       1.0  0.02390  0.37348  0.05306  1.0000
  H   H39       1.0  0.05120  0.32322  0.08146  1.0000
  H   H40       1.0  0.05686  0.34572  0.08734  1.0000
  H   H41       1.0  0.07369  0.32526  0.08981  1.0000
  H   H42       1.0  0.11001  0.29397  0.26467  1.0000
  H   H43       1.0  0.01157  0.44767  0.02233  1.0000
  C   C32       1.0  0.10756  0.46812  0.05289  1.0000
  H   H44       1.0  0.10785  0.45237  0.05544  1.0000
  C   C33       1.0  0.01044  0.43555  0.01396  1.0000
  C   C34       1.0  0.13395  0.46726  0.00258  1.0000
  H   H45       1.0  0.14393  0.43681  0.03461  1.0000
  H   H46       1.0  0.15579  0.09680  0.32094  1.0000
  C   C35       1.0  0.12286  0.29054  0.27259  1.0000
  C   C36       1.0  0.09738  0.42170  0.26092  1.0000
  Fe  Fe8       1.0  0.06265  0.33091  0.31827  1.0000
  C   C37       1.0  0.99494  0.33842  0.31154  1.0000
  C   C38       1.0  0.14669  0.30781  0.29973  1.0000
  H   H47       1.0  0.14787  0.45958  0.00558  1.0000
  C   C39       1.0  0.16591  0.28795  0.27576  1.0000
  H   H48       1.0  0.23257  0.35795  0.05985  1.0000
  C   C40       1.0  0.16130  0.26964  0.28858  1.0000
  H   H49       1.0  0.13827  0.29614  0.30613  1.0000
  H   H50       1.0  0.16631  0.28470  0.26066  1.0000
  H   H51       1.0  0.22848  0.37454  0.03144  1.0000
  H   H52       1.0  0.15563  0.33638  0.27597  1.0000
  H   H53       1.0  0.18082  0.29017  0.27804  1.0000
  H   H54       1.0  0.10052  0.46883  0.19434  1.0000
  H   H55       1.0  0.13005  0.27704  0.26764  1.0000
  H   H56       1.0  0.11769  0.28847  0.28783  1.0000
  H   H57       1.0  0.16459  0.25716  0.28008  1.0000
  H   H58       1.0  0.14637  0.26918  0.29459  1.0000
  H   H59       1.0  0.17076  0.26699  0.30034  1.0000
  H   H60       1.0  0.17972  0.33669  0.24737  1.0000
  Fe  Fe9       1.0  0.05794  0.40006  0.99518  1.0000
  H   H61       1.0  0.09817  0.34801  0.08013  1.0000
  C   C41       1.0  0.16269  0.48480  0.17303  1.0000
  H   H62       1.0  0.10057  0.37235  0.08319  1.0000
  H   H63       1.0  0.11251  0.40074  0.23108  1.0000
  C   C42       1.0  0.08168  0.34559  0.01721  1.0000
  C   C43       1.0  0.09170  0.41277  0.21199  1.0000
  H   H64       1.0  0.08533  0.48913  0.04098  1.0000
  H   H65       1.0  0.12501  0.45826  0.21610  1.0000
  H   H66       1.0  0.09118  0.46787  0.21867  1.0000
  H   H67       1.0  0.10354  0.45012  0.24957  1.0000
  H   H68       1.0  0.13678  0.43866  0.05971  1.0000
  C   C44       1.0  0.11087  0.41315  0.22032  1.0000
  H   H69       1.0  0.12179  0.40944  0.20862  1.0000
  H   H70       1.0  0.08654  0.44993  0.20357  1.0000
  C   C45       1.0  0.11596  0.44740  0.21238  1.0000
  H   H71       1.0  0.13566  0.48248  0.99800  1.0000
  H   H72       1.0  0.13437  0.41481  0.24633  1.0000
  C   C46       1.0  0.09999  0.43689  0.24389  1.0000
  H   H73       1.0  0.11036  0.41843  0.26860  1.0000
  H   H74       1.0  0.03251  0.35314  0.06742  1.0000
  H   H75       1.0  0.08571  0.44062  0.23879  1.0000
  H   H76       1.0  0.09280  0.40835  0.25660  1.0000
  H   H77       1.0  0.13586  0.43983  0.24489  1.0000
  C   C47       1.0  0.09728  0.45890  0.20716  1.0000
  H   H78       1.0  0.09261  0.41838  0.19675  1.0000
  H   H79       1.0  0.17455  0.29764  0.31049  1.0000
  C   C48       1.0  0.13570  0.30698  0.26810  1.0000
  H   H80       1.0  0.03910  0.37685  0.07060  1.0000
  N   N4        1.0  0.11469  0.43134  0.22805  1.0000
  C   C49       1.0  0.13371  0.42795  0.23634  1.0000
  C   C50       1.0  0.99674  0.44021  0.99822  1.0000
  H   H81       1.0  0.14407  0.47199  0.05722  1.0000
  H   H82       1.0  0.13969  0.30723  0.25253  1.0000
  H   H83       1.0  0.15701  0.33119  0.24234  1.0000
  H   H84       1.0  0.00647  0.42292  0.02357  1.0000
  H   H85       1.0  0.00149  0.47898  0.01350  1.0000
  H   H86       1.0  0.11045  0.47251  0.06691  1.0000
  C   C51       1.0  0.23386  0.38413  0.12661  1.0000
  H   H87       1.0  0.11699  0.44940  0.02267  1.0000
  H   H88       1.0  0.11014  0.36307  0.06152  1.0000
  H   H89       1.0  0.23515  0.33582  0.04982  1.0000
  C   C52       1.0  0.23645  0.36046  0.02931  1.0000
  H   H90       1.0  0.16072  0.44085  0.05053  1.0000
  H   H91       1.0  0.17736  0.32234  0.27880  1.0000
  H   H92       1.0  0.10507  0.47124  0.01452  1.0000
  C   C53       1.0  0.01252  0.32825  0.31494  1.0000
  H   H93       1.0  0.17574  0.11048  0.31573  1.0000
  H   H94       1.0  0.99463  0.35269  0.30445  1.0000
  H   H95       1.0  0.16820  0.32308  0.31069  1.0000
  C   C54       1.0  0.06843  0.48561  0.99747  1.0000
  H   H96       1.0  0.06951  0.35306  0.00993  1.0000
  C   C55       1.0  0.99473  0.38392  0.00091  1.0000
  C   C56       1.0  0.01279  0.30990  0.32427  1.0000
  H   H97       1.0  0.99415  0.37741  0.01540  1.0000
  Fe  Fe10      1.0  0.14569  0.14480  0.39934  1.0000
  S   S16       1.0  0.13538  0.16469  0.42157  1.0000
  S   S17       1.0  0.12867  0.12403  0.38707  1.0000
  Fe  Fe11      1.0  0.18612  0.15781  0.39462  1.0000
  S   S18       1.0  0.17865  0.17913  0.41675  1.0000
  S   S19       1.0  0.21415  0.15477  0.37519  1.0000
  Fe  Fe12      1.0  0.16324  0.15590  0.43401  1.0000
  S   S20       1.0  0.16287  0.14432  0.46527  1.0000
  Fe  Fe13      1.0  0.15114  0.18673  0.40284  1.0000
  S   S21       1.0  0.13519  0.21665  0.40064  1.0000
  S   S22       1.0  0.17258  0.13422  0.41284  1.0000
  S   S23       1.0  0.15958  0.16730  0.37963  1.0000
  Fe  Fe14      1.0  0.14940  0.13774  0.59536  1.0000
  S   S24       1.0  0.14027  0.16862  0.58771  1.0000
  S   S25       1.0  0.13068  0.11320  0.59657  1.0000
  Fe  Fe15      1.0  0.19104  0.14522  0.60074  1.0000
  S   S26       1.0  0.18439  0.17692  0.59348  1.0000
  S   S27       1.0  0.22153  0.13014  0.60223  1.0000
  Fe  Fe16      1.0  0.15673  0.17425  0.61187  1.0000
  S   S28       1.0  0.14300  0.19223  0.63574  1.0000
  Fe  Fe17      1.0  0.16838  0.16876  0.56989  1.0000
  S   S29       1.0  0.17220  0.18422  0.54013  1.0000
  S   S30       1.0  0.16438  0.14296  0.62071  1.0000
  S   S31       1.0  0.17644  0.13750  0.57596  1.0000
  C   C57       1.0  0.22027  0.08101  0.36036  1.0000
  Fe  Fe18      1.0  0.02061  0.09524  0.41177  1.0000
  S   S32       1.0  0.04014  0.11934  0.40917  1.0000
  S   S33       1.0  0.02815  0.06380  0.41843  1.0000
  S   S34       1.0  0.02178  0.08252  0.56613  1.0000
  S   S35       1.0  0.11253  0.27390  0.32929  1.0000
  Fe  Fe19      1.0  0.02037  0.10105  0.59023  1.0000
  S   S36       1.0  0.04101  0.12319  0.59302  1.0000
  S   S37       1.0  0.07736  0.31463  0.64496  1.0000
  S   S38       1.0  0.07704  0.36747  0.62954  1.0000
  Fe  Fe20      1.0  0.08366  0.33865  0.35191  1.0000
  S   S39       1.0  0.06931  0.31333  0.34530  1.0000
  S   S40       1.0  0.07231  0.34699  0.38154  1.0000
  H   H98       1.0  0.13399  0.32424  0.60532  1.0000
  H   H99       1.0  0.21857  0.08262  0.37584  1.0000
  C   C58       1.0  0.99678  0.00987  0.41710  1.0000
  S   S41       1.0  0.11232  0.32813  0.33801  1.0000
  Fe  Fe21      1.0  0.07056  0.42247  0.49810  1.0000
  S   S42       1.0  0.10111  0.41045  0.49456  1.0000
  S   S43       1.0  0.05791  0.45328  0.49890  1.0000
  Fe  Fe22      1.0  0.05648  0.38291  0.50283  1.0000
  S   S44       1.0  0.08579  0.36782  0.49991  1.0000
  S   S45       1.0  0.03098  0.36617  0.50688  1.0000
  Fe  Fe23      1.0  0.09288  0.38909  0.51906  1.0000
  S   S46       1.0  0.11152  0.38096  0.54347  1.0000
  Fe  Fe24      1.0  0.09108  0.39017  0.47563  1.0000
  S   S47       1.0  0.10794  0.38253  0.44779  1.0000
  S   S48       1.0  0.06305  0.40243  0.52378  1.0000
  S   S49       1.0  0.06110  0.40392  0.47738  1.0000
  C   C59       1.0  0.01037  0.38193  0.50680  1.0000
  C   C60       1.0  0.00950  0.39912  0.51516  1.0000
  C   C61       1.0  0.00488  0.47089  0.52372  1.0000
  H   H100      1.0  0.09482  0.24225  0.63312  1.0000
  H   H101      1.0  0.05702  0.42830  0.56236  1.0000
  H   H102      1.0  0.02158  0.40274  0.52174  1.0000
  H   H103      1.0  0.05740  0.06954  0.51787  1.0000
  H   H104      1.0  0.00836  0.46964  0.46390  1.0000
  C   C62       1.0  0.21457  0.14683  0.53965  1.0000
  H   H105      1.0  0.10369  0.20994  0.34205  1.0000
  C   C63       1.0  0.08222  0.35819  0.39909  1.0000
  C   C64       1.0  0.07138  0.36057  0.41655  1.0000
  C   C65       1.0  0.07892  0.36836  0.43141  1.0000
  C   C66       1.0  0.09747  0.37380  0.42902  1.0000
  C   C67       1.0  0.10829  0.37157  0.41149  1.0000
  C   C68       1.0  0.10068  0.36390  0.39654  1.0000
  H   H106      1.0  0.05710  0.35618  0.41872  1.0000
  H   H107      1.0  0.07045  0.36997  0.44482  1.0000
  H   H108      1.0  0.12262  0.37583  0.40949  1.0000
  H   H109      1.0  0.10915  0.36226  0.38315  1.0000
  C   C69       1.0  0.08679  0.36999  0.60559  1.0000
  C   C70       1.0  0.10645  0.36916  0.60093  1.0000
  C   C71       1.0  0.11379  0.37284  0.58188  1.0000
  C   C72       1.0  0.10159  0.37700  0.56727  1.0000
  C   C73       1.0  0.08193  0.37767  0.57191  1.0000
  C   C74       1.0  0.07458  0.37447  0.59103  1.0000
  H   H110      1.0  0.11598  0.36611  0.61209  1.0000
  H   H111      1.0  0.12902  0.37239  0.57843  1.0000
  H   H112      1.0  0.07237  0.38079  0.56082  1.0000
  H   H113      1.0  0.05935  0.37541  0.59456  1.0000
  H   H114      1.0  0.11098  0.26846  0.55423  1.0000
  H   H115      1.0  0.10091  0.11007  0.63111  1.0000
  C   C75       1.0  0.14918  0.31379  0.38853  1.0000
  H   H116      1.0  0.01737  0.25144  0.65468  1.0000
  C   C76       1.0  0.13779  0.21743  0.63466  1.0000
  H   H117      1.0  0.07962  0.23105  0.60721  1.0000
  H   H118      1.0  0.15425  0.29842  0.38976  1.0000
  C   C77       1.0  0.13983  0.22900  0.61755  1.0000
  H   H119      1.0  0.19472  0.12052  0.52809  1.0000
  N   N5        1.0  0.22385  0.14784  0.51949  1.0000
  C   C78       1.0  0.06620  0.11981  0.59147  1.0000
  C   C79       1.0  0.07654  0.13594  0.58915  1.0000
  C   C80       1.0  0.09645  0.13409  0.58960  1.0000
  C   C81       1.0  0.10618  0.11606  0.59278  1.0000
  C   C82       1.0  0.09591  0.09988  0.59461  1.0000
  C   C83       1.0  0.07601  0.10172  0.59390  1.0000
  H   H120      1.0  0.06907  0.14999  0.58722  1.0000
  H   H121      1.0  0.10416  0.14664  0.58807  1.0000
  H   H122      1.0  0.10332  0.08586  0.59705  1.0000
  H   H123      1.0  0.06821  0.08919  0.59577  1.0000
  C   C84       1.0  0.12987  0.23261  0.38051  1.0000
  C   C85       1.0  0.11813  0.24952  0.38340  1.0000
  C   C86       1.0  0.11288  0.26236  0.36790  1.0000
  C   C87       1.0  0.11935  0.25848  0.34929  1.0000
  C   C88       1.0  0.13106  0.24156  0.34637  1.0000
  C   C89       1.0  0.13630  0.22867  0.36188  1.0000
  H   H124      1.0  0.11281  0.25251  0.39772  1.0000
  H   H125      1.0  0.10351  0.27507  0.37025  1.0000
  H   H126      1.0  0.14531  0.21572  0.35945  1.0000
  C   C90       1.0  0.16369  0.15658  0.48579  1.0000
  C   C91       1.0  0.16935  0.17506  0.48467  1.0000
  C   C92       1.0  0.17135  0.18358  0.50146  1.0000
  C   C93       1.0  0.16768  0.17374  0.51949  1.0000
  C   C94       1.0  0.16157  0.15546  0.52061  1.0000
  C   C95       1.0  0.15964  0.14692  0.50384  1.0000
  H   H127      1.0  0.17255  0.18262  0.47088  1.0000
  H   H128      1.0  0.17606  0.19773  0.50046  1.0000
  H   H129      1.0  0.15865  0.14773  0.53437  1.0000
  H   H130      1.0  0.15528  0.13262  0.50486  1.0000
  C   C96       1.0  0.10465  0.12092  0.39539  1.0000
  C   C97       1.0  0.09467  0.13216  0.40891  1.0000
  C   C98       1.0  0.07507  0.13082  0.41366  1.0000
  C   C99       1.0  0.06530  0.11796  0.40526  1.0000
  C   C100      1.0  0.07547  0.10603  0.39247  1.0000
  C   C101      1.0  0.09503  0.10762  0.38746  1.0000
  H   H131      1.0  0.10192  0.14229  0.41530  1.0000
  H   H132      1.0  0.06732  0.14014  0.42353  1.0000
  H   H133      1.0  0.06810  0.09620  0.38577  1.0000
  H   H134      1.0  0.10262  0.09882  0.37703  1.0000
  H   H135      1.0  0.22110  0.13509  0.64325  1.0000
  Fe  Fe25      1.0  0.09738  0.30400  0.32979  1.0000
  H   H136      1.0  0.19318  0.07049  0.35747  1.0000
  C   C102      1.0  0.06364  0.44055  0.55424  1.0000
  Fe  Fe26      1.0  0.00702  0.06650  0.44380  1.0000
  H   H137      1.0  0.13606  0.23835  0.33202  1.0000
  H   H138      1.0  0.24157  0.12160  0.52489  1.0000
  H   H139      1.0  0.18686  0.07630  0.38844  1.0000
  H   H140      1.0  0.03246  0.36555  0.33648  1.0000
  H   H141      1.0  0.99594  0.28724  0.33647  1.0000
  C   C103      1.0  0.07078  0.47312  0.50054  1.0000
  C   C104      1.0  0.09051  0.47131  0.50125  1.0000
  H   H142      1.0  0.17527  0.13727  0.33296  1.0000
  H   H143      1.0  0.09844  0.45753  0.50016  1.0000
  H   H144      1.0  0.09043  0.23179  0.34686  1.0000
  H   H145      1.0  0.19857  0.10957  0.37944  1.0000
  H   H146      1.0  0.12018  0.14542  0.62142  1.0000
  H   H147      1.0  0.05602  0.44362  0.54116  1.0000
  S   S50       1.0  0.00106  0.03549  0.38526  1.0000
  C   C105      1.0  0.13500  0.24885  0.61723  1.0000
  N   N6        1.0  0.05162  0.10011  0.47620  1.0000
  C   C106      1.0  0.03160  0.10857  0.48146  1.0000
  C   C107      1.0  0.05480  0.08181  0.48879  1.0000
  C   C108      1.0  0.05293  0.09602  0.45554  1.0000
  C   C109      1.0  0.06509  0.11452  0.47908  1.0000
  C   C110      1.0  0.02469  0.12673  0.46917  1.0000
  C   C111      1.0  0.05384  0.08380  0.51037  1.0000
  C   C112      1.0  0.06828  0.08051  0.44884  1.0000
  C   C113      1.0  0.08655  0.10832  0.47622  1.0000
  H   H148      1.0  0.02126  0.09790  0.48072  1.0000
  H   H149      1.0  0.02979  0.11248  0.49639  1.0000
  H   H150      1.0  0.06876  0.07397  0.48504  1.0000
  H   H151      1.0  0.04425  0.07182  0.48650  1.0000
  H   H152      1.0  0.03929  0.09129  0.45198  1.0000
  H   H153      1.0  0.05520  0.10921  0.44605  1.0000
  H   H154      1.0  0.06286  0.12742  0.46895  1.0000
  H   H155      1.0  0.06196  0.12021  0.49327  1.0000
  H   H156      1.0  0.02036  0.02154  0.54490  1.0000
  H   H157      1.0  0.18389  0.14226  0.35495  1.0000
  H   H158      1.0  0.08277  0.42519  0.60546  1.0000
  H   H159      1.0  0.06427  0.09327  0.51388  1.0000
  H   H160      1.0  0.08269  0.08278  0.45221  1.0000
  H   H161      1.0  0.06874  0.08068  0.43309  1.0000
  H   H162      1.0  0.06461  0.06608  0.45477  1.0000
  H   H163      1.0  0.09201  0.11090  0.46102  1.0000
  H   H164      1.0  0.09043  0.09334  0.48138  1.0000
  H   H165      1.0  0.09429  0.11678  0.48482  1.0000
  H   H166      1.0  0.06012  0.12941  0.63159  1.0000
  C   C114      1.0  0.13707  0.31984  0.40664  1.0000
  H   H167      1.0  0.07274  0.21729  0.37496  1.0000
  S   S51       1.0  0.01049  0.07813  0.61231  1.0000
  H   H168      1.0  0.23423  0.18721  0.48731  1.0000
  C   C115      1.0  0.18804  0.13700  0.34081  1.0000
  C   C116      1.0  0.07272  0.15817  0.36799  1.0000
  C   C117      1.0  0.02586  0.32301  0.38222  1.0000
  C   C118      1.0  0.08994  0.21607  0.34858  1.0000
  H   H169      1.0  0.13301  0.27971  0.40738  1.0000
  H   H170      1.0  0.05040  0.22793  0.65625  1.0000
  N   N7        1.0  0.12076  0.30801  0.41368  1.0000
  C   C119      1.0  0.99561  0.30162  0.32965  1.0000
  C   C120      1.0  0.10933  0.31784  0.42962  1.0000
  C   C121      1.0  0.10872  0.30795  0.39728  1.0000
  C   C122      1.0  0.12884  0.28805  0.41992  1.0000
  H   H171      1.0  0.11034  0.32601  0.45829  1.0000
  C   C123      1.0  0.12054  0.32169  0.44619  1.0000
  C   C124      1.0  0.08946  0.29948  0.40163  1.0000
  C   C125      1.0  0.11616  0.27593  0.43438  1.0000
  H   H172      1.0  0.07878  0.18198  0.34819  1.0000
  H   H173      1.0  0.03912  0.02316  0.52639  1.0000
  H   H174      1.0  0.09725  0.30993  0.43600  1.0000
  H   H175      1.0  0.10255  0.33182  0.42403  1.0000
  H   H176      1.0  0.10568  0.32275  0.39070  1.0000
  H   H177      1.0  0.11651  0.29988  0.38576  1.0000
  C   C126      1.0  0.01704  0.37205  0.39333  1.0000
  H   H178      1.0  0.14220  0.28863  0.42681  1.0000
  C   C127      1.0  0.12622  0.24590  0.65113  1.0000
  H   H179      1.0  0.06426  0.15499  0.38173  1.0000
  H   H180      1.0  0.12768  0.18685  0.35158  1.0000
  H   H181      1.0  0.00938  0.13047  0.47350  1.0000
  H   H182      1.0  0.12961  0.30893  0.45133  1.0000
  H   H183      1.0  0.12932  0.33384  0.44210  1.0000
  H   H184      1.0  0.08188  0.30166  0.38849  1.0000
  H   H185      1.0  0.07998  0.30678  0.41258  1.0000
  H   H186      1.0  0.09129  0.28388  0.40530  1.0000
  H   H187      1.0  0.21715  0.13223  0.54694  1.0000
  H   H188      1.0  0.10070  0.27948  0.43407  1.0000
  H   H189      1.0  0.02032  0.38883  0.33467  1.0000
  N   N8        1.0  0.09930  0.44271  0.55933  1.0000
  C   C128      1.0  0.11779  0.43013  0.55733  1.0000
  C   C129      1.0  0.09333  0.44278  0.58036  1.0000
  C   C130      1.0  0.10337  0.46257  0.55128  1.0000
  C   C131      1.0  0.08496  0.43499  0.54844  1.0000
  C   C132      1.0  0.12755  0.42913  0.53694  1.0000
  H   H190      1.0  0.08017  0.48000  0.56676  1.0000
  H   H191      1.0  0.12838  0.43462  0.56620  1.0000
  H   H192      1.0  0.11562  0.41513  0.56267  1.0000
  H   H193      1.0  0.08471  0.21213  0.40796  1.0000
  H   H194      1.0  0.10433  0.44872  0.58767  1.0000
  H   H195      1.0  0.11499  0.46753  0.55850  1.0000
  H   H196      1.0  0.10857  0.46276  0.53597  1.0000
  H   H197      1.0  0.08759  0.43921  0.53290  1.0000
  H   H198      1.0  0.08680  0.41910  0.54989  1.0000
  H   H199      1.0  0.11772  0.42578  0.52680  1.0000
  H   H200      1.0  0.13416  0.44242  0.53162  1.0000
  H   H201      1.0  0.13923  0.41743  0.53707  1.0000
  H   H202      1.0  0.10990  0.16841  0.62792  1.0000
  C   C133      1.0  0.23378  0.13695  0.37233  1.0000
  H   H203      1.0  0.08270  0.15698  0.64355  1.0000
  C   C134      1.0  0.00109  0.07360  0.52246  1.0000
  H   H204      1.0  0.00621  0.07122  0.53634  1.0000
  H   H205      1.0  0.03361  0.27583  0.62616  1.0000
  H   H206      1.0  0.14719  0.31959  0.41772  1.0000
  H   H207      1.0  0.01840  0.38533  0.38389  1.0000
  H   H208      1.0  0.01054  0.02253  0.51131  1.0000
  H   H209      1.0  0.06506  0.15290  0.35692  1.0000
  H   H210      1.0  0.08807  0.14129  0.62603  1.0000
  Fe  Fe27      1.0  0.10579  0.30204  0.65389  1.0000
  S   S52       1.0  0.02255  0.02956  0.58520  1.0000
  H   H211      1.0  0.22366  0.16728  0.48092  1.0000
  C   C135      1.0  0.12532  0.10774  0.64706  1.0000
  C   C136      1.0  0.00431  0.36798  0.35253  1.0000
  C   C137      1.0  0.19930  0.11720  0.34245  1.0000
  S   S53       1.0  0.12090  0.28230  0.63223  1.0000
  H   H212      1.0  0.14512  0.22263  0.60456  1.0000
  C   C138      1.0  0.00259  0.06509  0.49012  1.0000
  H   H213      1.0  0.02415  0.32755  0.39686  1.0000
  C   C139      1.0  0.20109  0.08284  0.35147  1.0000
  H   H214      1.0  0.12611  0.33653  0.53190  1.0000
  H   H215      1.0  0.01493  0.44367  0.50054  1.0000
  H   H216      1.0  0.03936  0.08873  0.51636  1.0000
  H   H217      1.0  0.13257  0.12026  0.64078  1.0000
  C   C140      1.0  0.08661  0.47817  0.55211  1.0000
  H   H218      1.0  0.99538  0.36407  0.49173  1.0000
  H   H219      1.0  0.15626  0.31518  0.59455  1.0000
  H   H220      1.0  0.12163  0.31210  0.53415  1.0000
  C   C141      1.0  0.08974  0.42317  0.59096  1.0000
  C   C142      1.0  0.11243  0.15312  0.63315  1.0000
  C   C143      1.0  0.01009  0.46858  0.47944  1.0000
  C   C144      1.0  0.14160  0.32084  0.59145  1.0000
  H   H221      1.0  0.11794  0.34005  0.56512  1.0000
  H   H222      1.0  0.14286  0.33402  0.58176  1.0000
  H   H223      1.0  0.03053  0.31993  0.64990  1.0000
  C   C145      1.0  0.12662  0.32329  0.54178  1.0000
  H   H224      1.0  0.14168  0.31982  0.54469  1.0000
  H   H225      1.0  0.23857  0.05032  0.60863  1.0000
  C   C146      1.0  0.11354  0.32711  0.55987  1.0000
  H   H226      1.0  0.10472  0.33149  0.59668  1.0000
  C   C147      1.0  0.13235  0.30543  0.58252  1.0000
  H   H227      1.0  0.14276  0.30042  0.57095  1.0000
  H   H228      1.0  0.09918  0.33132  0.55498  1.0000
  H   H229      1.0  0.01307  0.37641  0.40794  1.0000
  C   C148      1.0  0.04791  0.28109  0.62512  1.0000
  C   C149      1.0  0.12807  0.25742  0.63395  1.0000
  H   H230      1.0  0.08028  0.45232  0.58333  1.0000
  N   N9        1.0  0.11296  0.31116  0.57562  1.0000
  C   C150      1.0  0.10004  0.31825  0.59220  1.0000
  H   H231      1.0  0.13162  0.29303  0.59343  1.0000
  H   H232      1.0  0.07094  0.32739  0.60227  1.0000
  H   H233      1.0  0.05946  0.18694  0.36488  1.0000
  H   H234      1.0  0.21393  0.17571  0.54895  1.0000
  H   H235      1.0  0.08024  0.41540  0.58369  1.0000
  C   C151      1.0  0.10357  0.11058  0.64621  1.0000
  C   C152      1.0  0.23548  0.12002  0.38430  1.0000
  C   C153      1.0  0.06378  0.26460  0.62421  1.0000
  H   H236      1.0  0.03099  0.36350  0.39371  1.0000
  H   H237      1.0  0.13663  0.25757  0.60389  1.0000
  H   H238      1.0  0.99579  0.45896  0.52533  1.0000
  C   C154      1.0  0.07883  0.32300  0.58882  1.0000
  H   H239      1.0  0.10069  0.30762  0.60486  1.0000
  H   H240      1.0  0.07219  0.31062  0.58486  1.0000
  C   C155      1.0  0.08669  0.19639  0.41070  1.0000
  H   H241      1.0  0.12568  0.16171  0.35632  1.0000
  H   H242      1.0  0.00253  0.47715  0.53761  1.0000
  C   C156      1.0  0.24297  0.13641  0.51842  1.0000
  H   H243      1.0  0.15990  0.11259  0.34935  1.0000
  C   C157      1.0  0.10482  0.29406  0.56937  1.0000
  H   H244      1.0  0.12921  0.28435  0.54914  1.0000
  C   C158      1.0  0.11900  0.27860  0.56052  1.0000
  H   H245      1.0  0.07664  0.33526  0.57803  1.0000
  H   H246      1.0  0.02154  0.05248  0.51073  1.0000
  H   H247      1.0  0.06048  0.45327  0.56221  1.0000
  H   H248      1.0  0.09713  0.28616  0.58171  1.0000
  H   H249      1.0  0.09398  0.29867  0.55909  1.0000
  H   H250      1.0  0.13179  0.33513  0.40370  1.0000
  H   H251      1.0  0.19848  0.14889  0.50463  1.0000
  S   S54       1.0  0.00101  0.09798  0.43842  1.0000
  H   H252      1.0  0.06915  0.10483  0.63710  1.0000
  H   H253      1.0  0.12711  0.27015  0.57161  1.0000
  H   H254      1.0  0.04888  0.29009  0.63681  1.0000
  H   H255      1.0  0.02510  0.00127  0.50757  1.0000
  H   H256      1.0  0.00124  0.43934  0.48135  1.0000
  H   H257      1.0  0.21045  0.17621  0.51302  1.0000
  C   C159      1.0  0.17002  0.10000  0.34605  1.0000
  H   H258      1.0  0.24033  0.03299  0.62861  1.0000
  C   C160      1.0  0.23315  0.17169  0.49090  1.0000
  H   H259      1.0  0.10323  0.41412  0.59294  1.0000
  C   C161      1.0  0.00952  0.00921  0.58906  1.0000
  C   C162      1.0  0.22492  0.16840  0.51180  1.0000
  H   H260      1.0  0.07750  0.27101  0.62000  1.0000
  H   H261      1.0  0.19885  0.14962  0.53957  1.0000
  H   H262      1.0  0.22999  0.09131  0.35308  1.0000
  C   C163      1.0  0.10000  0.48743  0.50342  1.0000
  C   C164      1.0  0.07778  0.18615  0.39598  1.0000
  H   H263      1.0  0.03231  0.13911  0.47149  1.0000
  C   C165      1.0  0.23481  0.12817  0.63853  1.0000
  C   C166      1.0  0.01301  0.44697  0.48528  1.0000
  H   H264      1.0  0.17589  0.09436  0.40263  1.0000
  H   H265      1.0  0.20479  0.08054  0.33620  1.0000
  C   C167      1.0  0.99463  0.37725  0.49842  1.0000
  C   C168      1.0  0.07420  0.17976  0.36355  1.0000
  H   H266      1.0  0.14131  0.31733  0.37567  1.0000
  H   H267      1.0  0.99906  0.36278  0.33985  1.0000
  N   N10       1.0  0.18897  0.10142  0.35348  1.0000
  H   H268      1.0  0.00102  0.00896  0.48419  1.0000
  N   N11       1.0  0.06545  0.25107  0.64192  1.0000
  H   H269      1.0  0.03578  0.34836  0.36745  1.0000
  H   H270      1.0  0.11906  0.26071  0.43146  1.0000
  H   H271      1.0  0.02579  0.12473  0.45377  1.0000
  H   H272      1.0  0.99401  0.38023  0.35639  1.0000
  H   H273      1.0  0.10721  0.16494  0.38377  1.0000
  H   H274      1.0  0.19736  0.14738  0.33291  1.0000
  H   H275      1.0  0.21646  0.10857  0.51744  1.0000
  H   H276      1.0  0.02620  0.44095  0.47737  1.0000
  Fe  Fe28      1.0  0.00233  0.05972  0.40369  1.0000
  H   H277      1.0  0.19624  0.11459  0.50416  1.0000
  H   H278      1.0  0.99707  0.99920  0.37139  1.0000
  C   C169      1.0  0.00137  0.36069  0.38777  1.0000
  C   C170      1.0  0.11743  0.17593  0.35554  1.0000
  C   C171      1.0  0.18544  0.10568  0.37402  1.0000
  H   H279      1.0  0.06234  0.19120  0.39679  1.0000
  H   H280      1.0  0.13116  0.09567  0.63868  1.0000
  H   H281      1.0  0.99895  0.34924  0.39945  1.0000
  H   H282      1.0  0.16291  0.08695  0.38493  1.0000
  H   H283      1.0  0.10841  0.17590  0.34378  1.0000
  H   H284      1.0  0.09757  0.21583  0.37705  1.0000
  C   C172      1.0  0.09320  0.14504  0.63933  1.0000
  N   N12       1.0  0.08665  0.18857  0.37569  1.0000
  H   H285      1.0  0.04922  0.29060  0.61171  1.0000
  H   H286      1.0  0.00099  0.37509  0.56339  1.0000
  H   H287      1.0  0.06093  0.25696  0.61199  1.0000
  H   H288      1.0  0.07570  0.47570  0.54268  1.0000
  S   S55       1.0  0.99634  0.09121  0.39439  1.0000
  H   H289      1.0  0.07954  0.19272  0.42507  1.0000
  Fe  Fe29      1.0  0.00965  0.06021  0.58773  1.0000
  C   C173      1.0  0.20452  0.11958  0.51493  1.0000
  H   H290      1.0  0.04758  0.11442  0.64899  1.0000
  C   C174      1.0  0.04726  0.24177  0.64770  1.0000
  Fe  Fe30      1.0  0.08657  0.34273  0.65049  1.0000
  H   H291      1.0  0.07850  0.17085  0.40143  1.0000
  H   H292      1.0  0.10199  0.19177  0.41145  1.0000
  S   S56       1.0  0.01412  0.05201  0.47203  1.0000
  C   C175      1.0  0.10669  0.17903  0.37521  1.0000
  C   C176      1.0  0.00126  0.31575  0.64663  1.0000
  H   H293      1.0  0.07808  0.21313  0.34055  1.0000
  C   C177      1.0  0.06074  0.49117  0.50161  1.0000
  H   H294      1.0  0.22755  0.06657  0.35856  1.0000
  C   C178      1.0  0.08660  0.20969  0.36998  1.0000
  H   H295      1.0  0.11585  0.18730  0.38253  1.0000
  H   H296      1.0  0.12017  0.27647  0.44907  1.0000
  N   N13       1.0  0.99376  0.47993  0.48984  1.0000
  C   C179      1.0  0.17736  0.08971  0.38801  1.0000
  H   H297      1.0  0.16194  0.32191  0.38622  1.0000
  C   C180      1.0  0.24263  0.04796  0.62348  1.0000
  H   H298      1.0  0.23560  0.16090  0.55357  1.0000
  H   H299      1.0  0.17506  0.11844  0.37548  1.0000
  C   C181      1.0  0.02328  0.37606  0.34472  1.0000
  H   H300      1.0  0.08384  0.22573  0.65015  1.0000
  H   H301      1.0  0.22503  0.11770  0.39626  1.0000
  N   N14       1.0  0.09306  0.12818  0.65408  1.0000
  H   H302      1.0  0.15678  0.30678  0.32783  1.0000
  C   C182      1.0  0.00946  0.06260  0.50804  1.0000
  C   C183      1.0  0.99805  0.01266  0.39723  1.0000
  H   H303      1.0  0.02382  0.47454  0.48070  1.0000
  C   C184      1.0  0.01573  0.00874  0.51863  1.0000
  H   H304      1.0  0.08685  0.14992  0.36790  1.0000
  C   C185      1.0  0.07842  0.22315  0.62152  1.0000
  H   H305      1.0  0.21407  0.15698  0.56762  1.0000
  C   C186      1.0  0.02852  0.01365  0.53353  1.0000
  H   H306      1.0  0.06484  0.21643  0.62398  1.0000
  C   C187      1.0  0.06208  0.11785  0.64318  1.0000
  H   H307      1.0  0.99414  0.00610  0.55459  1.0000
  C   C188      1.0  0.22014  0.16098  0.55292  1.0000
  C   C189      1.0  0.23859  0.12425  0.61948  1.0000
  H   H308      1.0  0.16316  0.08748  0.35340  1.0000
  H   H309      1.0  0.21872  0.13721  0.49281  1.0000
  H   H310      1.0  0.03147  0.38033  0.35581  1.0000
  H   H311      1.0  0.04055  0.31604  0.38011  1.0000
  C   C190      1.0  0.21139  0.13914  0.50721  1.0000
  N   N15       1.0  0.00489  0.35239  0.36879  1.0000
  H   H312      1.0  0.11524  0.48596  0.50410  1.0000
  H   H313      1.0  0.02559  0.33418  0.35282  1.0000
  C   C191      1.0  0.02347  0.34001  0.36700  1.0000
  H   H314      1.0  0.04097  0.23817  0.63486  1.0000
  H   H315      1.0  0.09814  0.09738  0.65382  1.0000
  H   H316      1.0  0.00120  0.32392  0.63290  1.0000
  C   C192      1.0  0.01794  0.31346  0.65621  1.0000
  H   H317      1.0  0.23338  0.17612  0.52030  1.0000
  H   H318      1.0  0.99852  0.02153  0.42534  1.0000
  H   H319      1.0  0.09007  0.21140  0.62124  1.0000
  C   C193      1.0  0.08126  0.23578  0.63740  1.0000
  H   H320      1.0  0.12171  0.15304  0.64478  1.0000
  H   H321      1.0  0.21241  0.11919  0.34913  1.0000
  H   H322      1.0  0.20438  0.11349  0.32780  1.0000
  H   H323      1.0  0.02006  0.46529  0.52150  1.0000
  H   H324      1.0  0.23284  0.05791  0.63182  1.0000
  C   C194      1.0  0.13094  0.22601  0.65143  1.0000
  H   H325      1.0  0.02624  0.30192  0.32691  1.0000
  C   C195      1.0  0.99969  0.48643  0.50781  1.0000
  H   H326      1.0  0.08519  0.26807  0.65249  1.0000
  H   H327      1.0  0.03678  0.00091  0.53991  1.0000
  H   H328      1.0  0.09198  0.49205  0.54650  1.0000
  H   H329      1.0  0.01613  0.31200  0.38085  1.0000
  N   N16       1.0  0.99947  0.99709  0.52609  1.0000
  C   C196      1.0  0.99617  0.99716  0.38677  1.0000
  C   C197      1.0  0.07164  0.26163  0.65741  1.0000
  S   S57       1.0  0.11592  0.33067  0.65755  1.0000
  H   H330      1.0  0.04555  0.49273  0.50093  1.0000
  H   H331      1.0  0.99621  0.36184  0.54466  1.0000
  S   S58       1.0  0.07575  0.35664  0.32543  1.0000
  Fe  Fe31      1.0  0.18909  0.38993  0.82257  1.0000
  S   S59       1.0  0.16587  0.37052  0.82178  1.0000
  S   S60       1.0  0.22044  0.37789  0.82033  1.0000
  Fe  Fe32      1.0  0.16105  0.42608  0.82272  1.0000
  S   S61       1.0  0.13617  0.40884  0.82192  1.0000
  S   S62       1.0  0.15112  0.45748  0.82612  1.0000
  Fe  Fe33      1.0  0.15008  0.38866  0.84389  1.0000
  S   S63       1.0  0.13274  0.37606  0.86997  1.0000
  Fe  Fe34      1.0  0.15369  0.39232  0.79970  1.0000
  S   S64       1.0  0.14116  0.38884  0.77129  1.0000
  S   S65       1.0  0.17400  0.40654  0.84606  1.0000
  S   S66       1.0  0.17793  0.41099  0.79906  1.0000
  Fe  Fe35      1.0  0.08944  0.41731  0.96835  1.0000
  S   S67       1.0  0.05802  0.42584  0.97403  1.0000
  S   S68       1.0  0.10550  0.42530  0.93965  1.0000
  Fe  Fe36      1.0  0.10294  0.32691  0.68820  1.0000
  S   S69       1.0  0.09475  0.29725  0.68467  1.0000
  S   S70       1.0  0.11737  0.32955  0.71584  1.0000
  H   H332      1.0  0.20046  0.32468  0.78221  1.0000
  Fe  Fe37      1.0  0.06688  0.31189  0.67578  1.0000
  H   H333      1.0  0.04209  0.40383  0.86626  1.0000
  H   H334      1.0  0.09988  0.15178  0.69389  1.0000
  H   H335      1.0  0.06782  0.38700  0.87176  1.0000
  S   S71       1.0  0.07411  0.34097  0.68120  1.0000
  S   S72       1.0  0.08878  0.38999  0.98762  1.0000
  C   C198      1.0  0.01823  0.30289  0.67393  1.0000
  H   H336      1.0  0.00429  0.32702  0.71098  1.0000
  C   C199      1.0  0.22521  0.36739  0.85862  1.0000
  C   C200      1.0  0.08046  0.39345  0.86446  1.0000
  C   C201      1.0  0.14678  0.48608  0.89480  1.0000
  H   H337      1.0  0.11661  0.13375  0.66972  1.0000
  H   H338      1.0  0.09247  0.38648  0.87236  1.0000
  H   H339      1.0  0.17793  0.33024  0.79484  1.0000
  C   C202      1.0  0.06278  0.42496  0.85535  1.0000
  C   C203      1.0  0.22934  0.35637  0.73605  1.0000
  H   H340      1.0  0.15293  0.47899  0.86486  1.0000
  C   C204      1.0  0.13392  0.37206  0.75651  1.0000
  C   C205      1.0  0.13523  0.35234  0.76154  1.0000
  C   C206      1.0  0.13012  0.33971  0.74896  1.0000
  C   C207      1.0  0.12330  0.34646  0.73124  1.0000
  C   C208      1.0  0.12181  0.36619  0.72632  1.0000
  C   C209      1.0  0.12714  0.37881  0.73879  1.0000
  H   H341      1.0  0.14016  0.34677  0.77512  1.0000
  H   H342      1.0  0.13131  0.32454  0.75305  1.0000
  H   H343      1.0  0.11666  0.37175  0.71282  1.0000
  H   H344      1.0  0.12602  0.39397  0.73463  1.0000
  C   C210      1.0  0.11470  0.41036  0.92165  1.0000
  C   C211      1.0  0.12642  0.41799  0.90619  1.0000
  C   C212      1.0  0.13262  0.40736  0.89060  1.0000
  C   C213      1.0  0.12707  0.38899  0.89028  1.0000
  C   C214      1.0  0.11569  0.38120  0.90592  1.0000
  C   C215      1.0  0.10955  0.39181  0.92159  1.0000
  H   H345      1.0  0.13045  0.43233  0.90612  1.0000
  H   H346      1.0  0.14135  0.41355  0.87866  1.0000
  H   H347      1.0  0.11134  0.36700  0.90579  1.0000
  H   H348      1.0  0.10048  0.38581  0.93337  1.0000
  C   C216      1.0  0.18322  0.47716  0.81545  1.0000
  C   C217      1.0  0.16392  0.47803  0.82197  1.0000
  H   H349      1.0  0.19088  0.36074  0.72059  1.0000
  H   H350      1.0  0.19082  0.46357  0.81256  1.0000
  H   H351      1.0  0.03633  0.42741  0.87425  1.0000
  H   H352      1.0  0.19856  0.37624  0.78572  1.0000
  H   H353      1.0  0.23395  0.34639  0.72497  1.0000
  H   H354      1.0  0.21036  0.37234  0.86150  1.0000
  C   C218      1.0  0.99610  0.40011  0.96335  1.0000
  H   H355      1.0  0.20603  0.33844  0.74199  1.0000
  H   H356      1.0  0.06305  0.24072  0.68140  1.0000
  H   H357      1.0  0.03346  0.42241  0.85029  1.0000
  C   C219      1.0  0.06563  0.40714  0.90075  1.0000
  H   H358      1.0  0.07567  0.25944  0.68760  1.0000
  C   C220      1.0  0.10106  0.44238  0.85820  1.0000
  C   C221      1.0  0.04268  0.41924  0.86222  1.0000
  H   H359      1.0  0.03054  0.24715  0.67487  1.0000
  C   C222      1.0  0.20905  0.37172  0.77389  1.0000
  H   H360      1.0  0.24179  0.35829  0.74378  1.0000
  S   S73       1.0  0.03891  0.29937  0.68645  1.0000
  H   H361      1.0  0.01813  0.34326  0.69638  1.0000
  C   C223      1.0  0.09728  0.42175  0.85543  1.0000
  C   C224      1.0  0.18418  0.35101  0.77095  1.0000
  H   H362      1.0  0.14644  0.45973  0.88142  1.0000
  C   C225      1.0  0.21341  0.34803  0.74978  1.0000
  C   C226      1.0  0.23358  0.36856  0.83989  1.0000
  C   C227      1.0  0.08333  0.38657  0.84431  1.0000
  H   H363      1.0  0.17872  0.38589  0.75399  1.0000
  H   H364      1.0  0.00380  0.44978  0.98682  1.0000
  H   H365      1.0  0.16894  0.35938  0.73584  1.0000
  H   H366      1.0  0.06505  0.41312  0.91475  1.0000
  H   H367      1.0  0.17335  0.38067  0.72145  1.0000
  H   H368      1.0  0.06386  0.13687  0.66434  1.0000
  H   H369      1.0  0.17267  0.36098  0.77730  1.0000
  H   H370      1.0  0.12943  0.21721  0.66476  1.0000
  H   H371      1.0  0.21987  0.36162  0.78088  1.0000
  C   C228      1.0  0.18031  0.36858  0.73025  1.0000
  H   H372      1.0  0.11441  0.44577  0.84949  1.0000
  H   H373      1.0  0.12923  0.46102  0.99026  1.0000
  S   S74       1.0  0.09769  0.43384  0.99134  1.0000
  H   H374      1.0  0.07707  0.14890  0.68676  1.0000
  H   H375      1.0  0.02649  0.39892  0.96479  1.0000
  H   H376      1.0  0.06205  0.44054  0.85669  1.0000
  N   N17       1.0  0.07912  0.41475  0.86544  1.0000
  H   H377      1.0  0.20824  0.40199  0.76302  1.0000
  H   H378      1.0  0.22369  0.29446  0.88203  1.0000
  C   C229      1.0  0.01298  0.39604  0.97244  1.0000
  H   H379      1.0  0.22477  0.36995  0.72801  1.0000
  C   C230      1.0  0.18974  0.37659  0.74610  1.0000
  C   C231      1.0  0.14335  0.47528  0.87771  1.0000
  H   H380      1.0  0.22928  0.35885  0.88813  1.0000
  H   H381      1.0  0.09746  0.38949  0.83707  1.0000
  H   H382      1.0  0.05083  0.40701  0.89727  1.0000
  H   H383      1.0  0.21704  0.30968  0.86194  1.0000
  H   H384      1.0  0.17722  0.34268  0.76157  1.0000
  H   H385      1.0  0.07229  0.39230  0.90285  1.0000
  C   C232      1.0  0.08266  0.48185  0.98287  1.0000
  H   H386      1.0  0.10988  0.41241  0.86000  1.0000
  H   H387      1.0  0.09210  0.41761  0.89120  1.0000
  H   H388      1.0  0.08964  0.45302  0.85330  1.0000
  H   H389      1.0  0.07189  0.39274  0.83537  1.0000
  H   H390      1.0  0.19959  0.38663  0.73864  1.0000
  C   C233      1.0  0.19065  0.33661  0.78742  1.0000
  H   H391      1.0  0.13752  0.48013  0.90710  1.0000
  H   H392      1.0  0.08301  0.37083  0.84552  1.0000
  H   H393      1.0  0.07249  0.43457  0.88724  1.0000
  H   H394      1.0  0.09771  0.42101  0.83977  1.0000
  N   N18       1.0  0.19947  0.36201  0.75983  1.0000
  H   H395      1.0  0.08266  0.46943  0.97516  1.0000
  H   H396      1.0  0.20764  0.49315  0.80755  1.0000
  C   C234      1.0  0.07776  0.41936  0.88593  1.0000
  H   H397      1.0  0.22087  0.33803  0.76030  1.0000
  H   H398      1.0  0.10338  0.44412  0.87316  1.0000
  C   C235      1.0  0.21887  0.38981  0.76640  1.0000
  H   H399      1.0  0.06505  0.42408  0.83968  1.0000
  H   H400      1.0  0.06154  0.27400  0.66083  1.0000
  H   H401      1.0  0.12838  0.47750  0.87417  1.0000
  H   H402      1.0  0.09997  0.11965  0.68291  1.0000
  H   H403      1.0  0.19717  0.34345  0.79829  1.0000
  C   C236      1.0  0.23601  0.35974  0.87372  1.0000
  H   H404      1.0  0.10866  0.49058  0.96772  1.0000
  C   C237      1.0  0.00405  0.34200  0.70460  1.0000
  C   C238      1.0  0.07480  0.24966  0.67644  1.0000
  H   H405      1.0  0.16159  0.48165  0.89842  1.0000
  H   H406      1.0  0.99671  0.40625  0.94873  1.0000
  C   C239      1.0  0.00168  0.29468  0.68195  1.0000
  H   H407      1.0  0.08848  0.24058  0.67551  1.0000
  H   H408      1.0  0.22923  0.38771  0.75394  1.0000
  H   H409      1.0  0.22679  0.39403  0.77786  1.0000
  C   C240      1.0  0.10116  0.13210  0.67206  1.0000
  H   H410      1.0  0.00183  0.28634  0.69558  1.0000
  H   H411      1.0  0.12111  0.25229  0.66414  1.0000
  H   H412      1.0  0.09350  0.16318  0.67159  1.0000
  H   H413      1.0  0.07161  0.11273  0.67133  1.0000
  H   H414      1.0  0.22498  0.28541  0.85872  1.0000
  C   C241      1.0  0.01237  0.38778  0.99122  1.0000
  H   H415      1.0  0.12911  0.10387  0.66186  1.0000
  C   C242      1.0  0.09214  0.15006  0.68137  1.0000
  C   C243      1.0  0.22736  0.29763  0.86655  1.0000
  H   H416      1.0  0.00301  0.35184  0.71595  1.0000
  C   C244      1.0  0.07260  0.12411  0.65930  1.0000
  C   C245      1.0  0.03139  0.25311  0.65975  1.0000
  H   H417      1.0  0.03252  0.26855  0.65916  1.0000
  H   H418      1.0  0.99644  0.42648  0.99195  1.0000
  Fe  Fe38      1.0  0.10727  0.66181  0.31464  1.0000
  C   C246      1.0  0.06791  0.50226  0.00665  1.0000
  S   S75       1.0  0.12685  0.65803  0.28704  1.0000
  H   H419      1.0  0.11029  0.50057  0.02445  1.0000
  H   H420      1.0  0.21463  0.62075  0.09218  1.0000
  H   H421      1.0  0.18424  0.65624  0.07148  1.0000
  H   H422      1.0  0.21232  0.65763  0.11243  1.0000
  C   C247      1.0  0.01910  0.64831  0.32365  1.0000
  H   H423      1.0  0.17479  0.78376  0.30886  1.0000
  Fe  Fe39      1.0  0.15640  0.60442  0.14725  1.0000
  S   S76       1.0  0.18655  0.59231  0.14102  1.0000
  S   S77       1.0  0.13612  0.61504  0.12469  1.0000
  Fe  Fe40      1.0  0.15860  0.60025  0.19089  1.0000
  S   S78       1.0  0.18909  0.58727  0.18758  1.0000
  S   S79       1.0  0.13960  0.60260  0.21923  1.0000
  Fe  Fe41      1.0  0.19363  0.61012  0.16339  1.0000
  S   S80       1.0  0.21933  0.62763  0.16168  1.0000
  Fe  Fe42      1.0  0.17984  0.57030  0.16537  1.0000
  S   S81       1.0  0.19192  0.54026  0.15911  1.0000
  S   S82       1.0  0.16366  0.62413  0.16807  1.0000
  S   S83       1.0  0.14913  0.58136  0.17018  1.0000
  Fe  Fe43      1.0  0.11715  0.58074  0.02320  1.0000
  S   S84       1.0  0.09840  0.55668  0.02628  1.0000
  S   S85       1.0  0.13963  0.58107  0.04422  1.0000
  C   C248      1.0  0.00817  0.57501  0.02331  1.0000
  H   H424      1.0  0.00822  0.56413  0.03516  1.0000
  H   H425      1.0  0.14162  0.50141  0.19011  1.0000
  H   H426      1.0  0.00447  0.51701  0.02364  1.0000
  H   H427      1.0  0.13229  0.55999  0.10278  1.0000
  C   C249      1.0  0.13692  0.60510  0.10260  1.0000
  C   C250      1.0  0.12103  0.60819  0.09192  1.0000
  C   C251      1.0  0.12148  0.60087  0.07405  1.0000
  C   C252      1.0  0.13802  0.59075  0.06653  1.0000
  C   C253      1.0  0.15397  0.58794  0.07712  1.0000
  C   C254      1.0  0.15335  0.59483  0.09516  1.0000
  H   H428      1.0  0.10828  0.61625  0.09751  1.0000
  H   H429      1.0  0.10913  0.60321  0.06603  1.0000
  H   H430      1.0  0.16691  0.58036  0.07131  1.0000
  H   H431      1.0  0.16565  0.59241  0.10322  1.0000
  H   H432      1.0  0.11750  0.54263  0.11258  1.0000
  C   C255      1.0  0.18070  0.51900  0.16542  1.0000
  C   C256      1.0  0.16371  0.51862  0.17722  1.0000
  H   H433      1.0  0.12296  0.50374  0.12188  1.0000
  H   H434      1.0  0.15741  0.53148  0.18330  1.0000
  H   H435      1.0  0.15757  0.50635  0.12726  1.0000
  H   H436      1.0  0.19453  0.60713  0.09303  1.0000
  H   H437      1.0  0.12891  0.49825  0.14581  1.0000
  C   C257      1.0  0.00778  0.60338  0.99310  1.0000
  H   H438      1.0  0.16590  0.54908  0.12833  1.0000
  H   H439      1.0  0.20934  0.84008  0.31755  1.0000
  C   C258      1.0  0.12967  0.64275  0.26804  1.0000
  C   C259      1.0  0.11866  0.62746  0.26775  1.0000
  C   C260      1.0  0.12188  0.61548  0.25270  1.0000
  C   C261      1.0  0.13608  0.61857  0.23762  1.0000
  C   C262      1.0  0.14697  0.63397  0.23784  1.0000
  C   C263      1.0  0.14379  0.64591  0.25294  1.0000
  H   H440      1.0  0.10784  0.62466  0.27920  1.0000
  H   H441      1.0  0.11337  0.60362  0.25275  1.0000
  H   H442      1.0  0.15796  0.63659  0.22643  1.0000
  H   H443      1.0  0.15246  0.65764  0.25293  1.0000
  H   H444      1.0  0.21938  0.64964  0.07702  1.0000
  H   H445      1.0  0.11293  0.56438  0.13568  1.0000
  H   H446      1.0  0.16379  0.54534  0.07561  1.0000
  H   H447      1.0  0.13460  0.51806  0.09451  1.0000
  H   H448      1.0  0.14852  0.63764  0.31916  1.0000
  H   H449      1.0  0.18687  0.52784  0.09525  1.0000
  S   S86       1.0  0.04625  0.57385  0.02674  1.0000
  C   C264      1.0  0.20334  0.66409  0.10100  1.0000
  H   H450      1.0  0.18431  0.57474  0.30559  1.0000
  H   H451      1.0  0.13822  0.54815  0.07469  1.0000
  H   H452      1.0  0.02642  0.70798  0.28512  1.0000
  H   H453      1.0  0.02307  0.68335  0.28688  1.0000
  C   C265      1.0  0.02527  0.58244  0.01597  1.0000
  C   C266      1.0  0.12068  0.50654  0.05050  1.0000
  N   N19       1.0  0.05997  0.67212  0.26813  1.0000
  C   C267      1.0  0.05217  0.69064  0.27611  1.0000
  C   C268      1.0  0.08124  0.67048  0.26894  1.0000
  C   C269      1.0  0.05139  0.65612  0.28076  1.0000
  C   C270      1.0  0.05430  0.67271  0.24811  1.0000
  C   C271      1.0  0.03028  0.69469  0.27793  1.0000
  C   C272      1.0  0.09196  0.68582  0.25648  1.0000
  C   C273      1.0  0.06180  0.63597  0.28013  1.0000
  C   C274      1.0  0.06325  0.65668  0.23587  1.0000
  H   H454      1.0  0.05701  0.69133  0.29051  1.0000
  H   H455      1.0  0.05761  0.70309  0.26718  1.0000
  H   H456      1.0  0.08809  0.65659  0.26480  1.0000
  H   H457      1.0  0.08472  0.67085  0.28388  1.0000
  H   H458      1.0  0.05053  0.65913  0.29596  1.0000
  H   H459      1.0  0.03647  0.65498  0.27768  1.0000
  H   H460      1.0  0.03865  0.67224  0.24834  1.0000
  H   H461      1.0  0.05683  0.68663  0.23992  1.0000
  H   H462      1.0  0.14033  0.60538  0.29514  1.0000
  C   C275      1.0  0.16277  0.58936  0.32447  1.0000
  H   H463      1.0  0.02449  0.69702  0.26385  1.0000
  H   H464      1.0  0.10751  0.68204  0.25688  1.0000
  C   C276      1.0  0.18876  0.50215  0.15772  1.0000
  H   H465      1.0  0.17557  0.64094  0.29657  1.0000
  C   C277      1.0  0.23651  0.63328  0.14247  1.0000
  H   H466      1.0  0.05276  0.62559  0.28848  1.0000
  H   H467      1.0  0.07526  0.63490  0.28704  1.0000
  H   H468      1.0  0.05411  0.64467  0.23727  1.0000
  H   H469      1.0  0.07785  0.65111  0.23888  1.0000
  H   H470      1.0  0.06462  0.66240  0.22067  1.0000
  H   H471      1.0  0.16580  0.55666  0.10395  1.0000
  H   H472      1.0  0.05692  0.50522  0.01794  1.0000
  H   H473      1.0  0.13678  0.57166  0.13131  1.0000
  H   H474      1.0  0.11613  0.52063  0.13960  1.0000
  C   C278      1.0  0.01507  0.52062  0.01156  1.0000
  H   H475      1.0  0.19589  0.62721  0.07657  1.0000
  C   C279      1.0  0.22242  0.80205  0.32279  1.0000
  H   H476      1.0  0.12460  0.61994  0.30939  1.0000
  H   H477      1.0  0.22725  0.61539  0.12312  1.0000
  H   H478      1.0  0.11293  0.58903  0.30191  1.0000
  Fe  Fe44      1.0  0.07627  0.57788  0.01343  1.0000
  H   H479      1.0  0.21930  0.80884  0.30843  1.0000
  S   S87       1.0  0.09437  0.60264  0.01229  1.0000
  C   C280      1.0  0.13400  0.60633  0.30995  1.0000
  H   H480      1.0  0.08894  0.70003  0.26201  1.0000
  H   H481      1.0  0.12227  0.52173  0.04547  1.0000
  H   H482      1.0  0.20971  0.67383  0.07075  1.0000
  C   C281      1.0  0.12744  0.50999  0.13425  1.0000
  H   H483      1.0  0.15945  0.51247  0.09445  1.0000
  H   H484      1.0  0.08904  0.68662  0.24135  1.0000
  C   C282      1.0  0.19907  0.62181  0.09117  1.0000
  C   C283      1.0  0.14670  0.51854  0.12975  1.0000
  H   H485      1.0  0.16189  0.62520  0.28705  1.0000
  H   H486      1.0  0.02570  0.52850  0.01732  1.0000
  N   N20       1.0  0.18494  0.65474  0.10231  1.0000
  C   C284      1.0  0.17198  0.66255  0.11856  1.0000
  C   C285      1.0  0.17505  0.65997  0.08439  1.0000
  C   C286      1.0  0.18828  0.63347  0.10679  1.0000
  C   C287      1.0  0.18100  0.66284  0.13749  1.0000
  C   C288      1.0  0.15639  0.65072  0.08361  1.0000
  H   H487      1.0  0.15228  0.52904  0.06422  1.0000
  H   H488      1.0  0.16618  0.67748  0.11459  1.0000
  H   H489      1.0  0.15935  0.65423  0.12201  1.0000
  H   H490      1.0  0.13186  0.55019  0.14588  1.0000
  H   H491      1.0  0.17182  0.67573  0.08218  1.0000
  H   H492      1.0  0.19641  0.63016  0.11949  1.0000
  H   H493      1.0  0.17472  0.62697  0.11137  1.0000
  H   H494      1.0  0.19145  0.67362  0.13653  1.0000
  H   H495      1.0  0.16967  0.66676  0.14878  1.0000
  H   H496      1.0  0.18796  0.64878  0.14236  1.0000
  H   H497      1.0  0.15893  0.63499  0.08392  1.0000
  H   H498      1.0  0.14545  0.65459  0.09520  1.0000
  H   H499      1.0  0.15029  0.65577  0.06997  1.0000
  H   H500      1.0  0.20038  0.67946  0.10352  1.0000
  H   H501      1.0  0.18704  0.81257  0.31323  1.0000
  N   N21       1.0  0.14783  0.53387  0.11340  1.0000
  C   C289      1.0  0.14813  0.52455  0.09514  1.0000
  H   H502      1.0  0.18564  0.51829  0.11996  1.0000
  C   C290      1.0  0.16559  0.54370  0.11411  1.0000
  C   C291      1.0  0.13099  0.54859  0.11470  1.0000
  C   C292      1.0  0.15079  0.53773  0.07658  1.0000
  H   H503      1.0  0.06470  0.63137  0.26562  1.0000
  C   C293      1.0  0.18456  0.53147  0.11020  1.0000
  C   C294      1.0  0.12817  0.55925  0.13291  1.0000
  H   H504      1.0  0.16117  0.56815  0.30409  1.0000
  H   H505      1.0  0.15025  0.52381  0.14304  1.0000
  H   H506      1.0  0.18326  0.61615  0.29856  1.0000
  H   H507      1.0  0.08184  0.52739  0.00919  1.0000
  H   H508      1.0  0.19960  0.77704  0.31075  1.0000
  C   C295      1.0  0.23698  0.62573  0.12491  1.0000
  C   C296      1.0  0.21607  0.66394  0.08205  1.0000
  C   C297      1.0  0.15477  0.50157  0.18101  1.0000
  C   C298      1.0  0.12216  0.49488  0.03305  1.0000
  H   H509      1.0  0.20201  0.50226  0.14876  1.0000
  H   H510      1.0  0.13512  0.49885  0.02392  1.0000
  H   H511      1.0  0.16836  0.59049  0.29244  1.0000
  C   C299      1.0  0.12090  0.59004  0.31445  1.0000
  H   H512      1.0  0.10654  0.50612  0.05866  1.0000
  C   C300      1.0  0.17044  0.62649  0.29901  1.0000
  H   H513      1.0  0.22685  0.78677  0.32087  1.0000
  Fe  Fe45      1.0  0.10875  0.55209  0.99611  1.0000
  C   C301      1.0  0.16918  0.58058  0.30543  1.0000
  H   H514      1.0  0.19642  0.53978  0.11270  1.0000
  H   H515      1.0  0.13201  0.50178  0.06003  1.0000
  C   C302      1.0  0.18621  0.78243  0.31868  1.0000
  S   S88       1.0  0.08988  0.68981  0.31976  1.0000
  C   C303      1.0  0.08209  0.51474  0.00178  1.0000
  H   H516      1.0  0.03816  0.60248  0.99501  1.0000
  C   C304      1.0  0.02508  0.59654  0.00069  1.0000
  H   H517      1.0  0.03311  0.64080  0.32404  1.0000
  C   C305      1.0  0.00345  0.63847  0.32067  1.0000
  C   C306      1.0  0.15891  0.62476  0.31858  1.0000
  C   C307      1.0  0.00492  0.53323  0.99590  1.0000
  H   H518      1.0  0.02207  0.50708  0.00665  1.0000
  N   N22       1.0  0.14881  0.60693  0.32369  1.0000
  H   H519      1.0  0.12894  0.57603  0.31759  1.0000
  H   H520      1.0  0.22991  0.66918  0.08414  1.0000
  H   H521      1.0  0.00557  0.62341  0.31875  1.0000
  S   S89       1.0  0.12939  0.57418  0.99371  1.0000
  H   H522      1.0  0.24110  0.82548  0.31982  1.0000
  H   H523      1.0  0.99979  0.54662  0.00245  1.0000
  C   C308      1.0  0.99819  0.67734  0.32525  1.0000
  H   H524      1.0  0.99454  0.61356  0.04740  1.0000
  H   H525      1.0  0.18413  0.84177  0.32524  1.0000
  N   N23       1.0  0.04123  0.60508  0.63189  1.0000
  H   H526      1.0  0.18901  0.82335  0.35533  1.0000
  H   H527      1.0  0.04496  0.93930  0.59534  1.0000
  Fe  Fe46      1.0  0.10390  0.64165  0.64129  1.0000
  S   S90       1.0  0.11350  0.62199  0.61777  1.0000
  S   S91       1.0  0.07950  0.66447  0.64092  1.0000
  Fe  Fe47      1.0  0.09470  0.64417  0.35439  1.0000
  S   S92       1.0  0.07624  0.67027  0.36209  1.0000
  S   S93       1.0  0.09662  0.61642  0.37341  1.0000
  Fe  Fe48      1.0  0.07412  0.59140  0.52413  1.0000
  S   S94       1.0  0.05983  0.56507  0.52061  1.0000
  S   S95       1.0  0.06626  0.61004  0.54873  1.0000
  Fe  Fe49      1.0  0.09211  0.59391  0.48247  1.0000
  S   S96       1.0  0.07970  0.56772  0.47575  1.0000
  S   S97       1.0  0.10734  0.61511  0.46173  1.0000
  Fe  Fe50      1.0  0.05316  0.57943  0.49205  1.0000
  S   S98       1.0  0.02577  0.58323  0.47828  1.0000
  Fe  Fe51      1.0  0.08757  0.55515  0.50467  1.0000
  S   S99       1.0  0.10199  0.52508  0.50894  1.0000
  S   S100      1.0  0.06488  0.60643  0.49678  1.0000
  S   S101      1.0  0.10252  0.58061  0.51024  1.0000
  Fe  Fe52      1.0  0.15633  0.80314  0.38715  1.0000
  S   S102      1.0  0.15275  0.83482  0.37865  1.0000
  S   S103      1.0  0.15189  0.78408  0.36382  1.0000
  Fe  Fe53      1.0  0.16594  0.80985  0.42731  1.0000
  S   S104      1.0  0.16321  0.84166  0.42122  1.0000
  S   S105      1.0  0.16842  0.79395  0.45668  1.0000
  Fe  Fe54      1.0  0.13681  0.83746  0.40744  1.0000
  S   S106      1.0  0.10847  0.85267  0.41822  1.0000
  Fe  Fe55      1.0  0.17972  0.83638  0.39288  1.0000
  S   S107      1.0  0.20114  0.85682  0.37781  1.0000
  S   S108      1.0  0.13875  0.80583  0.41492  1.0000
  S   S109      1.0  0.18413  0.80450  0.39986  1.0000
  Fe  Fe56      1.0  0.18391  0.83423  0.60195  1.0000
  S   S110      1.0  0.19182  0.80761  0.58682  1.0000
  S   S111      1.0  0.20119  0.84658  0.62332  1.0000
  Fe  Fe57      1.0  0.14364  0.83895  0.58667  1.0000
  S   S112      1.0  0.14916  0.81232  0.57116  1.0000
  S   S113      1.0  0.11959  0.86175  0.57967  1.0000
  Fe  Fe58      1.0  0.16248  0.79900  0.59766  1.0000
  S   S114      1.0  0.16309  0.76781  0.61069  1.0000
  Fe  Fe59      1.0  0.17770  0.82284  0.56175  1.0000
  S   S115      1.0  0.19078  0.82738  0.53108  1.0000
  S   S116      1.0  0.15503  0.82508  0.61387  1.0000
  S   S117      1.0  0.17178  0.85001  0.57616  1.0000
  Fe  Fe60      1.0  0.00697  0.89258  0.39604  1.0000
  S   S118      1.0  0.00993  0.90337  0.42403  1.0000
  S   S119      1.0  0.03426  0.88509  0.37751  1.0000
  H   H528      1.0  0.22169  0.81174  0.61026  1.0000
  C   C309      1.0  0.00621  0.60112  0.54708  1.0000
  C   C310      1.0  0.04270  0.61292  0.40036  1.0000
  C   C311      1.0  0.13829  0.60843  0.34319  1.0000
  H   H529      1.0  0.05884  0.83160  0.36691  1.0000
  H   H530      1.0  0.03552  0.63073  0.37473  1.0000
  Fe  Fe61      1.0  0.01023  0.88923  0.58753  1.0000
  S   S120      1.0  0.01607  0.91881  0.57519  1.0000
  S   S121      1.0  0.03060  0.86873  0.60415  1.0000
  H   H531      1.0  0.99447  0.98002  0.50341  1.0000
  C   C312      1.0  0.15024  0.61201  0.35932  1.0000
  H   H532      1.0  0.07119  0.77174  0.40701  1.0000
  H   H533      1.0  0.01583  0.88078  0.52196  1.0000
  H   H534      1.0  0.06651  0.96185  0.62042  1.0000
  C   C313      1.0  0.06864  0.80368  0.42500  1.0000
  H   H535      1.0  0.05344  0.79668  0.38970  1.0000
  H   H536      1.0  0.02499  0.93968  0.41617  1.0000
  H   H537      1.0  0.07335  0.94829  0.42902  1.0000
  C   C314      1.0  0.03715  0.94642  0.42046  1.0000
  H   H538      1.0  0.99607  0.69248  0.32678  1.0000
  H   H539      1.0  0.99845  0.68593  0.64423  1.0000
  H   H540      1.0  0.10162  0.95346  0.40921  1.0000
  S   S122      1.0  0.01426  0.92197  0.52039  1.0000
  H   H541      1.0  0.03803  0.57395  0.41088  1.0000
  Fe  Fe62      1.0  0.00292  0.91127  0.54980  1.0000
  H   H542      1.0  0.01680  0.63186  0.42985  1.0000
  H   H543      1.0  0.00769  0.60251  0.56232  1.0000
  C   C315      1.0  0.18758  0.80205  0.32596  1.0000
  C   C316      1.0  0.00448  0.91418  0.48604  1.0000
  C   C317      1.0  0.05512  0.86595  0.59635  1.0000
  C   C318      1.0  0.06702  0.85137  0.60525  1.0000
  C   C319      1.0  0.08678  0.84950  0.60002  1.0000
  C   C320      1.0  0.09478  0.86243  0.58605  1.0000
  C   C321      1.0  0.08285  0.87701  0.57720  1.0000
  C   C322      1.0  0.06310  0.87864  0.58214  1.0000
  H   H544      1.0  0.06095  0.84152  0.61630  1.0000
  H   H545      1.0  0.09582  0.83828  0.60701  1.0000
  H   H546      1.0  0.08894  0.88721  0.56655  1.0000
  H   H547      1.0  0.05411  0.88990  0.57516  1.0000
  H   H548      1.0  0.07097  0.81240  0.43664  1.0000
  C   C323      1.0  0.07318  0.91680  0.61225  1.0000
  H   H549      1.0  0.21877  0.81569  0.64782  1.0000
  C   C324      1.0  0.17427  0.80380  0.47721  1.0000
  C   C325      1.0  0.17040  0.79402  0.49523  1.0000
  C   C326      1.0  0.17492  0.80127  0.51191  1.0000
  C   C327      1.0  0.18388  0.81813  0.51066  1.0000
  C   C328      1.0  0.18788  0.82783  0.49263  1.0000
  C   C329      1.0  0.18288  0.82086  0.47600  1.0000
  H   H550      1.0  0.16387  0.78075  0.49630  1.0000
  H   H551      1.0  0.17192  0.79357  0.52566  1.0000
  H   H552      1.0  0.19492  0.84081  0.49150  1.0000
  H   H553      1.0  0.18608  0.82846  0.46223  1.0000
  C   C330      1.0  0.05485  0.87559  0.38868  1.0000
  C   C331      1.0  0.05382  0.86974  0.40814  1.0000
  C   C332      1.0  0.07039  0.86260  0.41682  1.0000
  C   C333      1.0  0.08815  0.86103  0.40615  1.0000
  C   C334      1.0  0.08922  0.86667  0.38661  1.0000
  C   C335      1.0  0.07260  0.87394  0.37793  1.0000
  H   H554      1.0  0.04025  0.87073  0.41657  1.0000
  H   H555      1.0  0.06942  0.85831  0.43194  1.0000
  H   H556      1.0  0.10284  0.86571  0.37828  1.0000
  H   H557      1.0  0.07352  0.87841  0.36285  1.0000
  C   C336      1.0  0.08987  0.50544  0.50478  1.0000
  C   C337      1.0  0.07021  0.50728  0.50367  1.0000
  H   H558      1.0  0.04504  0.94086  0.64568  1.0000
  H   H559      1.0  0.06227  0.52107  0.50466  1.0000
  H   H560      1.0  0.01576  0.96145  0.58317  1.0000
  C   C338      1.0  0.00935  0.56686  0.48658  1.0000
  C   C339      1.0  0.01243  0.55360  0.50221  1.0000
  C   C340      1.0  0.22133  0.78764  0.36573  1.0000
  H   H561      1.0  0.02564  0.55258  0.50874  1.0000
  C   C341      1.0  0.12116  0.72903  0.36668  1.0000
  C   C342      1.0  0.12801  0.73798  0.34921  1.0000
  C   C343      1.0  0.13748  0.75470  0.34863  1.0000
  C   C344      1.0  0.14025  0.76270  0.36546  1.0000
  C   C345      1.0  0.13354  0.75367  0.38293  1.0000
  C   C346      1.0  0.12407  0.73698  0.38351  1.0000
  H   H562      1.0  0.19403  0.78477  0.62378  1.0000
  H   H563      1.0  0.12647  0.61998  0.34266  1.0000
  H   H564      1.0  0.13570  0.75950  0.39602  1.0000
  C   C347      1.0  0.10078  0.61624  0.39765  1.0000
  C   C348      1.0  0.09969  0.59919  0.40947  1.0000
  C   C349      1.0  0.10156  0.59873  0.42911  1.0000
  C   C350      1.0  0.10508  0.61522  0.43703  1.0000
  C   C351      1.0  0.10680  0.63215  0.42508  1.0000
  C   C352      1.0  0.10446  0.63273  0.40549  1.0000
  H   H565      1.0  0.09705  0.58632  0.40349  1.0000
  H   H566      1.0  0.10050  0.58554  0.43810  1.0000
  H   H567      1.0  0.10964  0.64496  0.43104  1.0000
  H   H568      1.0  0.10541  0.64596  0.39652  1.0000
  C   C353      1.0  0.11702  0.72846  0.63682  1.0000
  C   C354      1.0  0.11232  0.74821  0.63317  1.0000
  C   C355      1.0  0.12606  0.76042  0.62487  1.0000
  C   C356      1.0  0.14483  0.75305  0.62033  1.0000
  C   C357      1.0  0.14957  0.73331  0.62412  1.0000
  C   C358      1.0  0.13576  0.72106  0.63215  1.0000
  C   C359      1.0  0.02727  0.60477  0.64934  1.0000
  H   H569      1.0  0.12215  0.77554  0.62214  1.0000
  H   H570      1.0  0.16401  0.72741  0.62065  1.0000
  H   H571      1.0  0.13962  0.70592  0.63474  1.0000
  H   H572      1.0  0.09094  0.95275  0.38764  1.0000
  C   C360      1.0  0.10085  0.61946  0.59798  1.0000
  C   C361      1.0  0.10634  0.60404  0.58692  1.0000
  C   C362      1.0  0.09617  0.60110  0.57152  1.0000
  C   C363      1.0  0.08043  0.61366  0.56701  1.0000
  C   C364      1.0  0.07523  0.62932  0.57775  1.0000
  C   C365      1.0  0.08535  0.63223  0.59317  1.0000
  H   H573      1.0  0.11836  0.59413  0.59051  1.0000
  H   H574      1.0  0.10030  0.58896  0.56338  1.0000
  H   H575      1.0  0.06314  0.63918  0.57427  1.0000
  H   H576      1.0  0.08109  0.64424  0.60145  1.0000
  H   H577      1.0  0.01565  0.50223  0.46005  1.0000
  C   C366      1.0  0.09184  0.64975  0.50133  1.0000
  H   H578      1.0  0.06919  0.91537  0.39662  1.0000
  H   H579      1.0  0.22290  0.88569  0.35712  1.0000
  N   N24       1.0  0.05439  0.92467  0.62164  1.0000
  H   H580      1.0  0.02876  0.65163  0.61210  1.0000
  H   H581      1.0  0.00366  0.92943  0.48237  1.0000
  H   H582      1.0  0.04654  0.64146  0.42271  1.0000
  N   N25       1.0  0.20474  0.80390  0.33648  1.0000
  H   H583      1.0  0.05380  0.59375  0.59375  1.0000
  H   H584      1.0  0.08407  0.92713  0.61166  1.0000
  H   H585      1.0  0.00405  0.58985  0.64068  1.0000
  C   C367      1.0  0.21564  0.76734  0.65496  1.0000
  H   H586      1.0  0.20029  0.75477  0.63384  1.0000
  H   H587      1.0  0.04371  0.57412  0.63407  1.0000
  H   H588      1.0  0.18199  0.77179  0.33055  1.0000
  H   H589      1.0  0.20347  0.74014  0.65511  1.0000
  C   C368      1.0  0.00627  0.60361  0.64595  1.0000
  H   H590      1.0  0.04813  0.94728  0.44869  1.0000
  C   C369      1.0  0.19866  0.84043  0.33002  1.0000
  H   H591      1.0  0.05940  0.89887  0.43438  1.0000
  H   H592      1.0  0.19526  0.80764  0.63069  1.0000
  H   H593      1.0  0.04691  0.62232  0.60542  1.0000
  H   H594      1.0  0.02285  0.61790  0.61041  1.0000
  C   C370      1.0  0.03981  0.91070  0.62104  1.0000
  H   H595      1.0  0.00008  0.53240  0.52240  1.0000
  C   C371      1.0  0.99982  0.67356  0.65443  1.0000
  H   H596      1.0  0.06488  0.61471  0.45376  1.0000
  C   C372      1.0  0.03655  0.63245  0.39000  1.0000
  C   C373      1.0  0.01926  0.91740  0.62842  1.0000
  C   C374      1.0  0.00548  0.87482  0.49577  1.0000
  C   C375      1.0  0.19630  0.79238  0.63622  1.0000
  C   C376      1.0  0.00868  0.97496  0.58696  1.0000
  N   N26       1.0  0.12398  0.84468  0.51362  1.0000
  C   C377      1.0  0.11159  0.86316  0.51087  1.0000
  C   C378      1.0  0.13466  0.84078  0.49471  1.0000
  C   C379      1.0  0.13814  0.84578  0.52787  1.0000
  C   C380      1.0  0.11148  0.82909  0.52102  1.0000
  C   C381      1.0  0.10177  0.87123  0.52918  1.0000
  C   C382      1.0  0.12279  0.83480  0.47959  1.0000
  C   C383      1.0  0.15135  0.86197  0.52336  1.0000
  C   C384      1.0  0.12156  0.80874  0.52362  1.0000
  H   H597      1.0  0.11981  0.87452  0.50300  1.0000
  H   H598      1.0  0.10006  0.86153  0.50177  1.0000
  H   H599      1.0  0.14663  0.82964  0.49652  1.0000
  H   H600      1.0  0.14164  0.85354  0.48812  1.0000
  H   H601      1.0  0.13092  0.84705  0.54241  1.0000
  H   H602      1.0  0.14759  0.83228  0.52922  1.0000
  H   H603      1.0  0.10442  0.83185  0.53534  1.0000
  H   H604      1.0  0.09935  0.82888  0.51222  1.0000
  H   H605      1.0  0.11215  0.87505  0.53854  1.0000
  H   H606      1.0  0.09284  0.88456  0.52522  1.0000
  H   H607      1.0  0.09214  0.86137  0.53737  1.0000
  H   H608      1.0  0.11093  0.84564  0.47625  1.0000
  H   H609      1.0  0.13212  0.83322  0.46616  1.0000
  H   H610      1.0  0.11729  0.82074  0.48384  1.0000
  H   H611      1.0  0.16087  0.86004  0.51018  1.0000
  H   H612      1.0  0.16068  0.86159  0.53510  1.0000
  H   H613      1.0  0.14342  0.87628  0.52240  1.0000
  H   H614      1.0  0.12725  0.80599  0.53778  1.0000
  H   H615      1.0  0.13329  0.80583  0.51256  1.0000
  H   H616      1.0  0.11130  0.79818  0.52235  1.0000
  H   H617      1.0  0.07329  0.88629  0.62315  1.0000
  H   H618      1.0  0.04112  0.62656  0.45769  1.0000
  H   H619      1.0  0.00179  0.95031  0.54771  1.0000
  C   C385      1.0  0.09645  0.65100  0.52197  1.0000
  H   H620      1.0  0.02780  0.58495  0.61776  1.0000
  H   H621      1.0  0.01083  0.51603  0.48047  1.0000
  C   C386      1.0  0.24004  0.81123  0.32776  1.0000
  C   C387      1.0  0.01657  0.66788  0.32573  1.0000
  C   C388      1.0  0.23271  0.87316  0.35952  1.0000
  H   H622      1.0  0.06421  0.59011  0.42383  1.0000
  H   H623      1.0  0.23431  0.82813  0.38109  1.0000
  H   H624      1.0  0.08744  0.90030  0.63564  1.0000
  H   H625      1.0  0.10061  0.79231  0.36460  1.0000
  H   H626      1.0  0.02996  0.67507  0.65602  1.0000
  H   H627      1.0  0.06130  0.63994  0.45123  1.0000
  C   C389      1.0  0.10545  0.81971  0.37156  1.0000
  H   H628      1.0  0.05890  0.89870  0.65335  1.0000
  H   H629      1.0  0.13135  0.59519  0.34821  1.0000
  H   H630      1.0  0.11900  0.62027  0.50842  1.0000
  C   C390      1.0  0.08578  0.80461  0.40985  1.0000
  H   H631      1.0  0.04732  0.56222  0.43184  1.0000
  C   C391      1.0  0.03552  0.62100  0.61724  1.0000
  H   H632      1.0  0.10818  0.82774  0.38349  1.0000
  H   H633      1.0  0.06686  0.79990  0.36741  1.0000
  H   H634      1.0  0.08877  0.81972  0.40755  1.0000
  H   H635      1.0  0.13788  0.61154  0.54613  1.0000
  H   H636      1.0  0.20692  0.77393  0.34700  1.0000
  H   H637      1.0  0.20001  0.85362  0.33690  1.0000
  H   H638      1.0  0.03514  0.92534  0.38100  1.0000
  H   H639      1.0  0.10679  0.61551  0.53127  1.0000
  C   C392      1.0  0.00438  0.50999  0.46906  1.0000
  H   H640      1.0  0.11411  0.79196  0.38449  1.0000
  C   C393      1.0  0.05196  0.94811  0.38791  1.0000
  H   H641      1.0  0.07119  0.91904  0.43788  1.0000
  H   H642      1.0  0.09425  0.82749  0.36324  1.0000
  H   H643      1.0  0.09791  0.75414  0.63675  1.0000
  H   H644      1.0  0.06754  0.96687  0.41188  1.0000
  C   C394      1.0  0.22821  0.86092  0.64229  1.0000
  H   H645      1.0  0.04651  0.91249  0.40806  1.0000
  C   C395      1.0  0.06868  0.90962  0.42708  1.0000
  H   H646      1.0  0.04354  0.89679  0.62899  1.0000
  H   H647      1.0  0.13834  0.68004  0.52285  1.0000
  H   H648      1.0  0.21694  0.86223  0.65366  1.0000
  H   H649      1.0  0.06713  0.62535  0.41997  1.0000
  H   H650      1.0  0.11014  0.59300  0.32654  1.0000
  H   H651      1.0  0.05780  0.60909  0.39501  1.0000
  H   H652      1.0  0.07013  0.93585  0.64205  1.0000
  H   H653      1.0  0.04946  0.59194  0.44527  1.0000
  H   H654      1.0  0.03940  0.90707  0.60619  1.0000
  H   H655      1.0  0.03763  0.92541  0.44561  1.0000
  H   H656      1.0  0.02110  0.94740  0.38600  1.0000
  S   S123      1.0  0.11975  0.66023  0.34300  1.0000
  C   C396      1.0  0.01024  0.90652  0.50370  1.0000
  H   H657      1.0  0.12585  0.73212  0.33614  1.0000
  C   C397      1.0  0.05486  0.62681  0.44880  1.0000
  C   C398      1.0  0.03488  0.94107  0.37959  1.0000
  C   C399      1.0  0.06162  0.95849  0.60687  1.0000
  H   H658      1.0  0.02042  0.59638  0.54013  1.0000
  H   H659      1.0  0.21343  0.82555  0.35274  1.0000
  N   N27       1.0  0.21555  0.78632  0.64331  1.0000
  S   S124      1.0  0.09918  0.71397  0.64810  1.0000
  C   C400      1.0  0.22445  0.85382  0.62527  1.0000
  H   H660      1.0  0.07687  0.65557  0.49987  1.0000
  H   H661      1.0  0.09336  0.76321  0.36872  1.0000
  H   H662      1.0  0.14260  0.76152  0.33503  1.0000
  H   H663      1.0  0.02475  0.57545  0.43425  1.0000
  H   H664      1.0  0.09545  0.89344  0.61255  1.0000
  S   S125      1.0  0.03595  0.68149  0.32756  1.0000
  H   H665      1.0  0.05407  0.97180  0.60062  1.0000
  H   H666      1.0  0.04736  0.64269  0.39038  1.0000
  H   H667      1.0  0.00581  0.85962  0.49960  1.0000
  C   C401      1.0  0.04915  0.59270  0.42962  1.0000
  C   C402      1.0  0.99890  0.88261  0.47845  1.0000
  H   H668      1.0  0.00248  0.61534  0.53982  1.0000
  H   H669      1.0  0.08053  0.74776  0.38526  1.0000
  C   C403      1.0  0.99803  0.54211  0.50984  1.0000
  Fe  Fe63      1.0  0.06677  0.67143  0.33267  1.0000
  H   H670      1.0  0.99746  0.57859  0.53223  1.0000
  C   C404      1.0  0.22007  0.80122  0.65558  1.0000
  C   C405      1.0  0.04789  0.94264  0.60977  1.0000
  H   H671      1.0  0.03476  0.60226  0.39491  1.0000
  H   H672      1.0  0.08443  0.59526  0.65278  1.0000
  H   H673      1.0  0.11346  0.63434  0.55642  1.0000
  C   C406      1.0  0.23465  0.80320  0.61475  1.0000
  H   H674      1.0  0.99836  0.52235  0.45993  1.0000
  H   H675      1.0  0.00911  0.59591  0.41238  1.0000
  H   H676      1.0  0.01242  0.92798  0.61798  1.0000
  S   S126      1.0  0.10806  0.70859  0.36847  1.0000
  H   H677      1.0  0.03320  0.99060  0.57835  1.0000
  C   C407      1.0  0.20530  0.78822  0.35252  1.0000
  C   C408      1.0  0.03699  0.94105  0.44208  1.0000
  C   C409      1.0  0.22598  0.85671  0.36979  1.0000
  H   H678      1.0  0.10095  0.65831  0.49087  1.0000
  H   H679      1.0  0.11890  0.73017  0.39711  1.0000
  Fe  Fe64      1.0  0.10064  0.68681  0.34893  1.0000
  H   H680      1.0  0.14154  0.60992  0.37318  1.0000
  N   N28       1.0  0.11645  0.64385  0.52633  1.0000
  N   N29       1.0  0.08375  0.79613  0.39150  1.0000
  C   C410      1.0  0.08109  0.76295  0.37965  1.0000
  H   H681      1.0  0.09637  0.76867  0.40302  1.0000
  H   H682      1.0  0.24260  0.81202  0.62270  1.0000
  H   H683      1.0  0.00066  0.61559  0.63619  1.0000
  H   H684      1.0  0.09515  0.93119  0.40330  1.0000
  H   H685      1.0  0.07400  0.95489  0.59661  1.0000
  C   C411      1.0  0.00464  0.60838  0.42048  1.0000
  C   C412      1.0  0.02051  0.61616  0.43020  1.0000
  C   C413      1.0  0.04170  0.58643  0.62318  1.0000
  C   C414      1.0  0.08252  0.89815  0.62172  1.0000
  C   C415      1.0  0.05259  0.62681  0.42736  1.0000
  C   C416      1.0  0.08327  0.77487  0.39632  1.0000
  H   H686      1.0  0.06770  0.76729  0.37289  1.0000
  C   C417      1.0  0.06047  0.60816  0.63779  1.0000
  H   H687      1.0  0.08250  0.90167  0.42276  1.0000
  C   C418      1.0  0.05642  0.92960  0.64155  1.0000
  H   H688      1.0  0.23675  0.84694  0.59755  1.0000
  H   H689      1.0  0.15654  0.57772  0.33411  1.0000
  H   H690      1.0  0.06458  0.94393  0.37810  1.0000
  H   H691      1.0  0.09845  0.79745  0.41663  1.0000
  H   H692      1.0  0.05509  0.80968  0.41934  1.0000
  H   H693      1.0  0.06726  0.78898  0.43162  1.0000
  H   H694      1.0  0.13739  0.59652  0.52753  1.0000
  H   H695      1.0  0.05637  0.56904  0.60159  1.0000
  H   H696      1.0  0.16325  0.60201  0.36003  1.0000
  H   H697      1.0  0.01904  0.61078  0.44553  1.0000
  C   C419      1.0  0.10125  0.79903  0.37800  1.0000
  H   H698      1.0  0.22533  0.77514  0.61632  1.0000
  C   C420      1.0  0.06586  0.80375  0.38236  1.0000
  C   C421      1.0  0.03898  0.57532  0.42617  1.0000
  C   C422      1.0  0.06997  0.59171  0.65054  1.0000
  H   H699      1.0  0.07166  0.91437  0.59718  1.0000
  H   H700      1.0  0.11874  0.81935  0.36184  1.0000
  H   H701      1.0  0.05002  0.96402  0.38627  1.0000
  H   H702      1.0  0.13464  0.64529  0.54901  1.0000
  N   N30       1.0  0.04075  0.61198  0.42183  1.0000
  H   H703      1.0  0.04322  0.64537  0.63135  1.0000
  H   H704      1.0  0.16928  0.62621  0.32898  1.0000
  H   H705      1.0  0.04603  0.82843  0.38972  1.0000
  H   H706      1.0  0.07023  0.83365  0.38771  1.0000
  H   H707      1.0  0.03328  0.96211  0.41831  1.0000
  H   H708      1.0  0.03421  0.94939  0.61622  1.0000
  C   C423      1.0  0.06018  0.82548  0.38182  1.0000
  H   H709      1.0  0.13152  0.64902  0.49822  1.0000
  H   H710      1.0  0.24096  0.81247  0.34303  1.0000
  H   H711      1.0  0.17715  0.77463  0.65521  1.0000
  H   H712      1.0  0.15394  0.62698  0.35806  1.0000
  H   H713      1.0  0.07064  0.61120  0.62520  1.0000
  H   H714      1.0  0.01063  0.90497  0.63029  1.0000
  H   H715      1.0  0.19160  0.78894  0.36166  1.0000
  C   C424      1.0  0.23009  0.78441  0.62643  1.0000
  N   N31       1.0  0.05513  0.94089  0.40827  1.0000
  H   H716      1.0  0.02252  0.63864  0.39593  1.0000
  C   C425      1.0  0.03127  0.64097  0.62439  1.0000
  H   H717      1.0  0.09295  0.63486  0.49754  1.0000
  H   H718      1.0  0.15031  0.61702  0.52287  1.0000
  H   H719      1.0  0.11566  0.68236  0.51279  1.0000
  C   C426      1.0  0.05957  0.91953  0.40924  1.0000
  C   C427      1.0  0.01108  0.88680  0.50845  1.0000
  H   H720      1.0  0.07148  0.58448  0.60985  1.0000
  C   C428      1.0  0.13028  0.67530  0.51178  1.0000
  H   H721      1.0  0.09407  0.66432  0.55734  1.0000
  H   H722      1.0  0.13667  0.68069  0.49756  1.0000
  H   H723      1.0  0.08599  0.64303  0.53160  1.0000
  C   C429      1.0  0.00796  0.97815  0.53466  1.0000
  H   H724      1.0  0.02316  0.94685  0.44900  1.0000
  C   C430      1.0  0.13727  0.61165  0.53054  1.0000
  C   C431      1.0  0.11923  0.64621  0.54684  1.0000
  C   C432      1.0  0.07114  0.95113  0.41375  1.0000
  C   C433      1.0  0.11896  0.62278  0.52369  1.0000
  C   C434      1.0  0.10978  0.66446  0.55533  1.0000
  C   C435      1.0  0.20162  0.82296  0.34463  1.0000
  H   H725      1.0  0.14575  0.64831  0.51702  1.0000
  H   H726      1.0  0.11360  0.67768  0.54684  1.0000
  H   H727      1.0  0.11457  0.66487  0.56975  1.0000
  H   H728      1.0  0.03542  0.94569  0.36412  1.0000
  C   C436      1.0  0.09069  0.94669  0.40268  1.0000
  C   C437      1.0  0.13124  0.65337  0.51295  1.0000
  H   H729      1.0  0.09280  0.66608  0.52487  1.0000
  H   H730      1.0  0.99405  0.57527  0.55702  1.0000
  C   C438      1.0  0.05679  0.58352  0.60621  1.0000
  H   H731      1.0  0.01815  0.64184  0.63423  1.0000
  H   H732      1.0  0.01847  0.97119  0.52411  1.0000
  H   H733      1.0  0.22127  0.80102  0.37257  1.0000
  H   H734      1.0  0.05959  0.62101  0.64582  1.0000
  H   H735      1.0  0.21910  0.77626  0.37750  1.0000
  H   H736      1.0  0.01596  0.97997  0.54693  1.0000
  S   S127      1.0  0.99950  0.88102  0.56106  1.0000
  C   C439      1.0  0.05517  0.91324  0.65773  1.0000
  C   C440      1.0  0.17900  0.78988  0.65096  1.0000
  H   H737      1.0  0.01847  0.92344  0.64232  1.0000
  H   H738      1.0  0.23544  0.78377  0.35823  1.0000
  Fe  Fe65      1.0  0.09865  0.68162  0.65492  1.0000
  H   H739      1.0  0.07204  0.57804  0.64392  1.0000
  H   H740      1.0  0.17417  0.80548  0.33507  1.0000
  C   C441      1.0  0.99856  0.90228  0.47356  1.0000
  C   C442      1.0  0.21053  0.75052  0.64464  1.0000
  C   C443      1.0  0.01854  0.99148  0.58429  1.0000
  H   H741      1.0  0.99746  0.61986  0.41116  1.0000
  S   S128      1.0  0.12367  0.65954  0.65328  1.0000
  H   H742      1.0  0.02792  0.61750  0.65713  1.0000
  H   H743      1.0  0.22349  0.74320  0.63750  1.0000
  H   H744      1.0  0.16588  0.79583  0.64435  1.0000
  H   H745      1.0  0.17579  0.59228  0.33086  1.0000
  C   C444      1.0  0.23929  0.85231  0.61075  1.0000
  C   C445      1.0  0.23900  0.84072  0.37283  1.0000
  C   C446      1.0  0.99366  0.96355  0.54219  1.0000
  H   H746      1.0  0.99377  0.60399  0.50877  1.0000
  H   H747      1.0  0.01247  0.49439  0.50461  1.0000
  S   S129      1.0  0.08346  0.64387  0.32570  1.0000
  H   H748      1.0  0.14482  0.51766  0.93963  1.0000
  N   N32       1.0  0.15331  0.55248  0.76382  1.0000
  C   C447      1.0  0.01969  0.65136  0.67413  1.0000
  Fe  Fe66      1.0  0.11226  0.64754  0.68255  1.0000
  S   S130      1.0  0.13468  0.63872  0.70411  1.0000
  S   S131      1.0  0.08811  0.67072  0.68483  1.0000
  Fe  Fe67      1.0  0.15743  0.59690  0.81361  1.0000
  S   S132      1.0  0.18847  0.58918  0.80565  1.0000
  S   S133      1.0  0.13499  0.60760  0.79260  1.0000
  Fe  Fe68      1.0  0.16123  0.58087  0.85569  1.0000
  S   S134      1.0  0.19244  0.57196  0.84987  1.0000
  S   S135      1.0  0.14965  0.56948  0.88523  1.0000
  Fe  Fe69      1.0  0.19372  0.60054  0.83325  1.0000
  H   H749      1.0  0.11707  0.67745  0.70784  1.0000
  Fe  Fe70      1.0  0.18416  0.56129  0.82324  1.0000
  S   S136      1.0  0.19557  0.53250  0.81276  1.0000
  S   S137      1.0  0.16266  0.61015  0.84031  1.0000
  S   S138      1.0  0.15304  0.56840  0.83005  1.0000
  Fe  Fe71      1.0  0.10536  0.59392  0.98293  1.0000
  H   H750      1.0  0.23400  0.63876  0.90221  1.0000
  S   S139      1.0  0.11033  0.61285  0.95541  1.0000
  H   H751      1.0  0.15301  0.57718  0.71821  1.0000
  H   H752      1.0  0.15235  0.53143  0.87321  1.0000
  H   H753      1.0  0.16396  0.58484  0.73728  1.0000
  N   N33       1.0  0.01638  0.53747  0.97705  1.0000
  H   H754      1.0  0.11775  0.50756  0.87769  1.0000
  C   C448      1.0  0.00356  0.64171  0.68066  1.0000
  H   H755      1.0  0.11542  0.54673  0.79591  1.0000
  C   C449      1.0  0.14391  0.51789  0.76634  1.0000
  C   C450      1.0  0.15454  0.55572  0.74238  1.0000
  H   H756      1.0  0.14339  0.54850  0.73666  1.0000
  H   H757      1.0  0.13981  0.54544  0.80049  1.0000
  C   C451      1.0  0.18313  0.51170  0.81660  1.0000
  H   H758      1.0  0.09996  0.53621  0.88967  1.0000
  C   C452      1.0  0.16383  0.51254  0.82307  1.0000
  H   H759      1.0  0.10368  0.69042  0.73693  1.0000
  H   H760      1.0  0.15625  0.52606  0.82612  1.0000
  C   C453      1.0  0.13805  0.58206  0.90410  1.0000
  C   C454      1.0  0.13607  0.57231  0.92231  1.0000
  C   C455      1.0  0.12731  0.58159  0.93794  1.0000
  C   C456      1.0  0.12043  0.60079  0.93558  1.0000
  C   C457      1.0  0.12208  0.61052  0.91729  1.0000
  C   C458      1.0  0.13091  0.60121  0.90156  1.0000
  H   H761      1.0  0.14152  0.55755  0.92452  1.0000
  H   H762      1.0  0.12599  0.57387  0.95188  1.0000
  H   H763      1.0  0.11653  0.62532  0.91533  1.0000
  H   H764      1.0  0.13214  0.60881  0.88755  1.0000
  H   H765      1.0  0.16241  0.57957  0.76963  1.0000
  H   H766      1.0  0.01999  0.52674  0.94896  1.0000
  C   C459      1.0  0.15232  0.57672  0.73397  1.0000
  N   N34       1.0  0.14321  0.50752  0.89221  1.0000
  C   C460      1.0  0.12225  0.51273  0.89071  1.0000
  C   C461      1.0  0.13430  0.63028  0.72881  1.0000
  C   C462      1.0  0.15162  0.62687  0.73730  1.0000
  C   C463      1.0  0.15216  0.62005  0.75672  1.0000
  C   C464      1.0  0.13533  0.61657  0.76803  1.0000
  C   C465      1.0  0.11801  0.62008  0.75956  1.0000
  C   C466      1.0  0.11746  0.62688  0.74013  1.0000
  H   H767      1.0  0.16476  0.62946  0.72877  1.0000
  H   H768      1.0  0.16561  0.61756  0.76294  1.0000
  H   H769      1.0  0.10486  0.61752  0.76809  1.0000
  H   H770      1.0  0.10400  0.62943  0.73394  1.0000
  H   H771      1.0  0.17212  0.52659  0.76088  1.0000
  H   H772      1.0  0.13089  0.52000  0.77619  1.0000
  H   H773      1.0  0.18280  0.51499  0.88383  1.0000
  H   H774      1.0  0.99747  0.60454  0.65976  1.0000
  N   N35       1.0  0.18782  0.62411  0.90454  1.0000
  C   C467      1.0  0.18081  0.60612  0.91496  1.0000
  C   C468      1.0  0.17796  0.64077  0.91448  1.0000
  C   C469      1.0  0.20889  0.62321  0.90643  1.0000
  C   C470      1.0  0.18383  0.62487  0.88388  1.0000
  C   C471      1.0  0.19015  0.58718  0.90777  1.0000
  C   C472      1.0  0.15605  0.64169  0.91699  1.0000
  C   C473      1.0  0.21910  0.64084  0.89828  1.0000
  C   C474      1.0  0.18089  0.64477  0.87293  1.0000
  H   H775      1.0  0.18256  0.60557  0.93048  1.0000
  H   H776      1.0  0.16535  0.60579  0.91399  1.0000
  H   H777      1.0  0.18169  0.65459  0.90698  1.0000
  H   H778      1.0  0.18285  0.64065  0.92898  1.0000
  H   H779      1.0  0.21174  0.62048  0.92170  1.0000
  H   H780      1.0  0.21662  0.61111  0.89921  1.0000
  H   H781      1.0  0.19546  0.61661  0.87560  1.0000
  H   H782      1.0  0.17079  0.61775  0.88241  1.0000
  H   H783      1.0  0.17349  0.71322  0.71516  1.0000
  H   H784      1.0  0.18984  0.58692  0.89219  1.0000
  H   H785      1.0  0.20494  0.58401  0.91174  1.0000
  C   C475      1.0  0.03674  0.53982  0.98010  1.0000
  C   C476      1.0  0.01476  0.52232  0.96392  1.0000
  H   H786      1.0  0.14998  0.63836  0.90402  1.0000
  H   H787      1.0  0.13657  0.71482  0.67364  1.0000
  C   C477      1.0  0.05013  0.54385  0.96195  1.0000
  H   H788      1.0  0.15030  0.53136  0.90630  1.0000
  H   H789      1.0  0.16712  0.65246  0.87767  1.0000
  H   H790      1.0  0.18047  0.64296  0.85758  1.0000
  H   H791      1.0  0.19246  0.65385  0.87386  1.0000
  S   S140      1.0  0.04212  0.64201  0.68177  1.0000
  H   H792      1.0  0.03800  0.50220  0.97522  1.0000
  H   H793      1.0  0.15117  0.63174  0.92922  1.0000
  H   H794      1.0  0.23001  0.76289  0.65973  1.0000
  C   C478      1.0  0.18786  0.56047  0.76449  1.0000
  S   S141      1.0  0.08540  0.57120  0.98347  1.0000
  H   H795      1.0  0.16610  0.56107  0.78771  1.0000
  H   H796      1.0  0.15010  0.65624  0.92028  1.0000
  H   H797      1.0  0.13840  0.58416  0.73866  1.0000
  H   H798      1.0  0.19632  0.57009  0.77093  1.0000
  H   H799      1.0  0.16225  0.52899  0.78424  1.0000
  H   H800      1.0  0.13612  0.72350  0.72286  1.0000
  H   H801      1.0  0.00494  0.62931  0.69081  1.0000
  H   H802      1.0  0.12653  0.69640  0.74283  1.0000
  H   H803      1.0  0.00766  0.61457  0.98153  1.0000
  H   H804      1.0  0.18201  0.57533  0.91466  1.0000
  C   C479      1.0  0.19272  0.49395  0.81266  1.0000
  H   H805      1.0  0.20641  0.76821  0.66855  1.0000
  H   H806      1.0  0.14031  0.67612  0.71443  1.0000
  H   H807      1.0  0.18183  0.51694  0.85873  1.0000
  H   H808      1.0  0.10466  0.71824  0.71867  1.0000
  H   H809      1.0  0.16824  0.54912  0.73585  1.0000
  C   C480      1.0  0.15873  0.53160  0.76921  1.0000
  C   C481      1.0  0.12853  0.55428  0.79319  1.0000
  C   C482      1.0  0.16674  0.56403  0.77196  1.0000
  H   H810      1.0  0.03110  0.59244  0.65966  1.0000
  H   H811      1.0  0.19373  0.54571  0.76873  1.0000
  H   H812      1.0  0.14823  0.72697  0.69975  1.0000
  H   H813      1.0  0.22014  0.64232  0.88253  1.0000
  H   H814      1.0  0.12568  0.56779  0.80015  1.0000
  H   H815      1.0  0.15943  0.70218  0.73431  1.0000
  H   H816      1.0  0.12270  0.55237  0.76399  1.0000
  H   H817      1.0  0.13012  0.57431  0.76851  1.0000
  H   H818      1.0  0.12158  0.67204  0.74316  1.0000
  C   C483      1.0  0.09714  0.51020  0.98819  1.0000
  S   S142      1.0  0.21569  0.62194  0.83460  1.0000
  C   C484      1.0  0.13330  0.55864  0.77151  1.0000
  H   H819      1.0  0.16629  0.69625  0.68079  1.0000
  H   H820      1.0  0.14010  0.51918  0.75145  1.0000
  S   S143      1.0  0.11669  0.52371  0.98458  1.0000
  H   H821      1.0  0.11918  0.74502  0.69752  1.0000
  C   C485      1.0  0.13803  0.51172  0.92831  1.0000
  C   C486      1.0  0.23846  0.60754  0.86365  1.0000
  H   H822      1.0  0.09937  0.70770  0.69828  1.0000
  H   H823      1.0  0.24303  0.64897  0.83583  1.0000
  H   H824      1.0  0.11363  0.50553  0.90279  1.0000
  H   H825      1.0  0.16564  0.69068  0.71262  1.0000
  H   H826      1.0  0.01521  0.55945  0.95336  1.0000
  H   H827      1.0  0.11934  0.54127  0.90191  1.0000
  H   H828      1.0  0.16469  0.51003  0.91130  1.0000
  Fe  Fe72      1.0  0.07111  0.65187  0.67057  1.0000
  H   H829      1.0  0.01092  0.56821  0.97614  1.0000
  H   H830      1.0  0.15004  0.50299  0.76966  1.0000
  H   H831      1.0  0.19026  0.56361  0.74887  1.0000
  C   C487      1.0  0.17562  0.50992  0.87234  1.0000
  H   H832      1.0  0.12376  0.69428  0.67658  1.0000
  C   C488      1.0  0.23983  0.79825  0.66331  1.0000
  H   H833      1.0  0.24089  0.78587  0.67415  1.0000
  H   H834      1.0  0.15419  0.67442  0.68572  1.0000
  C   C489      1.0  0.15399  0.51559  0.87432  1.0000
  H   H835      1.0  0.06514  0.91525  0.66836  1.0000
  H   H836      1.0  0.04669  0.55830  0.95487  1.0000
  N   N36       1.0  0.12935  0.70445  0.70308  1.0000
  C   C490      1.0  0.11008  0.71577  0.70378  1.0000
  C   C491      1.0  0.12691  0.68555  0.71447  1.0000
  C   C492      1.0  0.13507  0.70112  0.68251  1.0000
  C   C493      1.0  0.14333  0.71576  0.71079  1.0000
  C   C494      1.0  0.10917  0.73578  0.69280  1.0000
  C   C495      1.0  0.11926  0.68647  0.73554  1.0000
  C   C496      1.0  0.15389  0.68888  0.67813  1.0000
  C   C497      1.0  0.16124  0.70446  0.71852  1.0000
  H   H837      1.0  0.09462  0.74294  0.69549  1.0000
  H   H838      1.0  0.21272  0.65421  0.90409  1.0000
  C   C498      1.0  0.23464  0.62208  0.84931  1.0000
  C   C499      1.0  0.02409  0.50220  0.96950  1.0000
  C   C500      1.0  0.00819  0.55630  0.96791  1.0000
  H   H839      1.0  0.15549  0.68679  0.66271  1.0000
  H   H840      1.0  0.23002  0.59548  0.86571  1.0000
  H   H841      1.0  0.05028  0.53290  0.95180  1.0000
  H   H842      1.0  0.12339  0.51888  0.92842  1.0000
  H   H843      1.0  0.03733  0.55154  0.98941  1.0000
  H   H844      1.0  0.11156  0.73515  0.67720  1.0000
  C   C501      1.0  0.11569  0.53426  0.88962  1.0000
  H   H845      1.0  0.12152  0.54190  0.87623  1.0000
  S   S144      1.0  0.09463  0.62796  0.67026  1.0000
  H   H846      1.0  0.06490  0.54340  0.96602  1.0000
  H   H847      1.0  0.20949  0.80218  0.66819  1.0000
  H   H848      1.0  0.17974  0.79761  0.66367  1.0000
  H   H849      1.0  0.13932  0.49668  0.83050  1.0000
  H   H850      1.0  0.14800  0.51174  0.86147  1.0000
  C   C502      1.0  0.14981  0.51567  0.90903  1.0000
  C   C503      1.0  0.01770  0.66746  0.66113  1.0000
  H   H851      1.0  0.06205  0.58988  0.66479  1.0000
  H   H852      1.0  0.04081  0.91403  0.66560  1.0000
  H   H853      1.0  0.99953  0.52039  0.96282  1.0000
  H   H854      1.0  0.04356  0.52709  0.98788  1.0000
  C   C504      1.0  0.15427  0.49584  0.82558  1.0000
  H   H855      1.0  0.13740  0.49629  0.93249  1.0000
  H   H856      1.0  0.17912  0.49438  0.87172  1.0000
  H   H857      1.0  0.24201  0.81103  0.67049  1.0000
  H   H858      1.0  0.02734  0.49440  0.95654  1.0000
  C   C505      1.0  0.09720  0.49397  0.97844  1.0000
  H   H859      1.0  0.01451  0.49403  0.97985  1.0000
  C   C506      1.0  0.40344  0.26703  0.04034  1.0000
  H   H860      1.0  0.40020  0.28018  0.04779  1.0000
  Fe  Fe73      1.0  0.33980  0.09609  0.30778  1.0000
  S   S145      1.0  0.34076  0.11547  0.27976  1.0000
  Fe  Fe74      1.0  0.40683  0.13847  0.14178  1.0000
  S   S146      1.0  0.42893  0.12978  0.16220  1.0000
  S   S147      1.0  0.39969  0.11989  0.11931  1.0000
  Fe  Fe75      1.0  0.39982  0.17964  0.15399  1.0000
  S   S148      1.0  0.42190  0.17339  0.17538  1.0000
  S   S149      1.0  0.38268  0.20937  0.15268  1.0000
  Fe  Fe76      1.0  0.44014  0.15809  0.15275  1.0000
  S   S150      1.0  0.47119  0.15954  0.14091  1.0000
  Fe  Fe77      1.0  0.40898  0.14541  0.18352  1.0000
  S   S151      1.0  0.40761  0.13154  0.21433  1.0000
  S   S152      1.0  0.41899  0.16616  0.13093  1.0000
  S   S153      1.0  0.38587  0.15234  0.16356  1.0000
  Fe  Fe78      1.0  0.42485  0.01077  0.09195  1.0000
  S   S154      1.0  0.44147  0.00896  0.06335  1.0000
  S   S155      1.0  0.42854  0.03209  0.11322  1.0000
  H   H861      1.0  0.46085  0.09343  0.14304  1.0000
  Fe  Fe79      1.0  0.32730  0.33727  0.05818  1.0000
  S   S156      1.0  0.35698  0.32899  0.06607  1.0000
  S   S157      1.0  0.32082  0.34732  0.02776  1.0000
  Fe  Fe80      1.0  0.31124  0.33638  0.09976  1.0000
  S   S158      1.0  0.34011  0.32794  0.11066  1.0000
  S   S159      1.0  0.28470  0.33824  0.12078  1.0000
  Fe  Fe81      1.0  0.35041  0.35019  0.08792  1.0000
  S   S160      1.0  0.37415  0.36866  0.09148  1.0000
  Fe  Fe82      1.0  0.34454  0.30726  0.08811  1.0000
  S   S161      1.0  0.35952  0.27673  0.08874  1.0000
  S   S162      1.0  0.32134  0.35997  0.07883  1.0000
  S   S163      1.0  0.31496  0.31426  0.07845  1.0000
  C   C507      1.0  0.24944  0.35270  0.13554  1.0000
  C   C508      1.0  0.47389  0.09523  0.09523  1.0000
  H   H862      1.0  0.39421  0.25246  0.01804  1.0000
  Fe  Fe83      1.0  0.40093  0.47626  0.08365  1.0000
  S   S164      1.0  0.37534  0.45875  0.09067  1.0000
  S   S165      1.0  0.43149  0.46581  0.07637  1.0000
  C   C509      1.0  0.47725  0.12976  0.09342  1.0000
  H   H863      1.0  0.36807  0.29124  0.04933  1.0000
  C   C510      1.0  0.36036  0.14661  0.31514  1.0000
  H   H864      1.0  0.36653  0.47420  0.05045  1.0000
  C   C511      1.0  0.35729  0.47059  0.03990  1.0000
  H   H865      1.0  0.40767  0.08621  0.30607  1.0000
  C   C512      1.0  0.48109  0.99532  0.02434  1.0000
  C   C513      1.0  0.26522  0.35610  0.12244  1.0000
  N   N37       1.0  0.38131  0.44502  0.02501  1.0000
  C   C514      1.0  0.26523  0.37357  0.11136  1.0000
  H   H866      1.0  0.29002  0.38540  0.13961  1.0000
  H   H867      1.0  0.27725  0.37641  0.10124  1.0000
  C   C515      1.0  0.32244  0.33391  0.00771  1.0000
  H   H868      1.0  0.34529  0.27414  0.01186  1.0000
  C   C516      1.0  0.32107  0.31424  0.00959  1.0000
  H   H869      1.0  0.35811  0.46239  0.01172  1.0000
  H   H870      1.0  0.31924  0.30676  0.02361  1.0000
  C   C517      1.0  0.37420  0.39385  0.08970  1.0000
  C   C518      1.0  0.39156  0.40179  0.08988  1.0000
  C   C519      1.0  0.39221  0.42165  0.08966  1.0000
  C   C520      1.0  0.37540  0.43377  0.08975  1.0000
  C   C521      1.0  0.35802  0.42586  0.08939  1.0000
  C   C522      1.0  0.35745  0.40604  0.08895  1.0000
  H   H871      1.0  0.40460  0.39248  0.09045  1.0000
  H   H872      1.0  0.40566  0.42751  0.09002  1.0000
  H   H873      1.0  0.34495  0.43515  0.08935  1.0000
  H   H874      1.0  0.34407  0.40014  0.08846  1.0000
  H   H875      1.0  0.38453  0.13935  0.28513  1.0000
  C   C523      1.0  0.36874  0.46337  0.02194  1.0000
  H   H876      1.0  0.44535  0.14910  0.07822  1.0000
  H   H877      1.0  0.28553  0.35843  0.15642  1.0000
  C   C524      1.0  0.41273  0.43286  0.03997  1.0000
  C   C525      1.0  0.24969  0.38750  0.11349  1.0000
  C   C526      1.0  0.37669  0.22795  0.13456  1.0000
  C   C527      1.0  0.38156  0.22623  0.11513  1.0000
  C   C528      1.0  0.37622  0.24127  0.10143  1.0000
  C   C529      1.0  0.36599  0.25832  0.10686  1.0000
  C   C530      1.0  0.36115  0.26005  0.12629  1.0000
  C   C531      1.0  0.36643  0.24499  0.13998  1.0000
  H   H878      1.0  0.38941  0.21329  0.11065  1.0000
  H   H879      1.0  0.38010  0.23964  0.08652  1.0000
  H   H880      1.0  0.35332  0.27299  0.13079  1.0000
  H   H881      1.0  0.36257  0.24661  0.15489  1.0000
  H   H882      1.0  0.35304  0.00988  0.03953  1.0000
  H   H883      1.0  0.48024  0.49220  0.02560  1.0000
  C   C532      1.0  0.37068  0.42924  0.03558  1.0000
  H   H884      1.0  0.43206  0.14219  0.10062  1.0000
  H   H885      1.0  0.47539  0.16047  0.18162  1.0000
  C   C533      1.0  0.40645  0.09507  0.11848  1.0000
  C   C534      1.0  0.40362  0.08626  0.10215  1.0000
  C   C535      1.0  0.40982  0.06687  0.10044  1.0000
  C   C536      1.0  0.41892  0.05607  0.11511  1.0000
  C   C537      1.0  0.42142  0.06481  0.13156  1.0000
  C   C538      1.0  0.41523  0.08417  0.13327  1.0000
  H   H886      1.0  0.39678  0.09455  0.09066  1.0000
  H   H887      1.0  0.40780  0.06035  0.08771  1.0000
  H   H888      1.0  0.42839  0.05657  0.14301  1.0000
  H   H889      1.0  0.41736  0.09067  0.14599  1.0000
  C   C539      1.0  0.35932  0.11834  0.26113  1.0000
  C   C540      1.0  0.35526  0.12967  0.24430  1.0000
  C   C541      1.0  0.36966  0.13314  0.22951  1.0000
  C   C542      1.0  0.38849  0.12592  0.23162  1.0000
  C   C543      1.0  0.39252  0.11443  0.24838  1.0000
  C   C544      1.0  0.37798  0.11034  0.26287  1.0000
  H   H890      1.0  0.34082  0.13565  0.24265  1.0000
  H   H891      1.0  0.36621  0.14142  0.21653  1.0000
  H   H892      1.0  0.40697  0.10849  0.25005  1.0000
  H   H893      1.0  0.38121  0.10110  0.27541  1.0000
  C   C545      1.0  0.41002  0.99898  0.00394  1.0000
  H   H894      1.0  0.28732  0.36190  0.05041  1.0000
  C   C546      1.0  0.39665  0.44900  0.03705  1.0000
  H   H895      1.0  0.47491  0.02491  0.03234  1.0000
  C   C547      1.0  0.41090  0.10136  0.30398  1.0000
  H   H896      1.0  0.34743  0.46023  0.04678  1.0000
  H   H897      1.0  0.27999  0.34258  0.01442  1.0000
  N   N38       1.0  0.39611  0.13471  0.31276  1.0000
  H   H898      1.0  0.43674  0.10793  0.09097  1.0000
  H   H899      1.0  0.41478  0.15398  0.32142  1.0000
  H   H900      1.0  0.41881  0.26610  0.03531  1.0000
  C   C548      1.0  0.35304  0.42402  0.02689  1.0000
  H   H901      1.0  0.47915  0.09518  0.07988  1.0000
  H   H902      1.0  0.25455  0.35533  0.08150  1.0000
  H   H903      1.0  0.39193  0.17258  0.30090  1.0000
  H   H904      1.0  0.36250  0.29894  0.99316  1.0000
  H   H905      1.0  0.33826  0.24974  0.06042  1.0000
  C   C549      1.0  0.42739  0.48529  0.00553  1.0000
  C   C550      1.0  0.46181  0.01205  0.00034  1.0000
  H   H906      1.0  0.49069  0.45818  0.00492  1.0000
  H   H907      1.0  0.45222  0.13062  0.12273  1.0000
  S   S166      1.0  0.36387  0.07622  0.31853  1.0000
  H   H908      1.0  0.34440  0.40801  0.16069  1.0000
  H   H909      1.0  0.36782  0.00142  0.01228  1.0000
  H   H910      1.0  0.42378  0.13800  0.07868  1.0000
  H   H911      1.0  0.40135  0.25444  0.05072  1.0000
  C   C551      1.0  0.39683  0.14292  0.29229  1.0000
  H   H912      1.0  0.28103  0.31734  0.01740  1.0000
  N   N39       1.0  0.31995  0.37916  0.14405  1.0000
  C   C552      1.0  0.31683  0.35915  0.15256  1.0000
  C   C553      1.0  0.33872  0.37808  0.13198  1.0000
  C   C554      1.0  0.30419  0.38547  0.13139  1.0000
  C   C555      1.0  0.31948  0.39196  0.15996  1.0000
  Fe  Fe84      1.0  0.43873  0.49115  0.09017  1.0000
  C   C556      1.0  0.35618  0.36973  0.14242  1.0000
  C   C557      1.0  0.30432  0.40558  0.12097  1.0000
  C   C558      1.0  0.32997  0.41029  0.15558  1.0000
  H   H913      1.0  0.31762  0.34924  0.14117  1.0000
  H   H914      1.0  0.32820  0.35346  0.16187  1.0000
  H   H915      1.0  0.34212  0.39216  0.12506  1.0000
  H   H916      1.0  0.33806  0.36934  0.11985  1.0000
  H   H917      1.0  0.30423  0.37526  0.12038  1.0000
  H   H918      1.0  0.30449  0.39633  0.16519  1.0000
  H   H919      1.0  0.32608  0.38393  0.17234  1.0000
  C   C559      1.0  0.26271  0.34356  0.07407  1.0000
  H   H920      1.0  0.29556  0.36641  0.17652  1.0000
  S   S167      1.0  0.40572  0.01123  0.02479  1.0000
  H   H921      1.0  0.35641  0.37540  0.15639  1.0000
  H   H922      1.0  0.35690  0.35392  0.14430  1.0000
  H   H923      1.0  0.36935  0.37343  0.13357  1.0000
  H   H924      1.0  0.31769  0.40775  0.11194  1.0000
  H   H925      1.0  0.32226  0.42166  0.16388  1.0000
  H   H926      1.0  0.33101  0.41624  0.14055  1.0000
  H   H927      1.0  0.29835  0.34188  0.17190  1.0000
  H   H928      1.0  0.30116  0.41671  0.13109  1.0000
  H   H929      1.0  0.29272  0.40768  0.11131  1.0000
  H   H930      1.0  0.27418  0.36729  0.03072  1.0000
  H   H931      1.0  0.31964  0.28923  0.99476  1.0000
  Fe  Fe85      1.0  0.42996  0.48650  0.05048  1.0000
  H   H932      1.0  0.35086  0.29689  0.03280  1.0000
  C   C560      1.0  0.46183  0.07817  0.10024  1.0000
  C   C561      1.0  0.27242  0.36444  0.04638  1.0000
  C   C562      1.0  0.49317  0.46003  0.04372  1.0000
  H   H933      1.0  0.38014  0.41576  0.03698  1.0000
  C   C563      1.0  0.44769  0.11808  0.08655  1.0000
  H   H934      1.0  0.33311  0.25632  0.03645  1.0000
  C   C564      1.0  0.48901  0.16232  0.17369  1.0000
  H   H935      1.0  0.39832  0.27632  0.01149  1.0000
  S   S168      1.0  0.44358  0.47771  0.02231  1.0000
  H   H936      1.0  0.42080  0.42929  0.02639  1.0000
  H   H937      1.0  0.44919  0.00841  0.01024  1.0000
  H   H938      1.0  0.48270  0.10056  0.13064  1.0000
  H   H939      1.0  0.45044  0.07831  0.09056  1.0000
  H   H940      1.0  0.45276  0.11560  0.07152  1.0000
  H   H941      1.0  0.25350  0.32570  0.09940  1.0000
  H   H942      1.0  0.40932  0.13622  0.28382  1.0000
  H   H943      1.0  0.35708  0.41323  0.01648  1.0000
  N   N40       1.0  0.46390  0.11448  0.09918  1.0000
  C   C565      1.0  0.37788  0.30809  0.02411  1.0000
  C   C566      1.0  0.26380  0.38318  0.05448  1.0000
  C   C567      1.0  0.35849  0.00028  0.05156  1.0000
  C   C568      1.0  0.27203  0.33009  0.04377  1.0000
  H   H944      1.0  0.46503  0.02634  0.00366  1.0000
  H   H945      1.0  0.36644  0.43210  0.05062  1.0000
  C   C569      1.0  0.29793  0.35669  0.16500  1.0000
  H   H946      1.0  0.39075  0.17047  0.27635  1.0000
  H   H947      1.0  0.36809  0.32110  0.02111  1.0000
  H   H948      1.0  0.36982  0.25814  0.05549  1.0000
  C   C570      1.0  0.45578  0.11550  0.11960  1.0000
  C   C571      1.0  0.49065  0.16277  0.15383  1.0000
  S   S169      1.0  0.39788  0.00324  0.08155  1.0000
  H   H949      1.0  0.41299  0.10500  0.28840  1.0000
  H   H950      1.0  0.42308  0.43779  0.04874  1.0000
  H   H951      1.0  0.44195  0.10919  0.12195  1.0000
  H   H952      1.0  0.40363  0.44690  0.00187  1.0000
  C   C572      1.0  0.43682  0.13809  0.08615  1.0000
  C   C573      1.0  0.25484  0.32507  0.08371  1.0000
  H   H953      1.0  0.33638  0.27434  0.05219  1.0000
  H   H954      1.0  0.40360  0.46192  0.03083  1.0000
  H   H955      1.0  0.30938  0.99673  0.27108  1.0000
  H   H956      1.0  0.36051  0.15825  0.30347  1.0000
  Fe  Fe86      1.0  0.41531  0.99895  0.05353  1.0000
  S   S170      1.0  0.31796  0.07462  0.31479  1.0000
  H   H957      1.0  0.24989  0.40104  0.10497  1.0000
  C   C574      1.0  0.39407  0.11366  0.31346  1.0000
  H   H958      1.0  0.37738  0.47498  0.01525  1.0000
  H   H959      1.0  0.39058  0.45218  0.05156  1.0000
  H   H960      1.0  0.38126  0.11122  0.30655  1.0000
  N   N41       1.0  0.35391  0.19716  0.20367  1.0000
  C   C575      1.0  0.35220  0.18205  0.19048  1.0000
  C   C576      1.0  0.37475  0.19757  0.20618  1.0000
  C   C577      1.0  0.34593  0.21610  0.19434  1.0000
  C   C578      1.0  0.34258  0.19190  0.22227  1.0000
  C   C579      1.0  0.33198  0.18017  0.18498  1.0000
  C   C580      1.0  0.38499  0.17898  0.21483  1.0000
  C   C581      1.0  0.35491  0.23420  0.19816  1.0000
  C   C582      1.0  0.34436  0.20412  0.23866  1.0000
  H   H961      1.0  0.36135  0.18464  0.17700  1.0000
  H   H962      1.0  0.35730  0.16769  0.19672  1.0000
  H   H963      1.0  0.37713  0.20878  0.21533  1.0000
  H   H964      1.0  0.38275  0.20136  0.19223  1.0000
  H   H965      1.0  0.34761  0.21618  0.17850  1.0000
  H   H966      1.0  0.33032  0.21854  0.19811  1.0000
  H   H967      1.0  0.32714  0.19279  0.22034  1.0000
  H   H968      1.0  0.34645  0.17676  0.22744  1.0000
  H   H969      1.0  0.33299  0.16966  0.17418  1.0000
  H   H970      1.0  0.32264  0.17457  0.19731  1.0000
  H   H971      1.0  0.32523  0.19372  0.17845  1.0000
  H   H972      1.0  0.38637  0.16768  0.20492  1.0000
  H   H973      1.0  0.39974  0.18156  0.21713  1.0000
  H   H974      1.0  0.37810  0.17380  0.22883  1.0000
  H   H975      1.0  0.36946  0.23450  0.19074  1.0000
  H   H976      1.0  0.35552  0.23571  0.21344  1.0000
  H   H977      1.0  0.34633  0.24696  0.19213  1.0000
  H   H978      1.0  0.35914  0.20333  0.24266  1.0000
  H   H979      1.0  0.33558  0.19854  0.25147  1.0000
  H   H980      1.0  0.33879  0.21911  0.23532  1.0000
  N   N42       1.0  0.37059  0.27239  0.02689  1.0000
  C   C583      1.0  0.36307  0.25779  0.04207  1.0000
  C   C584      1.0  0.39165  0.26698  0.02315  1.0000
  C   C585      1.0  0.36088  0.27075  0.00921  1.0000
  C   C586      1.0  0.36612  0.29194  0.03387  1.0000
  C   C587      1.0  0.34143  0.25995  0.04781  1.0000
  H   H981      1.0  0.40740  0.41988  0.04789  1.0000
  H   H982      1.0  0.38775  0.31206  0.03398  1.0000
  H   H983      1.0  0.35693  0.13345  0.30953  1.0000
  H   H984      1.0  0.36677  0.24306  0.03773  1.0000
  H   H985      1.0  0.38603  0.30518  0.01049  1.0000
  H   H986      1.0  0.34310  0.41790  0.03847  1.0000
  C   C588      1.0  0.34848  0.00848  0.06964  1.0000
  H   H987      1.0  0.27135  0.39518  0.04703  1.0000
  H   H988      1.0  0.48026  0.46031  0.03593  1.0000
  H   H989      1.0  0.26530  0.31686  0.04917  1.0000
  H   H990      1.0  0.34468  0.43641  0.02013  1.0000
  C   C589      1.0  0.48593  0.46108  0.06487  1.0000
  H   H991      1.0  0.24851  0.38637  0.05243  1.0000
  H   H992      1.0  0.28699  0.32779  0.04764  1.0000
  H   H993      1.0  0.47102  0.06466  0.09859  1.0000
  H   H994      1.0  0.36294  0.25578  0.00522  1.0000
  H   H995      1.0  0.39634  0.42365  0.00769  1.0000
  C   C590      1.0  0.46797  0.10562  0.13536  1.0000
  H   H996      1.0  0.27763  0.34328  0.07788  1.0000
  H   H997      1.0  0.37382  0.00250  0.05119  1.0000
  H   H998      1.0  0.41359  0.16763  0.28609  1.0000
  C   C591      1.0  0.39845  0.16462  0.28887  1.0000
  H   H999      1.0  0.47726  0.47466  0.06733  1.0000
  H   H1000     1.0  0.45551  0.07752  0.11516  1.0000
  C   C592      1.0  0.39089  0.43899  0.00625  1.0000
  N   N43       1.0  0.47847  0.99735  0.00335  1.0000
  H   H1001     1.0  0.46883  0.11578  0.14618  1.0000
  H   H1002     1.0  0.34848  0.48394  0.03572  1.0000
  H   H1003     1.0  0.35219  1.00000  0.08296  1.0000
  H   H1004     1.0  0.48688  0.09175  0.10274  1.0000
  H   H1005     1.0  0.26583  0.38305  0.06979  1.0000
  H   H1006     1.0  0.47655  0.44949  0.06935  1.0000
  H   H1007     1.0  0.35321  0.02287  0.07041  1.0000
  H   H1008     1.0  0.33286  0.01061  0.06898  1.0000
  S   S171      1.0  0.46395  0.48758  0.10797  1.0000
  C   C593      1.0  0.27270  0.33051  0.02195  1.0000
  C   C594      1.0  0.41412  0.13840  0.32082  1.0000
  C   C595      1.0  0.37925  0.14367  0.32455  1.0000
  H   H1009     1.0  0.24927  0.33924  0.14422  1.0000
  H   H1010     1.0  0.26480  0.31235  0.08084  1.0000
  N   N44       1.0  0.26181  0.34715  0.05278  1.0000
  H   H1011     1.0  0.47010  0.14406  0.09631  1.0000
  H   H1012     1.0  0.25837  0.33025  0.01710  1.0000
  H   H1013     1.0  0.48898  0.00947  0.04781  1.0000
  C   C596      1.0  0.48651  0.01320  0.03259  1.0000
  H   H1014     1.0  0.49270  0.12980  0.11884  1.0000
  H   H1015     1.0  0.24872  0.36264  0.01875  1.0000
  H   H1016     1.0  0.42688  0.13383  0.31134  1.0000
  H   H1017     1.0  0.48139  0.13041  0.07780  1.0000
  C   C597      1.0  0.33944  0.00456  0.32299  1.0000
  H   H1018     1.0  0.42434  0.10205  0.31050  1.0000
  H   H1019     1.0  0.49329  0.48296  0.99686  1.0000
  S   S172      1.0  0.35251  0.02474  0.32203  1.0000
  C   C598      1.0  0.32119  0.30436  0.99325  1.0000
  C   C599      1.0  0.29247  0.05247  0.64038  1.0000
  S   S173      1.0  0.38127  0.11016  0.63237  1.0000
  H   H1020     1.0  0.41781  0.12173  0.61676  1.0000
  S   S174      1.0  0.33383  0.08185  0.63880  1.0000
  H   H1021     1.0  0.31240  0.01851  0.33275  1.0000
  H   H1022     1.0  0.25971  0.07527  0.65018  1.0000
  S   S175      1.0  0.45961  0.06205  0.61008  1.0000
  H   H1023     1.0  0.38209  0.15772  0.32890  1.0000
  H   H1024     1.0  0.45552  0.07095  0.56194  1.0000
  Fe  Fe87      1.0  0.31234  0.08667  0.34351  1.0000
  S   S176      1.0  0.28310  0.08986  0.36118  1.0000
  Fe  Fe88      1.0  0.35546  0.08779  0.34682  1.0000
  S   S177      1.0  0.37525  0.09787  0.36659  1.0000
  C   C600      1.0  0.24786  0.13972  0.35708  1.0000
  H   H1025     1.0  0.43621  0.07680  0.52533  1.0000
  H   H1026     1.0  0.27161  0.04416  0.61212  1.0000
  S   S178      1.0  0.33491  0.06588  0.35662  1.0000
  Fe  Fe89      1.0  0.48008  0.07537  0.40174  1.0000
  S   S179      1.0  0.46294  0.07290  0.37645  1.0000
  S   S180      1.0  0.47032  0.07188  0.43300  1.0000
  H   H1027     1.0  0.46078  0.07622  0.52867  1.0000
  C   C601      1.0  0.26482  0.10872  0.36548  1.0000
  C   C602      1.0  0.45827  0.10811  0.54764  1.0000
  H   H1028     1.0  0.46161  0.08659  0.65488  1.0000
  C   C603      1.0  0.26327  0.12579  0.35369  1.0000
  S   S181      1.0  0.34555  0.02738  0.65088  1.0000
  C   C604      1.0  0.44803  0.02012  0.37045  1.0000
  H   H1029     1.0  0.27382  0.12813  0.34181  1.0000
  S   S182      1.0  0.49002  0.02035  0.45160  1.0000
  H   H1030     1.0  0.25186  0.09296  0.39012  1.0000
  N   N45       1.0  0.46204  0.00820  0.38241  1.0000
  H   H1031     1.0  0.45327  0.03426  0.36575  1.0000
  C   C605      1.0  0.43820  0.07890  0.37474  1.0000
  C   C606      1.0  0.42706  0.08996  0.38768  1.0000
  C   C607      1.0  0.40772  0.09527  0.38517  1.0000
  C   C608      1.0  0.39915  0.08923  0.37001  1.0000
  C   C609      1.0  0.41016  0.07768  0.35737  1.0000
  C   C610      1.0  0.42965  0.07283  0.35956  1.0000
  H   H1032     1.0  0.43344  0.09482  0.39936  1.0000
  H   H1033     1.0  0.39935  0.10426  0.39498  1.0000
  H   H1034     1.0  0.40379  0.07300  0.34559  1.0000
  H   H1035     1.0  0.43816  0.06444  0.34934  1.0000
  C   C611      1.0  0.25889  0.14358  0.52838  1.0000
  H   H1036     1.0  0.39233  0.06941  0.63350  1.0000
  C   C612      1.0  0.25082  0.10603  0.38083  1.0000
  N   N46       1.0  0.44255  0.09564  0.54588  1.0000
  H   H1037     1.0  0.41150  0.07492  0.56349  1.0000
  H   H1038     1.0  0.42755  0.05792  0.55062  1.0000
  C   C613      1.0  0.26686  0.11434  0.64577  1.0000
  C   C614      1.0  0.27063  0.11030  0.62673  1.0000
  H   H1039     1.0  0.28439  0.10352  0.62197  1.0000
  H   H1040     1.0  0.25877  0.15925  0.52734  1.0000
  C   C615      1.0  0.40291  0.09681  0.62571  1.0000
  C   C616      1.0  0.40458  0.07690  0.62807  1.0000
  C   C617      1.0  0.42207  0.06657  0.62322  1.0000
  C   C618      1.0  0.43813  0.07600  0.61607  1.0000
  C   C619      1.0  0.43657  0.09594  0.61387  1.0000
  C   C620      1.0  0.41895  0.10631  0.61847  1.0000
  H   H1041     1.0  0.48312  0.03214  0.35398  1.0000
  H   H1042     1.0  0.42314  0.05115  0.62496  1.0000
  H   H1043     1.0  0.44892  0.10337  0.60878  1.0000
  H   H1044     1.0  0.41939  0.11330  0.34119  1.0000
  H   H1045     1.0  0.30020  0.04549  0.65253  1.0000
  H   H1046     1.0  0.29461  0.00784  0.63884  1.0000
  H   H1047     1.0  0.49041  0.00193  0.51866  1.0000
  C   C621      1.0  0.47999  0.00370  0.36968  1.0000
  C   C622      1.0  0.48338  0.00171  0.57505  1.0000
  H   H1048     1.0  0.42530  0.11965  0.53332  1.0000
  H   H1049     1.0  0.25977  0.11205  0.59909  1.0000
  H   H1050     1.0  0.27193  0.99819  0.64187  1.0000
  C   C623      1.0  0.45020  0.09928  0.50922  1.0000
  H   H1051     1.0  0.24764  0.16443  0.48846  1.0000
  C   C624      1.0  0.25660  0.11517  0.61376  1.0000
  H   H1052     1.0  0.46143  0.10898  0.50969  1.0000
  H   H1053     1.0  0.31985  0.04935  0.62360  1.0000
  H   H1054     1.0  0.49196  0.14430  0.47909  1.0000
  C   C625      1.0  0.44744  0.08595  0.52772  1.0000
  C   C626      1.0  0.46713  0.01914  0.39815  1.0000
  H   H1055     1.0  0.41726  0.10776  0.57592  1.0000
  H   H1056     1.0  0.30062  0.05752  0.60964  1.0000
  C   C627      1.0  0.42376  0.10746  0.54437  1.0000
  H   H1057     1.0  0.46986  0.00556  0.58282  1.0000
  H   H1058     1.0  0.41767  0.02697  0.36847  1.0000
  H   H1059     1.0  0.42626  0.05699  0.57590  1.0000
  H   H1060     1.0  0.44747  0.12079  0.57454  1.0000
  H   H1061     1.0  0.44035  0.08594  0.57611  1.0000
  C   C628      1.0  0.44184  0.08014  0.56209  1.0000
  C   C629      1.0  0.30475  0.04758  0.62197  1.0000
  H   H1062     1.0  0.45669  0.12157  0.53814  1.0000
  H   H1063     1.0  0.46616  0.10154  0.57693  1.0000
  H   H1064     1.0  0.25838  0.13783  0.54358  1.0000
  C   C630      1.0  0.42576  0.06691  0.56273  1.0000
  Fe  Fe90      1.0  0.35771  0.09501  0.64984  1.0000
  H   H1065     1.0  0.39152  0.10737  0.32839  1.0000
  H   H1066     1.0  0.42959  0.13398  0.34619  1.0000
  N   N47       1.0  0.27208  0.04751  0.64235  1.0000
  C   C631      1.0  0.41682  0.12899  0.34105  1.0000
  H   H1067     1.0  0.43677  0.10770  0.50571  1.0000
  S   S183      1.0  0.48908  0.11487  0.45588  1.0000
  H   H1068     1.0  0.42234  0.01298  0.38965  1.0000
  H   H1069     1.0  0.27673  0.01471  0.62227  1.0000
  H   H1070     1.0  0.41312  0.09927  0.53896  1.0000
  H   H1071     1.0  0.45484  0.09048  0.49715  1.0000
  C   C632      1.0  0.26357  0.05202  0.62356  1.0000
  H   H1072     1.0  0.46846  0.03433  0.39296  1.0000
  H   H1073     1.0  0.47148  0.12439  0.56627  1.0000
  H   H1074     1.0  0.44696  0.01396  0.35677  1.0000
  C   C633      1.0  0.42770  0.02466  0.37974  1.0000
  H   H1075     1.0  0.41867  0.13092  0.56295  1.0000
  C   C634      1.0  0.46064  0.11393  0.56759  1.0000
  H   H1076     1.0  0.30434  0.03273  0.61870  1.0000
  H   H1077     1.0  0.39868  0.11733  0.56230  1.0000
  H   H1078     1.0  0.46647  0.00868  0.51377  1.0000
  H   H1079     1.0  0.42671  0.03792  0.38712  1.0000
  C   C635      1.0  0.45367  0.01906  0.41662  1.0000
  H   H1080     1.0  0.27289  0.13862  0.52120  1.0000
  C   C636      1.0  0.41440  0.11632  0.56245  1.0000
  H   H1081     1.0  0.37640  0.13484  0.33828  1.0000
  H   H1082     1.0  0.47233  0.10083  0.54283  1.0000
  H   H1083     1.0  0.29299  0.06811  0.64097  1.0000
  C   C637      1.0  0.24880  0.12320  0.65154  1.0000
  S   S184      1.0  0.33257  0.10927  0.33568  1.0000
  H   H1084     1.0  0.26453  0.06738  0.61852  1.0000
  H   H1085     1.0  0.42605  0.09120  0.65517  1.0000
  H   H1086     1.0  0.40456  0.13266  0.35142  1.0000
  C   C638      1.0  0.27917  0.01135  0.63742  1.0000
  C   C639      1.0  0.27080  0.02704  0.65028  1.0000
  Fe  Fe91      1.0  0.48800  0.07103  0.59605  1.0000
  H   H1087     1.0  0.47683  0.99711  0.35686  1.0000
  H   H1088     1.0  0.48134  0.01349  0.40274  1.0000
  Fe  Fe92      1.0  0.34172  0.05547  0.32751  1.0000
  H   H1089     1.0  0.43872  0.02358  0.41419  1.0000
  C   C640      1.0  0.47692  0.99615  0.51642  1.0000
  H   H1090     1.0  0.45818  0.02932  0.42581  1.0000
  H   H1091     1.0  0.24681  0.15274  0.34772  1.0000
  C   C641      1.0  0.32001  0.00521  0.32891  1.0000
  H   H1092     1.0  0.45472  0.00489  0.42487  1.0000
  H   H1093     1.0  0.25592  0.02418  0.65541  1.0000
  H   H1094     1.0  0.24852  0.13434  0.50344  1.0000
  C   C642      1.0  0.49151  0.02072  0.36220  1.0000
  C   C643      1.0  0.26079  0.06011  0.65627  1.0000
  Fe  Fe93      1.0  0.49315  0.09083  0.43666  1.0000
  H   H1095     1.0  0.34487  0.99553  0.37396  1.0000
  C   C644      1.0  0.33347  0.00679  0.65834  1.0000
  H   H1096     1.0  0.34858  0.15069  0.32592  1.0000
  S   S185      1.0  0.36556  0.06984  0.67011  1.0000
  H   H1097     1.0  0.45449  0.48470  0.88783  1.0000
  S   S186      1.0  0.32043  0.06949  0.68395  1.0000
  Fe  Fe94      1.0  0.34504  0.08444  0.69143  1.0000
  S   S187      1.0  0.35194  0.08453  0.72235  1.0000
  H   H1098     1.0  0.40900  0.12608  0.66570  1.0000
  H   H1099     1.0  0.49070  0.19519  0.86180  1.0000
  H   H1100     1.0  0.30837  0.42555  0.88693  1.0000
  Fe  Fe95      1.0  0.39283  0.17239  0.82957  1.0000
  S   S188      1.0  0.41456  0.16512  0.80514  1.0000
  S   S189      1.0  0.39199  0.20222  0.84064  1.0000
  Fe  Fe96      1.0  0.38599  0.12965  0.83842  1.0000
  S   S190      1.0  0.40731  0.11976  0.81510  1.0000
  S   S191      1.0  0.37070  0.11091  0.86155  1.0000
  Fe  Fe97      1.0  0.42602  0.14045  0.82447  1.0000
  S   S192      1.0  0.45569  0.13127  0.83409  1.0000
  Fe  Fe98      1.0  0.39399  0.14506  0.79750  1.0000
  S   S193      1.0  0.38803  0.14535  0.76610  1.0000
  S   S194      1.0  0.40541  0.14845  0.84903  1.0000
  S   S195      1.0  0.37148  0.15410  0.82062  1.0000
  C   C645      1.0  0.27016  0.13001  0.72694  1.0000
  H   H1101     1.0  0.38855  0.06723  0.70407  1.0000
  H   H1102     1.0  0.44363  0.19189  0.80005  1.0000
  C   C646      1.0  0.44181  0.24363  0.82813  1.0000
  H   H1103     1.0  0.43745  0.46330  0.98705  1.0000
  H   H1104     1.0  0.42859  0.25339  0.82993  1.0000
  Fe  Fe99      1.0  0.39846  0.00232  0.88555  1.0000
  S   S196      1.0  0.37307  0.02052  0.87481  1.0000
  S   S197      1.0  0.41546  0.01176  0.90749  1.0000
  Fe  Fe100     1.0  0.32960  0.29726  0.88362  1.0000
  S   S198      1.0  0.30465  0.30039  0.90583  1.0000
  S   S199      1.0  0.33089  0.27034  0.86729  1.0000
  Fe  Fe101     1.0  0.34032  0.33723  0.88976  1.0000
  S   S200      1.0  0.31633  0.34249  0.91229  1.0000
  S   S201      1.0  0.36034  0.35984  0.87850  1.0000
  Fe  Fe102     1.0  0.32433  0.31232  0.92367  1.0000
  S   S202      1.0  0.32436  0.30048  0.95488  1.0000
  Fe  Fe103     1.0  0.29859  0.33032  0.89259  1.0000
  S   S203      1.0  0.26791  0.34322  0.89006  1.0000
  S   S204      1.0  0.34977  0.30753  0.90227  1.0000
  S   S205      1.0  0.32210  0.32673  0.86929  1.0000
  Fe  Fe104     1.0  0.37583  0.46217  0.91069  1.0000
  S   S206      1.0  0.39495  0.45766  0.93443  1.0000
  S   S207      1.0  0.35340  0.44127  0.91060  1.0000
  H   H1105     1.0  0.32674  0.40938  0.87820  1.0000
  C   C647      1.0  0.46276  0.20791  0.81364  1.0000
  H   H1106     1.0  0.27727  0.24428  0.85267  1.0000
  C   C648      1.0  0.26377  0.35440  0.85164  1.0000
  H   H1107     1.0  0.41222  0.47214  0.96514  1.0000
  H   H1108     1.0  0.43338  0.17023  0.86248  1.0000
  H   H1109     1.0  0.27862  0.34947  0.84882  1.0000
  H   H1110     1.0  0.25958  0.36287  0.82208  1.0000
  H   H1111     1.0  0.47016  0.22105  0.80965  1.0000
  C   C649      1.0  0.35910  0.38210  0.88813  1.0000
  C   C650      1.0  0.34870  0.38538  0.90549  1.0000
  C   C651      1.0  0.34750  0.40346  0.91242  1.0000
  C   C652      1.0  0.35691  0.41835  0.90224  1.0000
  C   C653      1.0  0.36740  0.41508  0.88493  1.0000
  C   C654      1.0  0.36854  0.39700  0.87793  1.0000
  H   H1112     1.0  0.34150  0.37403  0.91355  1.0000
  H   H1113     1.0  0.33916  0.40595  0.92571  1.0000
  H   H1114     1.0  0.37407  0.42666  0.87663  1.0000
  H   H1115     1.0  0.37645  0.39464  0.86439  1.0000
  C   C655      1.0  0.32445  0.33359  0.97302  1.0000
  C   C656      1.0  0.32316  0.31390  0.97489  1.0000
  C   C657      1.0  0.44968  0.20584  0.79801  1.0000
  H   H1116     1.0  0.32586  0.34113  0.95899  1.0000
  H   H1117     1.0  0.38844  0.40043  0.93595  1.0000
  N   N48       1.0  0.41954  0.08800  0.68573  1.0000
  H   H1118     1.0  0.47412  0.22482  0.84197  1.0000
  H   H1119     1.0  0.48768  0.08672  0.85169  1.0000
  C   C658      1.0  0.37456  0.22065  0.84848  1.0000
  C   C659      1.0  0.38063  0.23618  0.85658  1.0000
  C   C660      1.0  0.36757  0.25131  0.86267  1.0000
  C   C661      1.0  0.34815  0.25129  0.86058  1.0000
  C   C662      1.0  0.34208  0.23578  0.85246  1.0000
  C   C663      1.0  0.35512  0.22055  0.84655  1.0000
  H   H1120     1.0  0.39557  0.23652  0.85818  1.0000
  H   H1121     1.0  0.37254  0.26308  0.86882  1.0000
  H   H1122     1.0  0.32715  0.23552  0.85070  1.0000
  H   H1123     1.0  0.35015  0.20881  0.84035  1.0000
  C   C664      1.0  0.47698  0.14233  0.82734  1.0000
  H   H1124     1.0  0.30067  0.31096  0.83705  1.0000
  C   C665      1.0  0.32392  0.34354  0.98937  1.0000
  H   H1125     1.0  0.46805  0.15702  0.80123  1.0000
  H   H1126     1.0  0.45030  0.06561  0.66264  1.0000
  C   C666      1.0  0.37197  0.08570  0.86428  1.0000
  C   C667      1.0  0.36355  0.07697  0.88121  1.0000
  C   C668      1.0  0.36463  0.05705  0.88462  1.0000
  C   C669      1.0  0.37417  0.04550  0.87114  1.0000
  C   C670      1.0  0.38253  0.05414  0.85405  1.0000
  C   C671      1.0  0.38153  0.07423  0.85065  1.0000
  H   H1127     1.0  0.35606  0.08570  0.89177  1.0000
  H   H1128     1.0  0.35771  0.05056  0.89759  1.0000
  H   H1129     1.0  0.38943  0.04530  0.84331  1.0000
  H   H1130     1.0  0.38788  0.08081  0.83745  1.0000
  Fe  Fe105     1.0  0.44013  0.00248  0.88720  1.0000
  C   C672      1.0  0.30556  0.10524  0.74431  1.0000
  C   C673      1.0  0.36220  0.10161  0.73407  1.0000
  C   C674      1.0  0.36756  0.11885  0.72468  1.0000
  C   C675      1.0  0.37540  0.13202  0.73470  1.0000
  C   C676      1.0  0.37798  0.12820  0.75423  1.0000
  C   C677      1.0  0.37252  0.11100  0.76361  1.0000
  C   C678      1.0  0.36471  0.09782  0.75358  1.0000
  H   H1131     1.0  0.36549  0.12213  0.70977  1.0000
  H   H1132     1.0  0.37949  0.14530  0.72731  1.0000
  H   H1133     1.0  0.37437  0.10783  0.77860  1.0000
  H   H1134     1.0  0.36059  0.08457  0.76105  1.0000
  Fe  Fe106     1.0  0.31484  0.09481  0.66248  1.0000
  C   C679      1.0  0.42855  0.09221  0.70310  1.0000
  H   H1135     1.0  0.42206  0.08979  0.73395  1.0000
  C   C680      1.0  0.46760  0.47881  0.89360  1.0000
  H   H1136     1.0  0.24856  0.31587  0.87103  1.0000
  H   H1137     1.0  0.27653  0.42233  0.88605  1.0000
  N   N49       1.0  0.43058  0.08337  0.88002  1.0000
  C   C681      1.0  0.42930  0.08678  0.85872  1.0000
  C   C682      1.0  0.43377  0.10224  0.88683  1.0000
  C   C683      1.0  0.41142  0.07770  0.88858  1.0000
  C   C684      1.0  0.44623  0.06788  0.88402  1.0000
  C   C685      1.0  0.43074  0.06879  0.84772  1.0000
  C   C686      1.0  0.45420  0.10833  0.88273  1.0000
  C   C687      1.0  0.40952  0.07062  0.90985  1.0000
  C   C688      1.0  0.45338  0.06560  0.90414  1.0000
  H   H1138     1.0  0.41579  0.09550  0.85554  1.0000
  H   H1139     1.0  0.44061  0.09544  0.85163  1.0000
  H   H1140     1.0  0.42988  0.10270  0.90232  1.0000
  H   H1141     1.0  0.42398  0.11386  0.88026  1.0000
  H   H1142     1.0  0.40042  0.08996  0.88660  1.0000
  H   H1143     1.0  0.40681  0.06608  0.88119  1.0000
  S   S208      1.0  0.46478  0.01989  0.87857  1.0000
  H   H1144     1.0  0.45891  0.06986  0.87366  1.0000
  H   H1145     1.0  0.44563  0.06225  0.84603  1.0000
  H   H1146     1.0  0.42161  0.05780  0.85454  1.0000
  H   H1147     1.0  0.42625  0.07294  0.83319  1.0000
  H   H1148     1.0  0.46364  0.10121  0.89336  1.0000
  H   H1149     1.0  0.46074  0.10545  0.86838  1.0000
  H   H1150     1.0  0.45386  0.12393  0.88372  1.0000
  H   H1151     1.0  0.41736  0.05640  0.91249  1.0000
  H   H1152     1.0  0.39430  0.06867  0.91423  1.0000
  H   H1153     1.0  0.41377  0.08087  0.91909  1.0000
  C   C689      1.0  0.25294  0.36202  0.83651  1.0000
  H   H1154     1.0  0.44697  0.07644  0.91362  1.0000
  H   H1155     1.0  0.44154  0.05387  0.88151  1.0000
  N   N50       1.0  0.45327  0.20775  0.83362  1.0000
  C   C690      1.0  0.28628  0.30577  0.83897  1.0000
  C   C691      1.0  0.46791  0.21113  0.84662  1.0000
  C   C692      1.0  0.31291  0.41697  0.87465  1.0000
  C   C693      1.0  0.41624  0.06720  0.68644  1.0000
  H   H1156     1.0  0.28285  0.06473  0.67477  1.0000
  H   H1157     1.0  0.41262  0.11159  0.72276  1.0000
  C   C694      1.0  0.27904  0.41393  0.87342  1.0000
  H   H1158     1.0  0.43808  0.21752  0.79711  1.0000
  C   C695      1.0  0.47302  0.47608  0.95813  1.0000
  H   H1159     1.0  0.26386  0.29364  0.89465  1.0000
  S   S209      1.0  0.36539  0.49208  0.91743  1.0000
  H   H1160     1.0  0.27788  0.42468  0.86094  1.0000
  C   C696      1.0  0.29952  0.09065  0.73182  1.0000
  H   H1161     1.0  0.43088  0.22361  0.85018  1.0000
  H   H1162     1.0  0.38999  0.09729  0.69474  1.0000
  C   C697      1.0  0.48474  0.48682  0.88727  1.0000
  H   H1163     1.0  0.43935  0.08036  0.70718  1.0000
  C   C698      1.0  0.32198  0.38343  0.85016  1.0000
  H   H1164     1.0  0.42511  0.22012  0.82725  1.0000
  H   H1165     1.0  0.45524  0.17680  0.83429  1.0000
  C   C699      1.0  0.31309  0.12688  0.71546  1.0000
  Fe  Fe107     1.0  0.41748  0.46914  0.91302  1.0000
  H   H1166     1.0  0.24829  0.31044  0.84715  1.0000
  C   C700      1.0  0.25532  0.35319  0.87036  1.0000
  H   H1167     1.0  0.43663  0.10748  0.66737  1.0000
  H   H1168     1.0  0.45228  0.24875  0.83657  1.0000
  H   H1169     1.0  0.40469  0.00668  0.95621  1.0000
  H   H1170     1.0  0.46621  0.02082  0.96947  1.0000
  N   N51       1.0  0.29851  0.40315  0.87260  1.0000
  H   H1171     1.0  0.32022  0.09976  0.74780  1.0000
  C   C701      1.0  0.46756  0.46307  0.90717  1.0000
  H   H1172     1.0  0.32414  0.42415  0.84491  1.0000
  H   H1173     1.0  0.40656  0.42114  0.88396  1.0000
  H   H1174     1.0  0.28647  0.29439  0.82931  1.0000
  C   C702      1.0  0.29457  0.39354  0.90874  1.0000
  H   H1175     1.0  0.29948  0.40494  0.84160  1.0000
  H   H1176     1.0  0.29096  0.37582  0.88640  1.0000
  C   C703      1.0  0.43297  0.09247  0.66829  1.0000
  H   H1177     1.0  0.40988  0.12693  0.69114  1.0000
  H   H1178     1.0  0.45856  0.00633  0.91808  1.0000
  H   H1179     1.0  0.42832  0.44366  0.86970  1.0000
  H   H1180     1.0  0.46811  0.41454  0.90475  1.0000
  H   H1181     1.0  0.26850  0.04547  0.68393  1.0000
  H   H1182     1.0  0.29650  0.10397  0.75805  1.0000
  H   H1183     1.0  0.48165  0.18137  0.84600  1.0000
  S   S210      1.0  0.44637  0.45271  0.91571  1.0000
  C   C704      1.0  0.42029  0.42060  0.89042  1.0000
  N   N52       1.0  0.26398  0.28880  0.86496  1.0000
  C   C705      1.0  0.26207  0.40182  0.87369  1.0000
  H   H1184     1.0  0.31242  0.02013  0.67799  1.0000
  C   C706      1.0  0.42709  0.47528  0.98953  1.0000
  H   H1185     1.0  0.38730  0.43517  0.97677  1.0000
  H   H1186     1.0  0.29925  0.15506  0.70565  1.0000
  N   N53       1.0  0.30517  0.12579  0.73606  1.0000
  H   H1187     1.0  0.45066  0.05131  0.91131  1.0000
  H   H1188     1.0  0.27561  0.12585  0.71265  1.0000
  C   C707      1.0  0.28543  0.13580  0.73878  1.0000
  H   H1189     1.0  0.31714  0.15133  0.74248  1.0000
  C   C708      1.0  0.40226  0.12171  0.68006  1.0000
  H   H1190     1.0  0.42979  0.05798  0.68751  1.0000
  C   C709      1.0  0.45522  0.01494  0.98002  1.0000
  H   H1191     1.0  0.48486  0.44316  0.92472  1.0000
  C   C710      1.0  0.47314  0.00971  0.91512  1.0000
  H   H1192     1.0  0.35904  0.28027  0.97937  1.0000
  H   H1193     1.0  0.27959  0.13352  0.75389  1.0000
  S   S211      1.0  0.33826  0.11041  0.67167  1.0000
  H   H1194     1.0  0.46335  0.40175  0.88566  1.0000
  H   H1195     1.0  0.29293  0.26159  0.85566  1.0000
  H   H1196     1.0  0.25969  0.14249  0.72414  1.0000
  C   C711      1.0  0.48473  0.45545  0.91435  1.0000
  H   H1197     1.0  0.30025  0.13921  0.77387  1.0000
  N   N54       1.0  0.42563  0.40068  0.89912  1.0000
  C   C712      1.0  0.40854  0.39416  0.91166  1.0000
  C   C713      1.0  0.42963  0.38725  0.88365  1.0000
  H   H1198     1.0  0.29894  0.07665  0.74037  1.0000
  H   H1199     1.0  0.43648  0.10513  0.69976  1.0000
  C   C714      1.0  0.39950  0.40767  0.92653  1.0000
  C   C715      1.0  0.43464  0.36614  0.89051  1.0000
  H   H1200     1.0  0.31772  0.11858  0.77464  1.0000
  H   H1201     1.0  0.25092  0.26402  0.85898  1.0000
  H   H1202     1.0  0.39699  0.39162  0.90292  1.0000
  H   H1203     1.0  0.41216  0.38023  0.91980  1.0000
  H   H1204     1.0  0.43731  0.42108  0.86232  1.0000
  H   H1205     1.0  0.41708  0.38789  0.87519  1.0000
  H   H1206     1.0  0.40998  0.41167  0.93567  1.0000
  H   H1207     1.0  0.45956  0.07901  0.67979  1.0000
  H   H1208     1.0  0.47041  0.46244  0.95277  1.0000
  H   H1209     1.0  0.44240  0.38740  0.92164  1.0000
  H   H1210     1.0  0.32379  0.15540  0.71099  1.0000
  H   H1211     1.0  0.44131  0.39133  0.87302  1.0000
  C   C716      1.0  0.31813  0.13573  0.74674  1.0000
  H   H1212     1.0  0.44657  0.36429  0.89970  1.0000
  H   H1213     1.0  0.42210  0.35955  0.89801  1.0000
  H   H1214     1.0  0.43915  0.35803  0.87793  1.0000
  Fe  Fe108     1.0  0.38645  0.48814  0.93919  1.0000
  C   C717      1.0  0.47970  0.01722  0.89694  1.0000
  H   H1215     1.0  0.46905  0.06618  0.90298  1.0000
  C   C718      1.0  0.48517  0.19596  0.84759  1.0000
  H   H1216     1.0  0.28564  0.15158  0.73643  1.0000
  H   H1217     1.0  0.28540  0.09456  0.72660  1.0000
  H   H1218     1.0  0.48866  0.47623  0.95788  1.0000
  C   C719      1.0  0.49194  0.13882  0.83920  1.0000
  C   C720      1.0  0.43706  0.22319  0.83516  1.0000
  H   H1219     1.0  0.32787  0.11990  0.71421  1.0000
  C   C721      1.0  0.41505  0.09606  0.72114  1.0000
  H   H1220     1.0  0.47425  0.19607  0.81264  1.0000
  C   C722      1.0  0.47939  0.15432  0.81056  1.0000
  H   H1221     1.0  0.40919  0.05873  0.71685  1.0000
  H   H1222     1.0  0.33354  0.38987  0.85586  1.0000
  C   C723      1.0  0.46216  0.40147  0.90130  1.0000
  H   H1223     1.0  0.40055  0.04441  0.70094  1.0000
  H   H1224     1.0  0.27557  0.26257  0.90776  1.0000
  C   C724      1.0  0.40281  0.05932  0.70312  1.0000
  H   H1225     1.0  0.44940  0.49001  0.94335  1.0000
  H   H1226     1.0  0.29635  0.38084  0.91914  1.0000
  H   H1227     1.0  0.28178  0.31105  0.86855  1.0000
  S   S212      1.0  0.42322  0.99490  0.86457  1.0000
  S   S213      1.0  0.39888  0.47171  0.88863  1.0000
  C   C725      1.0  0.26848  0.05973  0.67593  1.0000
  C   C726      1.0  0.40826  0.99915  0.96961  1.0000
  C   C727      1.0  0.43454  0.42930  0.87495  1.0000
  H   H1228     1.0  0.32588  0.38368  0.83458  1.0000
  H   H1229     1.0  0.25911  0.06980  0.68457  1.0000
  H   H1230     1.0  0.40123  0.09001  0.72207  1.0000
  C   C728      1.0  0.48563  0.00612  0.92943  1.0000
  H   H1231     1.0  0.24559  0.12636  0.66619  1.0000
  C   C729      1.0  0.27717  0.26510  0.89198  1.0000
  C   C730      1.0  0.26266  0.28169  0.88579  1.0000
  H   H1232     1.0  0.33325  0.13053  0.74320  1.0000
  C   C731      1.0  0.28201  0.29857  0.86009  1.0000
  H   H1233     1.0  0.26143  0.39075  0.88588  1.0000
  C   C732      1.0  0.43937  0.18424  0.86043  1.0000
  H   H1234     1.0  0.30397  0.44006  0.85312  1.0000
  H   H1235     1.0  0.41797  0.43083  0.90155  1.0000
  H   H1236     1.0  0.42813  0.19487  0.86592  1.0000
  H   H1237     1.0  0.46143  0.21320  0.86132  1.0000
  H   H1238     1.0  0.28478  0.26004  0.83287  1.0000
  H   H1239     1.0  0.29213  0.26803  0.88807  1.0000
  C   C733      1.0  0.41269  0.48014  0.97726  1.0000
  C   C734      1.0  0.31355  0.14713  0.70523  1.0000
  H   H1240     1.0  0.29469  0.28947  0.86431  1.0000
  H   H1241     1.0  0.45823  0.20636  0.78399  1.0000
  C   C735      1.0  0.29986  0.38740  0.88845  1.0000
  H   H1242     1.0  0.41064  0.06419  0.67297  1.0000
  C   C736      1.0  0.40103  0.09997  0.68289  1.0000
  H   H1243     1.0  0.43237  0.18787  0.83154  1.0000
  C   C737      1.0  0.28042  0.25924  0.84840  1.0000
  C   C738      1.0  0.31700  0.43132  0.85727  1.0000
  H   H1244     1.0  0.48072  0.99974  0.94330  1.0000
  C   C739      1.0  0.44524  0.18881  0.83906  1.0000
  H   H1245     1.0  0.44676  0.24505  0.81277  1.0000
  H   H1246     1.0  0.29185  0.38368  0.85308  1.0000
  H   H1247     1.0  0.30527  0.11879  0.70666  1.0000
  H   H1248     1.0  0.45167  0.18289  0.86911  1.0000
  H   H1249     1.0  0.31846  0.14599  0.68997  1.0000
  H   H1250     1.0  0.32200  0.36840  0.85635  1.0000
  C   C740      1.0  0.31476  0.13357  0.76868  1.0000
  H   H1251     1.0  0.47172  0.38913  0.90666  1.0000
  C   C741      1.0  0.30219  0.39433  0.85394  1.0000
  H   H1252     1.0  0.32490  0.14192  0.77459  1.0000
  H   H1253     1.0  0.32694  0.44126  0.86101  1.0000
  C   C742      1.0  0.44186  0.40041  0.91142  1.0000
  H   H1254     1.0  0.44796  0.43173  0.88067  1.0000
  H   H1255     1.0  0.31461  0.38032  0.88823  1.0000
  H   H1256     1.0  0.27622  0.31800  0.83447  1.0000
  H   H1257     1.0  0.39208  0.42066  0.91960  1.0000
  H   H1258     1.0  0.43933  0.41238  0.92071  1.0000
  H   H1259     1.0  0.30403  0.40394  0.91234  1.0000
  C   C743      1.0  0.26235  0.27299  0.85258  1.0000
  H   H1260     1.0  0.27950  0.39935  0.91089  1.0000
  H   H1261     1.0  0.31024  0.08830  0.71961  1.0000
  C   C744      1.0  0.45213  0.08005  0.66664  1.0000
  H   H1262     1.0  0.26203  0.39515  0.86019  1.0000
  C   C745      1.0  0.31746  0.00712  0.67156  1.0000
  H   H1263     1.0  0.25769  0.27908  0.83850  1.0000
  H   H1264     1.0  0.26243  0.11833  0.73479  1.0000
  H   H1265     1.0  0.27444  0.25163  0.88642  1.0000
  H   H1266     1.0  0.44256  0.02553  0.97995  1.0000
  H   H1267     1.0  0.46652  0.47569  0.97296  1.0000
  H   H1268     1.0  0.38214  0.28144  0.98655  1.0000
  C   C746      1.0  0.40556  0.00858  0.98641  1.0000
  H   H1269     1.0  0.39484  0.09602  0.67015  1.0000
  H   H1270     1.0  0.27838  0.02404  0.66340  1.0000
  H   H1271     1.0  0.45078  0.00171  0.97532  1.0000
  H   H1272     1.0  0.39993  0.02339  0.98580  1.0000
  C   C747      1.0  0.36682  0.28370  0.99129  1.0000
  C   C748      1.0  0.24766  0.30397  0.86211  1.0000
  H   H1273     1.0  0.38763  0.12901  0.68082  1.0000
  H   H1274     1.0  0.49010  0.12973  0.85230  1.0000
  Fe  Fe109     1.0  0.34048  0.05732  0.66074  1.0000
  S   S214      1.0  0.28377  0.10813  0.66309  1.0000
  H   H1275     1.0  0.37662  0.45741  0.98400  1.0000
  C   C749      1.0  0.46436  0.49271  0.94496  1.0000
  H   H1276     1.0  0.24862  0.41127  0.87516  1.0000
  H   H1277     1.0  0.47213  0.49111  0.93080  1.0000
  H   H1278     1.0  0.24591  0.05623  0.65922  1.0000
  H   H1279     1.0  0.32473  0.35881  0.98777  1.0000
  C   C750      1.0  0.37910  0.44203  0.98885  1.0000
  H   H1280     1.0  0.36537  0.43571  0.99142  1.0000
  H   H1281     1.0  0.24862  0.27635  0.89043  1.0000
  H   H1282     1.0  0.38836  0.51662  0.99981  1.0000
  Fe  Fe110     1.0  0.33929  0.89001  0.29928  1.0000
  S   S215      1.0  0.35385  0.88961  0.26890  1.0000
  Fe  Fe111     1.0  0.38964  0.82593  0.18194  1.0000
  S   S216      1.0  0.37875  0.82121  0.15393  1.0000
  S   S217      1.0  0.36898  0.82630  0.20903  1.0000
  Fe  Fe112     1.0  0.43148  0.82362  0.16500  1.0000
  S   S218      1.0  0.42328  0.81797  0.13640  1.0000
  S   S219      1.0  0.46106  0.83323  0.16733  1.0000
  Fe  Fe113     1.0  0.39995  0.84154  0.14066  1.0000
  S   S220      1.0  0.39741  0.86252  0.11422  1.0000
  Fe  Fe114     1.0  0.40271  0.79793  0.15154  1.0000
  S   S221      1.0  0.40130  0.76767  0.14199  1.0000
  S   S222      1.0  0.40873  0.84806  0.16868  1.0000
  S   S223      1.0  0.41289  0.80172  0.18023  1.0000
  Fe  Fe115     1.0  0.40809  0.97255  0.08969  1.0000
  S   S224      1.0  0.42317  0.96777  0.06090  1.0000
  S   S225      1.0  0.38847  0.95325  0.10793  1.0000
  C   C751      1.0  0.45020  0.87662  0.10199  1.0000
  H   H1283     1.0  0.32328  0.98203  0.07644  1.0000
  H   H1284     1.0  0.36716  0.95964  0.02849  1.0000
  H   H1285     1.0  0.37911  0.94110  0.05506  1.0000
  H   H1286     1.0  0.43835  0.87479  0.16785  1.0000
  Fe  Fe116     1.0  0.33950  0.68853  0.09872  1.0000
  S   S226      1.0  0.31970  0.68863  0.07530  1.0000
  S   S227      1.0  0.34135  0.71732  0.11146  1.0000
  Fe  Fe117     1.0  0.34915  0.64492  0.09854  1.0000
  S   S228      1.0  0.33079  0.64264  0.07521  1.0000
  S   S229      1.0  0.36255  0.61723  0.11292  1.0000
  Fe  Fe118     1.0  0.34273  0.66915  0.06119  1.0000
  S   S230      1.0  0.35469  0.67033  0.02996  1.0000
  Fe  Fe119     1.0  0.30902  0.66190  0.09124  1.0000
  S   S231      1.0  0.27914  0.65173  0.09218  1.0000
  S   S232      1.0  0.36312  0.67026  0.08361  1.0000
  S   S233      1.0  0.32690  0.66304  0.11548  1.0000
  Fe  Fe120     1.0  0.44818  0.97803  0.07265  1.0000
  C   C752      1.0  0.48788  0.98482  0.09297  1.0000
  H   H1287     1.0  0.29555  0.67258  0.99825  1.0000
  Fe  Fe121     1.0  0.40807  0.51843  0.07220  1.0000
  S   S234      1.0  0.39598  0.54881  0.06380  1.0000
  S   S235      1.0  0.43913  0.51104  0.06360  1.0000
  H   H1288     1.0  0.30882  0.61537  0.15977  1.0000
  Fe  Fe122     1.0  0.32086  0.92006  0.32528  1.0000
  H   H1289     1.0  0.39249  0.88526  0.27988  1.0000
  H   H1290     1.0  0.44275  0.93295  0.09982  1.0000
  H   H1291     1.0  0.32904  0.94707  0.28879  1.0000
  C   C753      1.0  0.26339  0.64442  0.11205  1.0000
  C   C754      1.0  0.26348  0.65134  0.12984  1.0000
  H   H1292     1.0  0.29039  0.91603  0.26796  1.0000
  H   H1293     1.0  0.27360  0.66125  0.13188  1.0000
  C   C755      1.0  0.34106  0.67081  0.01029  1.0000
  C   C756      1.0  0.32119  0.67183  0.01245  1.0000
  C   C757      1.0  0.27792  0.59478  0.15271  1.0000
  H   H1294     1.0  0.31374  0.67281  0.02645  1.0000
  C   C758      1.0  0.34315  0.61290  0.02424  1.0000
  C   C759      1.0  0.37106  0.59805  0.09916  1.0000
  C   C760      1.0  0.37591  0.57993  0.10836  1.0000
  C   C761      1.0  0.38291  0.56445  0.09778  1.0000
  C   C762      1.0  0.38551  0.56711  0.07790  1.0000
  C   C763      1.0  0.38034  0.58515  0.06874  1.0000
  C   C764      1.0  0.37305  0.60051  0.07928  1.0000
  H   H1295     1.0  0.37427  0.57789  0.12374  1.0000
  H   H1296     1.0  0.38656  0.55058  0.10499  1.0000
  H   H1297     1.0  0.38227  0.58734  0.05337  1.0000
  H   H1298     1.0  0.36936  0.61438  0.07203  1.0000
  C   C765      1.0  0.41720  0.97982  0.00457  1.0000
  H   H1299     1.0  0.42065  0.97223  0.01796  1.0000
  H   H1300     1.0  0.46785  0.99089  0.03264  1.0000
  H   H1301     1.0  0.32832  0.76331  0.21418  1.0000
  H   H1302     1.0  0.34682  0.94963  0.23680  1.0000
  C   C766      1.0  0.38451  0.75416  0.13297  1.0000
  C   C767      1.0  0.36607  0.76178  0.12940  1.0000
  C   C768      1.0  0.35321  0.75032  0.12288  1.0000
  C   C769      1.0  0.35856  0.73113  0.11939  1.0000
  C   C770      1.0  0.37707  0.72358  0.12276  1.0000
  C   C771      1.0  0.38984  0.73496  0.12957  1.0000
  H   H1303     1.0  0.36173  0.77654  0.13157  1.0000
  H   H1304     1.0  0.33902  0.75645  0.12027  1.0000
  H   H1305     1.0  0.38153  0.70891  0.12024  1.0000
  H   H1306     1.0  0.40403  0.72880  0.13217  1.0000
  C   C772      1.0  0.39548  0.88773  0.11317  1.0000
  C   C773      1.0  0.38955  0.89762  0.12917  1.0000
  C   C774      1.0  0.38771  0.91773  0.12746  1.0000
  C   C775      1.0  0.39255  0.92808  0.10997  1.0000
  C   C776      1.0  0.39907  0.91816  0.09413  1.0000
  C   C777      1.0  0.40003  0.89812  0.09563  1.0000
  H   H1307     1.0  0.38586  0.88980  0.14271  1.0000
  H   H1308     1.0  0.38245  0.92530  0.13973  1.0000
  H   H1309     1.0  0.40271  0.92594  0.08057  1.0000
  H   H1310     1.0  0.40444  0.89058  0.08315  1.0000
  C   C778      1.0  0.47347  0.97874  0.99720  1.0000
  H   H1311     1.0  0.37230  0.86064  0.29493  1.0000
  C   C779      1.0  0.35810  0.87153  0.25277  1.0000
  C   C780      1.0  0.34911  0.85464  0.25561  1.0000
  C   C781      1.0  0.35270  0.84094  0.24217  1.0000
  C   C782      1.0  0.36532  0.84389  0.22573  1.0000
  C   C783      1.0  0.37443  0.86072  0.22299  1.0000
  C   C784      1.0  0.37077  0.87445  0.23639  1.0000
  H   H1312     1.0  0.33921  0.85222  0.26804  1.0000
  H   H1313     1.0  0.34551  0.82803  0.24444  1.0000
  H   H1314     1.0  0.38414  0.86325  0.21044  1.0000
  H   H1315     1.0  0.37778  0.88747  0.23396  1.0000
  C   C785      1.0  0.44587  0.88355  0.15617  1.0000
  H   H1316     1.0  0.40943  0.87669  0.31860  1.0000
  C   C786      1.0  0.33460  0.79117  0.18634  1.0000
  C   C787      1.0  0.36828  0.97466  0.03124  1.0000
  C   C788      1.0  0.48632  0.55563  0.10603  1.0000
  C   C789      1.0  0.48595  0.49601  0.09859  1.0000
  N   N55       1.0  0.34713  0.77282  0.18996  1.0000
  C   C790      1.0  0.34349  0.76625  0.21078  1.0000
  C   C791      1.0  0.34102  0.75828  0.17815  1.0000
  C   C792      1.0  0.36756  0.77670  0.18434  1.0000
  C   C793      1.0  0.33330  0.79881  0.16529  1.0000
  C   C794      1.0  0.34777  0.78035  0.22476  1.0000
  C   C795      1.0  0.35228  0.73851  0.17913  1.0000
  C   C796      1.0  0.38315  0.76291  0.19357  1.0000
  H   H1317     1.0  0.33958  0.80292  0.19340  1.0000
  H   H1318     1.0  0.35160  0.75249  0.21468  1.0000
  H   H1319     1.0  0.34227  0.76330  0.16279  1.0000
  H   H1320     1.0  0.37064  0.77707  0.16864  1.0000
  H   H1321     1.0  0.36999  0.79115  0.18800  1.0000
  H   H1322     1.0  0.32755  0.81404  0.16451  1.0000
  H   H1323     1.0  0.33713  0.79297  0.22484  1.0000
  H   H1324     1.0  0.34698  0.77320  0.23945  1.0000
  H   H1325     1.0  0.42696  0.54283  0.13684  1.0000
  H   H1326     1.0  0.34568  0.72921  0.17038  1.0000
  H   H1327     1.0  0.35202  0.73133  0.19373  1.0000
  H   H1328     1.0  0.39543  0.76055  0.18281  1.0000
  H   H1329     1.0  0.37901  0.74863  0.19895  1.0000
  H   H1330     1.0  0.38891  0.76956  0.20507  1.0000
  C   C797      1.0  0.39867  0.87376  0.30918  1.0000
  C   C798      1.0  0.47423  0.88646  0.12142  1.0000
  H   H1331     1.0  0.37869  0.97094  0.06766  1.0000
  C   C799      1.0  0.48374  0.96018  0.00600  1.0000
  H   H1332     1.0  0.33853  0.92765  0.27609  1.0000
  C   C800      1.0  0.32054  0.97165  0.25662  1.0000
  H   H1333     1.0  0.36625  0.93773  0.07797  1.0000
  H   H1334     1.0  0.35526  0.96672  0.27165  1.0000
  H   H1335     1.0  0.25312  0.80244  0.32280  1.0000
  C   C801      1.0  0.44901  0.53927  0.11304  1.0000
  H   H1336     1.0  0.43018  0.85108  0.30689  1.0000
  C   C802      1.0  0.32299  0.97198  0.06553  1.0000
  H   H1337     1.0  0.47232  0.55057  0.08163  1.0000
  H   H1338     1.0  0.33382  0.97798  0.25054  1.0000
  H   H1339     1.0  0.45294  0.58717  0.11123  1.0000
  C   C803      1.0  0.48686  0.51041  0.08363  1.0000
  H   H1340     1.0  0.45303  0.56903  0.13045  1.0000
  H   H1341     1.0  0.30405  0.91921  0.24552  1.0000
  H   H1342     1.0  0.29988  0.94350  0.27964  1.0000
  H   H1343     1.0  0.32623  0.96179  0.21489  1.0000
  H   H1344     1.0  0.38774  0.81840  0.29448  1.0000
  H   H1345     1.0  0.45064  0.85002  0.08893  1.0000
  C   C804      1.0  0.48361  0.82240  0.17351  1.0000
  H   H1346     1.0  0.41717  0.88493  0.28453  1.0000
  C   C805      1.0  0.36419  0.96724  0.06559  1.0000
  C   C806      1.0  0.34911  0.98717  0.31802  1.0000
  H   H1347     1.0  0.41797  0.53679  0.11515  1.0000
  C   C807      1.0  0.32171  0.94849  0.22298  1.0000
  H   H1348     1.0  0.34709  0.95726  0.31537  1.0000
  C   C808      1.0  0.43003  0.53469  0.12413  1.0000
  H   H1349     1.0  0.46480  0.91891  0.09548  1.0000
  H   H1350     1.0  0.30801  0.97246  0.06205  1.0000
  H   H1351     1.0  0.48123  0.89320  0.10806  1.0000
  S   S236      1.0  0.43383  0.98024  0.10201  1.0000
  H   H1352     1.0  0.36217  0.78526  0.22159  1.0000
  H   H1353     1.0  0.36513  0.94538  0.26048  1.0000
  H   H1354     1.0  0.36108  0.62615  0.00212  1.0000
  C   C809      1.0  0.35599  0.95094  0.27268  1.0000
  H   H1355     1.0  0.46099  0.88221  0.15920  1.0000
  H   H1356     1.0  0.45257  0.52845  0.10257  1.0000
  C   C810      1.0  0.30386  0.92112  0.26088  1.0000
  H   H1357     1.0  0.44785  0.86042  0.13866  1.0000
  H   H1358     1.0  0.41457  0.50896  0.02063  1.0000
  N   N56       1.0  0.32358  0.95019  0.25900  1.0000
  H   H1359     1.0  0.24987  0.65174  0.15847  1.0000
  H   H1360     1.0  0.33725  0.92771  0.24202  1.0000
  H   H1361     1.0  0.27646  0.61043  0.14946  1.0000
  N   N57       1.0  0.39936  0.85271  0.30683  1.0000
  H   H1362     1.0  0.48444  0.56387  0.11870  1.0000
  C   C811      1.0  0.33574  0.97687  0.04707  1.0000
  H   H1363     1.0  0.27653  0.59240  0.16850  1.0000
  H   H1364     1.0  0.47144  0.57482  0.08628  1.0000
  C   C812      1.0  0.43659  0.58088  0.07512  1.0000
  H   H1365     1.0  0.42152  0.56063  0.09357  1.0000
  H   H1366     1.0  0.31574  0.91182  0.26680  1.0000
  C   C813      1.0  0.33614  0.94344  0.27473  1.0000
  C   C814      1.0  0.25003  0.63163  0.10967  1.0000
  H   H1367     1.0  0.43581  0.88138  0.09746  1.0000
  H   H1368     1.0  0.43951  0.89843  0.15696  1.0000
  H   H1369     1.0  0.48027  0.94801  0.99861  1.0000
  C   C815      1.0  0.37670  0.83055  0.29470  1.0000
  C   C816      1.0  0.24998  0.64593  0.14489  1.0000
  H   H1370     1.0  0.43559  0.59337  0.08354  1.0000
  H   H1371     1.0  0.36839  0.82990  0.28235  1.0000
  C   C817      1.0  0.31331  0.98133  0.27486  1.0000
  C   C818      1.0  0.44438  0.90619  0.11781  1.0000
  H   H1372     1.0  0.34815  0.98738  0.01044  1.0000
  C   C819      1.0  0.41914  0.84619  0.29883  1.0000
  H   H1373     1.0  0.41680  0.81561  0.30881  1.0000
  S   S237      1.0  0.34023  0.86716  0.32367  1.0000
  H   H1374     1.0  0.32459  0.98051  0.28470  1.0000
  C   C820      1.0  0.43636  0.56183  0.08773  1.0000
  C   C821      1.0  0.30458  0.94224  0.26428  1.0000
  H   H1375     1.0  0.44830  0.91437  0.12923  1.0000
  H   H1376     1.0  0.46433  0.84751  0.10896  1.0000
  H   H1377     1.0  0.42780  0.87650  0.13558  1.0000
  H   H1378     1.0  0.49167  0.52347  0.02112  1.0000
  H   H1379     1.0  0.44942  0.58101  0.06483  1.0000
  H   H1380     1.0  0.47832  0.85665  0.13483  1.0000
  C   C822      1.0  0.40223  0.88697  0.29074  1.0000
  C   C823      1.0  0.49302  0.49393  0.03296  1.0000
  H   H1381     1.0  0.47507  0.79415  0.18118  1.0000
  H   H1382     1.0  0.35429  0.60148  0.02817  1.0000
  H   H1383     1.0  0.42862  0.90657  0.11977  1.0000
  H   H1384     1.0  0.42360  0.58373  0.13812  1.0000
  H   H1385     1.0  0.47412  0.51620  0.07726  1.0000
  H   H1386     1.0  0.42412  0.58258  0.06656  1.0000
  C   C824      1.0  0.33305  0.94337  0.24061  1.0000
  H   H1387     1.0  0.32429  0.93670  0.21352  1.0000
  C   C825      1.0  0.36573  0.94558  0.06364  1.0000
  N   N58       1.0  0.35624  0.97969  0.04917  1.0000
  H   H1388     1.0  0.43125  0.51935  0.12951  1.0000
  S   S238      1.0  0.47765  0.96428  0.06557  1.0000
  H   H1389     1.0  0.45965  0.53620  0.12368  1.0000
  N   N59       1.0  0.45332  0.88583  0.11964  1.0000
  S   S239      1.0  0.30869  0.90027  0.30757  1.0000
  H   H1390     1.0  0.39966  0.90203  0.29425  1.0000
  H   H1391     1.0  0.32230  0.59231  0.00360  1.0000
  C   C826      1.0  0.44619  0.57404  0.11714  1.0000
  C   C827      1.0  0.34669  0.62100  0.00340  1.0000
  H   H1392     1.0  0.34401  0.62449  0.03356  1.0000
  C   C828      1.0  0.46972  0.56024  0.09328  1.0000
  H   H1393     1.0  0.32571  0.75614  0.18194  1.0000
  C   C829      1.0  0.38492  0.85008  0.29317  1.0000
  H   H1394     1.0  0.32150  0.63324  0.14620  1.0000
  H   H1395     1.0  0.33231  0.60941  0.14804  1.0000
  C   C830      1.0  0.45124  0.85466  0.10336  1.0000
  H   H1396     1.0  0.26582  0.58896  0.14712  1.0000
  H   H1397     1.0  0.43912  0.82084  0.29767  1.0000
  C   C831      1.0  0.32019  0.97112  0.32530  1.0000
  H   H1398     1.0  0.35352  0.94111  0.05715  1.0000
  H   H1399     1.0  0.29309  0.95062  0.25662  1.0000
  N   N60       1.0  0.30595  0.59453  0.12643  1.0000
  C   C832      1.0  0.32486  0.58384  0.12100  1.0000
  C   C833      1.0  0.30944  0.61488  0.12856  1.0000
  C   C834      1.0  0.29241  0.59440  0.11137  1.0000
  C   C835      1.0  0.29718  0.58506  0.14471  1.0000
  C   C836      1.0  0.32433  0.56304  0.11646  1.0000
  C   C837      1.0  0.31853  0.61810  0.14676  1.0000
  C   C838      1.0  0.29982  0.60162  0.09105  1.0000
  H   H1400     1.0  0.43869  0.84943  0.11214  1.0000
  H   H1401     1.0  0.33241  0.59142  0.10843  1.0000
  H   H1402     1.0  0.33450  0.58339  0.13253  1.0000
  H   H1403     1.0  0.29618  0.62460  0.12797  1.0000
  H   H1404     1.0  0.31896  0.62056  0.11633  1.0000
  H   H1405     1.0  0.28780  0.57991  0.11087  1.0000
  H   H1406     1.0  0.27906  0.60344  0.11497  1.0000
  H   H1407     1.0  0.29428  0.57026  0.14274  1.0000
  H   H1408     1.0  0.30721  0.58303  0.15602  1.0000
  H   H1409     1.0  0.31559  0.56188  0.10459  1.0000
  H   H1410     1.0  0.33903  0.55725  0.11186  1.0000
  H   H1411     1.0  0.31943  0.55378  0.12916  1.0000
  N   N61       1.0  0.44990  0.55907  0.10310  1.0000
  H   H1412     1.0  0.41957  0.82082  0.28321  1.0000
  H   H1413     1.0  0.46041  0.88119  0.08984  1.0000
  H   H1414     1.0  0.31204  0.59227  0.08521  1.0000
  H   H1415     1.0  0.30380  0.61637  0.09047  1.0000
  H   H1416     1.0  0.28828  0.60192  0.08150  1.0000
  C   C839      1.0  0.36343  0.98677  0.01271  1.0000
  H   H1417     1.0  0.31975  0.78963  0.19266  1.0000
  C   C840      1.0  0.42511  0.58078  0.12291  1.0000
  H   H1418     1.0  0.36709  0.73933  0.17263  1.0000
  C   C841      1.0  0.48670  0.80311  0.17995  1.0000
  H   H1419     1.0  0.38363  0.97566  0.03283  1.0000
  C   C842      1.0  0.44932  0.91810  0.09879  1.0000
  C   C843      1.0  0.42361  0.82465  0.29700  1.0000
  H   H1420     1.0  0.31005  0.97641  0.24604  1.0000
  H   H1421     1.0  0.32682  0.95732  0.07192  1.0000
  C   C844      1.0  0.44334  0.87586  0.13704  1.0000
  S   S240      1.0  0.35121  0.91147  0.31538  1.0000
  H   H1422     1.0  0.32339  0.79100  0.15846  1.0000
  C   C845      1.0  0.35514  0.57286  0.00166  1.0000
  H   H1423     1.0  0.24999  0.62606  0.09601  1.0000
  H   H1424     1.0  0.36664  0.82874  0.30765  1.0000
  H   H1425     1.0  0.34732  0.79801  0.15691  1.0000
  H   H1426     1.0  0.44329  0.91272  0.08671  1.0000
  H   H1427     1.0  0.48858  0.54015  0.11048  1.0000
  H   H1428     1.0  0.36332  0.94568  0.28558  1.0000
  H   H1429     1.0  0.42080  0.59461  0.11494  1.0000
  H   H1430     1.0  0.39084  0.85297  0.27811  1.0000
  H   H1431     1.0  0.43929  0.55019  0.07804  1.0000
  H   H1432     1.0  0.38461  0.87894  0.31624  1.0000
  H   H1433     1.0  0.32864  0.98979  0.03951  1.0000
  H   H1434     1.0  0.42214  0.85313  0.28420  1.0000
  H   H1435     1.0  0.36828  0.56303  0.00298  1.0000
  H   H1436     1.0  0.35577  0.96965  0.07932  1.0000
  H   H1437     1.0  0.33478  0.96517  0.03788  1.0000
  H   H1438     1.0  0.41471  0.57055  0.12150  1.0000
  H   H1439     1.0  0.30615  0.95045  0.22650  1.0000
  H   H1440     1.0  0.32879  0.60791  0.02755  1.0000
  S   S241      1.0  0.40807  0.50014  0.10007  1.0000
  H   H1441     1.0  0.49192  0.93012  0.10858  1.0000
  C   C846      1.0  0.48612  0.86732  0.12562  1.0000
  H   H1442     1.0  0.47866  0.95728  0.02126  1.0000
  H   H1443     1.0  0.45804  0.97709  0.00078  1.0000
  H   H1444     1.0  0.48723  0.49838  0.04713  1.0000
  C   C847      1.0  0.39921  0.50515  0.99686  1.0000
  H   H1445     1.0  0.34907  0.57546  0.01623  1.0000
  H   H1446     1.0  0.47661  0.89600  0.13236  1.0000
  H   H1447     1.0  0.30054  0.97525  0.28240  1.0000
  C   C848      1.0  0.33956  0.97052  0.31926  1.0000
  H   H1448     1.0  0.33670  0.63396  0.00143  1.0000
  H   H1449     1.0  0.49219  0.98380  0.02813  1.0000
  H   H1450     1.0  0.30773  0.62662  0.99873  1.0000
  H   H1451     1.0  0.36409  0.98662  0.31325  1.0000
  C   C849      1.0  0.41387  0.50063  0.00879  1.0000
  H   H1452     1.0  0.37163  0.98027  0.00040  1.0000
  H   H1453     1.0  0.47309  0.98582  0.09833  1.0000
  H   H1454     1.0  0.49197  0.86114  0.11222  1.0000
  C   C850      1.0  0.31093  0.67165  0.99644  1.0000
  S   S242      1.0  0.39895  0.49530  0.05656  1.0000
  H   H1455     1.0  0.34511  0.56518  0.99484  1.0000
  H   H1456     1.0  0.37345  0.59556  0.99391  1.0000
  S   S243      1.0  0.31577  0.91243  0.63869  1.0000
  H   H1457     1.0  0.38018  0.84928  0.33243  1.0000
  Fe  Fe123     1.0  0.47619  0.89760  0.59300  1.0000
  S   S244      1.0  0.47263  0.91324  0.56411  1.0000
  S   S245      1.0  0.45517  0.88045  0.61215  1.0000
  S   S246      1.0  0.33154  0.87063  0.65815  1.0000
  N   N62       1.0  0.49015  0.96499  0.50166  1.0000
  Fe  Fe124     1.0  0.35022  0.88927  0.34015  1.0000
  H   H1458     1.0  0.37650  0.95354  0.32906  1.0000
  S   S247      1.0  0.37380  0.88109  0.35991  1.0000
  C   C851      1.0  0.39417  0.84286  0.32628  1.0000
  H   H1459     1.0  0.47486  0.85846  0.45897  1.0000
  S   S248      1.0  0.32049  0.89932  0.35153  1.0000
  H   H1460     1.0  0.39207  0.82765  0.32570  1.0000
  Fe  Fe125     1.0  0.47430  0.91321  0.38232  1.0000
  S   S249      1.0  0.45185  0.91837  0.36092  1.0000
  S   S250      1.0  0.47351  0.93320  0.40519  1.0000
  C   C852      1.0  0.44961  0.97652  0.37602  1.0000
  C   C853      1.0  0.39537  0.89171  0.36000  1.0000
  C   C854      1.0  0.40155  0.90493  0.34530  1.0000
  C   C855      1.0  0.41898  0.91274  0.34577  1.0000
  C   C856      1.0  0.43031  0.90762  0.36099  1.0000
  C   C857      1.0  0.42412  0.89441  0.37571  1.0000
  C   C858      1.0  0.40678  0.88644  0.37514  1.0000
  H   H1461     1.0  0.42007  0.93569  0.57799  1.0000
  H   H1462     1.0  0.42639  0.87207  0.64242  1.0000
  H   H1463     1.0  0.43272  0.89031  0.38749  1.0000
  H   H1464     1.0  0.40216  0.87614  0.38655  1.0000
  H   H1465     1.0  0.46270  0.96387  0.47379  1.0000
  H   H1466     1.0  0.47599  0.94493  0.46240  1.0000
  C   C859      1.0  0.32137  0.86682  0.59062  1.0000
  H   H1467     1.0  0.48989  0.99299  0.37721  1.0000
  H   H1468     1.0  0.35416  0.87396  0.57056  1.0000
  H   H1469     1.0  0.39302  0.93376  0.65033  1.0000
  C   C860      1.0  0.26493  0.85746  0.35493  1.0000
  H   H1470     1.0  0.47732  0.89520  0.52283  1.0000
  H   H1471     1.0  0.33580  0.95992  0.64912  1.0000
  H   H1472     1.0  0.44226  0.96480  0.63377  1.0000
  H   H1473     1.0  0.35980  0.90975  0.39691  1.0000
  H   H1474     1.0  0.33067  0.97633  0.38162  1.0000
  C   C861      1.0  0.33165  0.86629  0.60884  1.0000
  H   H1475     1.0  0.38093  0.94479  0.63018  1.0000
  C   C862      1.0  0.29554  0.87390  0.55824  1.0000
  C   C863      1.0  0.26124  0.86488  0.63033  1.0000
  C   C864      1.0  0.29266  0.91596  0.58202  1.0000
  C   C865      1.0  0.25752  0.85767  0.61333  1.0000
  C   C866      1.0  0.39042  0.89554  0.61842  1.0000
  C   C867      1.0  0.40120  0.90099  0.60138  1.0000
  C   C868      1.0  0.42103  0.89642  0.59924  1.0000
  C   C869      1.0  0.43023  0.88609  0.61407  1.0000
  C   C870      1.0  0.41939  0.88021  0.63094  1.0000
  C   C871      1.0  0.39958  0.88506  0.63320  1.0000
  H   H1476     1.0  0.32562  0.87577  0.55290  1.0000
  H   H1477     1.0  0.33387  0.94445  0.38153  1.0000
  H   H1478     1.0  0.45222  0.95912  0.50929  1.0000
  C   C872      1.0  0.25820  0.84103  0.36524  1.0000
  S   S251      1.0  0.46996  0.96733  0.57253  1.0000
  H   H1479     1.0  0.44981  0.95623  0.61147  1.0000
  C   C873      1.0  0.49145  0.98601  0.43687  1.0000
  H   H1480     1.0  0.43955  0.91263  0.65126  1.0000
  S   S252      1.0  0.48497  0.92280  0.60556  1.0000
  H   H1481     1.0  0.43872  0.92503  0.61807  1.0000
  H   H1482     1.0  0.30794  0.85995  0.59490  1.0000
  H   H1483     1.0  0.39420  0.90895  0.58981  1.0000
  C   C874      1.0  0.38167  0.93833  0.38726  1.0000
  C   C875      1.0  0.48525  0.90190  0.47430  1.0000
  H   H1484     1.0  0.49090  0.96037  0.42305  1.0000
  C   C876      1.0  0.42748  0.93109  0.62842  1.0000
  H   H1485     1.0  0.46576  0.94001  0.48600  1.0000
  H   H1486     1.0  0.30300  0.92673  0.58186  1.0000
  H   H1487     1.0  0.28812  0.88724  0.59330  1.0000
  H   H1488     1.0  0.33075  0.91234  0.57182  1.0000
  S   S253      1.0  0.28473  0.87130  0.63265  1.0000
  C   C877      1.0  0.34701  0.93900  0.38847  1.0000
  C   C878      1.0  0.43357  0.98371  0.61018  1.0000
  H   H1489     1.0  0.42788  0.95885  0.57570  1.0000
  C   C879      1.0  0.24637  0.86649  0.64479  1.0000
  H   H1490     1.0  0.41581  0.92166  0.62909  1.0000
  C   C880      1.0  0.39931  0.94971  0.38559  1.0000
  C   C881      1.0  0.40563  0.95953  0.63611  1.0000
  H   H1491     1.0  0.44671  0.99111  0.60987  1.0000
  C   C882      1.0  0.30025  0.89628  0.59103  1.0000
  N   N63       1.0  0.31726  0.88635  0.58038  1.0000
  C   C883      1.0  0.42612  0.94608  0.58591  1.0000
  S   S254      1.0  0.48428  0.88725  0.40108  1.0000
  H   H1492     1.0  0.46044  0.89681  0.49355  1.0000
  C   C884      1.0  0.47270  0.95105  0.47633  1.0000
  Fe  Fe126     1.0  0.48550  0.90778  0.42336  1.0000
  H   H1493     1.0  0.47941  0.98317  0.44695  1.0000
  H   H1494     1.0  0.38063  0.96898  0.34572  1.0000
  H   H1495     1.0  0.43874  0.98384  0.36696  1.0000
  C   C885      1.0  0.33383  0.89820  0.57976  1.0000
  C   C886      1.0  0.35288  0.88969  0.57013  1.0000
  H   H1496     1.0  0.25682  0.88637  0.34437  1.0000
  C   C887      1.0  0.46008  0.95224  0.52117  1.0000
  C   C888      1.0  0.43729  0.96327  0.61964  1.0000
  H   H1497     1.0  0.34455  0.94304  0.40339  1.0000
  H   H1498     1.0  0.35492  0.89554  0.55502  1.0000
  H   H1499     1.0  0.33111  0.85201  0.61682  1.0000
  C   C889      1.0  0.48199  0.95237  0.51827  1.0000
  C   C890      1.0  0.45502  0.98941  0.39059  1.0000
  Fe  Fe127     1.0  0.48388  0.93743  0.57628  1.0000
  H   H1500     1.0  0.33448  0.91239  0.39759  1.0000
  H   H1501     1.0  0.40101  0.94091  0.60465  1.0000
  C   C891      1.0  0.36173  0.96875  0.38105  1.0000
  H   H1502     1.0  0.29467  0.87212  0.54296  1.0000
  C   C892      1.0  0.34401  0.98003  0.37316  1.0000
  H   H1503     1.0  0.31216  0.89811  0.55169  1.0000
  H   H1504     1.0  0.33616  0.90190  0.59423  1.0000
  S   S255      1.0  0.47273  0.90223  0.45385  1.0000
  C   C893      1.0  0.41207  0.95117  0.60322  1.0000
  S   S256      1.0  0.28924  0.85657  0.34496  1.0000
  C   C894      1.0  0.48497  0.89787  0.50900  1.0000
  H   H1505     1.0  0.37411  0.97620  0.37452  1.0000
  H   H1506     1.0  0.30351  0.89852  0.60558  1.0000
  C   C895      1.0  0.34768  0.91705  0.38949  1.0000
  H   H1507     1.0  0.32992  0.85688  0.58119  1.0000
  H   H1508     1.0  0.48455  0.84027  0.44420  1.0000
  H   H1509     1.0  0.35109  0.94729  0.35172  1.0000
  N   N64       1.0  0.36421  0.94775  0.37827  1.0000
  C   C896      1.0  0.38022  0.95371  0.34386  1.0000
  H   H1510     1.0  0.48642  0.95642  0.53182  1.0000
  H   H1511     1.0  0.39707  0.96149  0.39506  1.0000
  H   H1512     1.0  0.40302  0.83564  0.35478  1.0000
  H   H1513     1.0  0.34806  0.91197  0.37519  1.0000
  C   C897      1.0  0.31338  0.88407  0.56027  1.0000
  H   H1514     1.0  0.36481  0.89330  0.57778  1.0000
  H   H1515     1.0  0.44032  0.93964  0.58947  1.0000
  N   N65       1.0  0.42066  0.95128  0.62183  1.0000
  H   H1516     1.0  0.34686  0.86881  0.60562  1.0000
  H   H1517     1.0  0.48807  0.93733  0.51735  1.0000
  H   H1518     1.0  0.32476  0.87688  0.61838  1.0000
  C   C898      1.0  0.38867  0.94751  0.64233  1.0000
  H   H1519     1.0  0.45444  0.95895  0.53437  1.0000
  H   H1520     1.0  0.27976  0.92114  0.59095  1.0000
  C   C899      1.0  0.47546  0.89873  0.49238  1.0000
  H   H1521     1.0  0.36103  0.97084  0.39649  1.0000
  Fe  Fe128     1.0  0.34406  0.89791  0.64626  1.0000
  H   H1522     1.0  0.40345  0.95557  0.37092  1.0000
  H   H1523     1.0  0.39452  0.94605  0.34479  1.0000
  H   H1524     1.0  0.28225  0.88234  0.56317  1.0000
  H   H1525     1.0  0.41165  0.94007  0.39033  1.0000
  H   H1526     1.0  0.26800  0.82847  0.36756  1.0000
  H   H1527     1.0  0.29609  0.85947  0.56594  1.0000
  S   S257      1.0  0.36572  0.90264  0.62054  1.0000
  H   H1528     1.0  0.42920  0.90070  0.58610  1.0000
  H   H1529     1.0  0.47154  0.98798  0.52965  1.0000
  H   H1530     1.0  0.40442  0.96533  0.59934  1.0000
  C   C900      1.0  0.40866  0.84302  0.34112  1.0000
  H   H1531     1.0  0.38635  0.92441  0.38143  1.0000
  C   C901      1.0  0.36515  0.94402  0.35760  1.0000
  H   H1532     1.0  0.26880  0.85626  0.60201  1.0000
  H   H1533     1.0  0.39143  0.88068  0.64634  1.0000
  H   H1534     1.0  0.37836  0.93483  0.40285  1.0000
  C   C902      1.0  0.25201  0.87361  0.35226  1.0000
  H   H1535     1.0  0.39298  0.90908  0.33353  1.0000
  H   H1536     1.0  0.36824  0.92852  0.35606  1.0000
  H   H1537     1.0  0.37827  0.95550  0.65209  1.0000
  H   H1538     1.0  0.45640  0.93724  0.52347  1.0000
  C   C903      1.0  0.48762  0.85372  0.44961  1.0000
  C   C904      1.0  0.34002  0.98965  0.65035  1.0000
  H   H1539     1.0  0.28827  0.91534  0.56755  1.0000
  H   H1540     1.0  0.43036  0.98386  0.59519  1.0000
  H   H1541     1.0  0.41191  0.96233  0.64922  1.0000
  H   H1542     1.0  0.42371  0.92289  0.33428  1.0000
  C   C905      1.0  0.47917  0.98432  0.49902  1.0000
  H   H1543     1.0  0.48928  0.86493  0.43769  1.0000
  H   H1544     1.0  0.46468  0.98345  0.49493  1.0000
  Fe  Fe129     1.0  0.31019  0.87881  0.33333  1.0000
  C   C906      1.0  0.33067  0.97299  0.65543  1.0000
  C   C907      1.0  0.43585  0.92816  0.64786  1.0000
  H   H1545     1.0  0.46605  0.98101  0.39894  1.0000
  H   H1546     1.0  0.39931  0.97370  0.63036  1.0000
  C   C908      1.0  0.48697  0.98386  0.56791  1.0000
  C   C909      1.0  0.49148  0.95543  0.48342  1.0000
  H   H1547     1.0  0.41087  0.85758  0.34430  1.0000
  H   H1548     1.0  0.46224  0.97093  0.36703  1.0000
  H   H1549     1.0  0.34308  0.97803  0.35804  1.0000
  H   H1550     1.0  0.25161  0.79673  0.65193  1.0000
  C   C910      1.0  0.31043  0.98857  0.32995  1.0000
  H   H1551     1.0  0.44922  0.93510  0.64751  1.0000
  H   H1552     1.0  0.44243  0.99130  0.40100  1.0000
  H   H1553     1.0  0.44342  0.96384  0.38380  1.0000
  Fe  Fe130     1.0  0.30288  0.88575  0.65177  1.0000
  H   H1554     1.0  0.24887  0.87196  0.65796  1.0000
  H   H1555     1.0  0.35237  0.98926  0.64011  1.0000
  H   H1556     1.0  0.48898  0.97016  0.61587  1.0000
  H   H1557     1.0  0.42252  0.83525  0.33678  1.0000
  H   H1558     1.0  0.42209  0.99220  0.61824  1.0000
  H   H1559     1.0  0.29538  0.98921  0.33449  1.0000
  H   H1560     1.0  0.24378  0.77704  0.63082  1.0000
  H   H1561     1.0  0.24378  0.79995  0.60161  1.0000
  H   H1562     1.0  0.48605  0.99314  0.48683  1.0000
  S   S258      1.0  0.30759  0.95061  0.32647  1.0000
  Fe  Fe131     1.0  0.32746  0.88394  0.68621  1.0000
  H   H1563     1.0  0.36326  0.92495  0.75462  1.0000
  S   S259      1.0  0.32858  0.86868  0.71635  1.0000
  H   H1564     1.0  0.39465  0.90113  0.96507  1.0000
  H   H1565     1.0  0.45156  0.92789  0.90508  1.0000
  C   C911      1.0  0.40433  0.92160  0.94136  1.0000
  H   H1566     1.0  0.33330  0.52109  0.88502  1.0000
  H   H1567     1.0  0.45064  0.90882  0.92340  1.0000
  S   S260      1.0  0.29800  0.89741  0.68055  1.0000
  H   H1568     1.0  0.39159  0.79053  0.77524  1.0000
  Fe  Fe132     1.0  0.42836  0.81193  0.82609  1.0000
  S   S261      1.0  0.40806  0.81478  0.85259  1.0000
  S   S262      1.0  0.45914  0.79897  0.82305  1.0000
  Fe  Fe133     1.0  0.39770  0.82663  0.79919  1.0000
  S   S263      1.0  0.37549  0.83042  0.82354  1.0000
  S   S264      1.0  0.39561  0.83445  0.76736  1.0000
  Fe  Fe134     1.0  0.39784  0.84310  0.83753  1.0000
  S   S265      1.0  0.38734  0.87107  0.85032  1.0000
  Fe  Fe135     1.0  0.38728  0.80170  0.83663  1.0000
  S   S266      1.0  0.36458  0.78179  0.84980  1.0000
  S   S267      1.0  0.41945  0.84096  0.81231  1.0000
  S   S268      1.0  0.40816  0.79719  0.81108  1.0000
  Fe  Fe136     1.0  0.42410  0.96547  0.87982  1.0000
  S   S269      1.0  0.43556  0.93858  0.86547  1.0000
  S   S270      1.0  0.44332  0.97265  0.90088  1.0000
  Fe  Fe137     1.0  0.30593  0.64322  0.89470  1.0000
  S   S271      1.0  0.33615  0.64090  0.88079  1.0000
  S   S272      1.0  0.28191  0.62529  0.88915  1.0000
  Fe  Fe138     1.0  0.31856  0.66092  0.92936  1.0000
  S   S273      1.0  0.34910  0.65943  0.91789  1.0000
  S   S274      1.0  0.30683  0.66982  0.95855  1.0000
  Fe  Fe139     1.0  0.33799  0.67071  0.88974  1.0000
  S   S275      1.0  0.35664  0.69224  0.87190  1.0000
  Fe  Fe140     1.0  0.34503  0.63026  0.90977  1.0000
  S   S276      1.0  0.36342  0.60406  0.92073  1.0000
  S   S277      1.0  0.30709  0.67368  0.90181  1.0000
  S   S278      1.0  0.31520  0.63121  0.92327  1.0000
  H   H1569     1.0  0.34198  0.55205  0.89357  1.0000
  H   H1570     1.0  0.49123  0.97920  0.85137  1.0000
  S   S279      1.0  0.38525  0.52862  0.87841  1.0000
  H   H1571     1.0  0.38674  0.93273  0.90028  1.0000
  H   H1572     1.0  0.35114  0.89497  0.81506  1.0000
  H   H1573     1.0  0.32746  0.79961  0.81165  1.0000
  H   H1574     1.0  0.32847  0.76783  0.80398  1.0000
  H   H1575     1.0  0.38385  0.89471  0.92560  1.0000
  H   H1576     1.0  0.42634  0.90996  0.89828  1.0000
  H   H1577     1.0  0.44372  0.54500  0.96706  1.0000
  C   C912      1.0  0.44260  0.92196  0.91758  1.0000
  H   H1578     1.0  0.38234  0.76739  0.80419  1.0000
  H   H1579     1.0  0.39300  0.92752  0.80809  1.0000
  H   H1580     1.0  0.37572  0.91389  0.82101  1.0000
  H   H1581     1.0  0.41696  0.92385  0.94871  1.0000
  C   C913      1.0  0.26417  0.62440  0.87317  1.0000
  H   H1582     1.0  0.37188  0.92941  0.92225  1.0000
  C   C914      1.0  0.31448  0.97337  0.66841  1.0000
  S   S280      1.0  0.34222  0.91012  0.67473  1.0000
  H   H1583     1.0  0.45084  0.51181  0.91255  1.0000
  C   C915      1.0  0.37019  0.58352  0.90842  1.0000
  C   C916      1.0  0.37443  0.56604  0.91902  1.0000
  C   C917      1.0  0.37931  0.54922  0.90993  1.0000
  C   C918      1.0  0.38046  0.54979  0.89007  1.0000
  C   C919      1.0  0.37672  0.56735  0.87941  1.0000
  C   C920      1.0  0.37142  0.58415  0.88855  1.0000
  H   H1584     1.0  0.37361  0.56542  0.93439  1.0000
  H   H1585     1.0  0.38203  0.53579  0.91832  1.0000
  H   H1586     1.0  0.37769  0.56792  0.86403  1.0000
  H   H1587     1.0  0.36844  0.59759  0.88023  1.0000
  H   H1588     1.0  0.36096  0.74755  0.76535  1.0000
  C   C921      1.0  0.32039  0.67012  0.97820  1.0000
  H   H1589     1.0  0.30473  0.70720  0.92826  1.0000
  H   H1590     1.0  0.43003  0.89232  0.94349  1.0000
  H   H1591     1.0  0.34774  0.66776  0.96212  1.0000
  C   C922      1.0  0.37322  0.87897  0.79695  1.0000
  H   H1592     1.0  0.36421  0.80440  0.78503  1.0000
  C   C923      1.0  0.36283  0.75678  0.85572  1.0000
  C   C924      1.0  0.34530  0.75057  0.86380  1.0000
  C   C925      1.0  0.34304  0.73100  0.86868  1.0000
  C   C926      1.0  0.35834  0.71722  0.86554  1.0000
  C   C927      1.0  0.37580  0.72342  0.85719  1.0000
  C   C928      1.0  0.37808  0.74300  0.85238  1.0000
  H   H1593     1.0  0.33332  0.76102  0.86633  1.0000
  H   H1594     1.0  0.32945  0.72658  0.87482  1.0000
  H   H1595     1.0  0.38775  0.71296  0.85460  1.0000
  H   H1596     1.0  0.39165  0.74741  0.84613  1.0000
  C   C929      1.0  0.47866  0.80754  0.83215  1.0000
  C   C930      1.0  0.47630  0.82252  0.84387  1.0000
  H   H1597     1.0  0.42414  0.88344  0.76768  1.0000
  H   H1598     1.0  0.46219  0.82913  0.84765  1.0000
  Fe  Fe141     1.0  0.38996  0.50140  0.89764  1.0000
  C   C931      1.0  0.40110  0.88984  0.85375  1.0000
  C   C932      1.0  0.42095  0.88809  0.85087  1.0000
  C   C933      1.0  0.43128  0.90326  0.85423  1.0000
  C   C934      1.0  0.42189  0.92034  0.86036  1.0000
  C   C935      1.0  0.40203  0.92221  0.86287  1.0000
  C   C936      1.0  0.39172  0.90698  0.85974  1.0000
  H   H1599     1.0  0.42836  0.87499  0.84626  1.0000
  H   H1600     1.0  0.44665  0.90168  0.85220  1.0000
  H   H1601     1.0  0.39462  0.93545  0.86709  1.0000
  H   H1602     1.0  0.37635  0.90853  0.86185  1.0000
  H   H1603     1.0  0.35750  0.88231  0.76499  1.0000
  C   C937      1.0  0.35921  0.89649  0.76974  1.0000
  C   C938      1.0  0.34750  0.85940  0.73026  1.0000
  C   C939      1.0  0.36659  0.85911  0.72307  1.0000
  C   C940      1.0  0.38105  0.85130  0.73462  1.0000
  C   C941      1.0  0.37667  0.84396  0.75356  1.0000
  C   C942      1.0  0.35760  0.84444  0.76086  1.0000
  C   C943      1.0  0.34312  0.85200  0.74922  1.0000
  H   H1604     1.0  0.37018  0.86466  0.70852  1.0000
  H   H1605     1.0  0.39575  0.85095  0.72879  1.0000
  H   H1606     1.0  0.35400  0.83907  0.77542  1.0000
  H   H1607     1.0  0.32839  0.85222  0.75492  1.0000
  H   H1608     1.0  0.39760  0.90236  0.81060  1.0000
  H   H1609     1.0  0.42493  0.95541  0.98849  1.0000
  H   H1610     1.0  0.31110  0.73093  0.92375  1.0000
  H   H1611     1.0  0.48530  0.53097  0.95825  1.0000
  H   H1612     1.0  0.35553  0.87027  0.82264  1.0000
  N   N66       1.0  0.34975  0.72028  0.93578  1.0000
  C   C944      1.0  0.36142  0.71327  0.95223  1.0000
  C   C945      1.0  0.36066  0.71335  0.91802  1.0000
  C   C946      1.0  0.33130  0.71107  0.93928  1.0000
  C   C947      1.0  0.34631  0.74174  0.93499  1.0000
  C   C948      1.0  0.38060  0.72035  0.91304  1.0000
  C   C949      1.0  0.31700  0.71581  0.92416  1.0000
  H   H1613     1.0  0.48240  0.95281  0.90681  1.0000
  H   H1614     1.0  0.36489  0.69752  0.95273  1.0000
  H   H1615     1.0  0.38063  0.73591  0.91364  1.0000
  H   H1616     1.0  0.35278  0.71722  0.90534  1.0000
  H   H1617     1.0  0.36251  0.69748  0.91910  1.0000
  H   H1618     1.0  0.33424  0.69527  0.94086  1.0000
  H   H1619     1.0  0.32325  0.71501  0.95279  1.0000
  H   H1620     1.0  0.33459  0.74599  0.94583  1.0000
  H   H1621     1.0  0.39104  0.71264  0.92239  1.0000
  H   H1622     1.0  0.38571  0.71714  0.89825  1.0000
  H   H1623     1.0  0.34501  0.76991  0.82058  1.0000
  H   H1624     1.0  0.33544  0.74410  0.90594  1.0000
  H   H1625     1.0  0.32292  0.71201  0.90984  1.0000
  H   H1626     1.0  0.36314  0.71346  0.98271  1.0000
  H   H1627     1.0  0.47408  0.83289  0.78772  1.0000
  S   S281      1.0  0.30162  0.95304  0.67440  1.0000
  N   N67       1.0  0.34498  0.60780  0.98832  1.0000
  C   C950      1.0  0.32544  0.60077  0.98982  1.0000
  C   C951      1.0  0.34027  0.66904  0.97604  1.0000
  C   C952      1.0  0.39368  0.89063  0.76902  1.0000
  C   C953      1.0  0.48965  0.95212  0.86982  1.0000
  H   H1628     1.0  0.48981  0.50670  0.96681  1.0000
  C   C954      1.0  0.38942  0.91463  0.95717  1.0000
  H   H1629     1.0  0.39708  0.89725  0.90314  1.0000
  H   H1630     1.0  0.33123  0.76491  0.91826  1.0000
  H   H1631     1.0  0.37193  0.63551  0.97310  1.0000
  H   H1632     1.0  0.37533  0.71951  0.95044  1.0000
  H   H1633     1.0  0.37031  0.90500  0.74028  1.0000
  H   H1634     1.0  0.43367  0.86257  0.92742  1.0000
  H   H1635     1.0  0.34840  0.76039  0.74737  1.0000
  H   H1636     1.0  0.31167  0.53213  0.87632  1.0000
  H   H1637     1.0  0.32477  0.59087  0.97865  1.0000
  H   H1638     1.0  0.45508  0.53607  0.90610  1.0000
  H   H1639     1.0  0.39557  0.90197  0.75716  1.0000
  H   H1640     1.0  0.35447  0.75862  0.90808  1.0000
  C   C955      1.0  0.45979  0.52310  0.91520  1.0000
  H   H1641     1.0  0.29547  0.99088  0.68654  1.0000
  H   H1642     1.0  0.35917  0.74780  0.93885  1.0000
  S   S282      1.0  0.37906  0.49930  0.96763  1.0000
  H   H1643     1.0  0.32172  0.54385  0.90673  1.0000
  C   C956      1.0  0.48087  0.97149  0.86119  1.0000
  H   H1644     1.0  0.38612  0.77318  0.75996  1.0000
  C   C957      1.0  0.38625  0.91399  0.80832  1.0000
  H   H1645     1.0  0.44037  0.88166  0.91061  1.0000
  H   H1646     1.0  0.37755  0.75115  0.78850  1.0000
  H   H1647     1.0  0.33282  0.78225  0.77331  1.0000
  H   H1648     1.0  0.47472  0.98078  0.87227  1.0000
  H   H1649     1.0  0.41270  0.87746  0.79057  1.0000
  H   H1650     1.0  0.38645  0.92553  0.96760  1.0000
  C   C958      1.0  0.36806  0.62538  0.96350  1.0000
  H   H1651     1.0  0.36425  0.58624  0.97471  1.0000
  H   H1652     1.0  0.48474  0.49884  0.87657  1.0000
  C   C959      1.0  0.41256  0.88835  0.77830  1.0000
  H   H1653     1.0  0.36804  0.91753  0.90211  1.0000
  H   H1654     1.0  0.41682  0.93238  0.90542  1.0000
  H   H1655     1.0  0.34458  0.61041  0.95764  1.0000
  H   H1656     1.0  0.39896  0.93607  0.93538  1.0000
  H   H1657     1.0  0.39265  0.87729  0.76220  1.0000
  H   H1658     1.0  0.33661  0.73717  0.81987  1.0000
  C   C960      1.0  0.37924  0.92223  0.91002  1.0000
  N   N68       1.0  0.40981  0.90862  0.92570  1.0000
  H   H1659     1.0  0.30757  0.56799  0.92823  1.0000
  C   C961      1.0  0.32636  0.53471  0.87869  1.0000
  H   H1660     1.0  0.34236  0.87704  0.80248  1.0000
  C   C962      1.0  0.48909  0.82901  0.78236  1.0000
  C   C963      1.0  0.32679  0.55019  0.89245  1.0000
  H   H1661     1.0  0.46323  0.53785  0.98175  1.0000
  C   C964      1.0  0.41516  0.97991  0.97029  1.0000
  C   C965      1.0  0.35053  0.66957  0.99199  1.0000
  H   H1662     1.0  0.34783  0.73583  0.79629  1.0000
  Fe  Fe142     1.0  0.41697  0.98099  0.91947  1.0000
  N   N69       1.0  0.31618  0.56927  0.88724  1.0000
  C   C966      1.0  0.32464  0.57667  0.86783  1.0000
  H   H1663     1.0  0.34589  0.91221  0.74585  1.0000
  C   C967      1.0  0.31898  0.58328  0.90131  1.0000
  C   C968      1.0  0.29533  0.56780  0.88592  1.0000
  C   C969      1.0  0.31719  0.59707  0.86051  1.0000
  H   H1664     1.0  0.34036  0.57641  0.86762  1.0000
  C   C970      1.0  0.32007  0.57546  0.92233  1.0000
  C   C971      1.0  0.28382  0.55963  0.90391  1.0000
  H   H1665     1.0  0.44084  0.93278  0.92808  1.0000
  H   H1666     1.0  0.32203  0.56742  0.85672  1.0000
  H   H1667     1.0  0.47749  0.94458  0.87699  1.0000
  C   C972      1.0  0.42812  0.87602  0.91956  1.0000
  H   H1668     1.0  0.33238  0.59021  0.89725  1.0000
  H   H1669     1.0  0.30753  0.59518  0.90111  1.0000
  H   H1670     1.0  0.28803  0.58219  0.88246  1.0000
  H   H1671     1.0  0.29283  0.55990  0.87371  1.0000
  H   H1672     1.0  0.30210  0.59798  0.85738  1.0000
  H   H1673     1.0  0.31891  0.60773  0.87046  1.0000
  H   H1674     1.0  0.32554  0.60131  0.84692  1.0000
  H   H1675     1.0  0.40840  0.88199  0.94346  1.0000
  H   H1676     1.0  0.26889  0.65092  0.85664  1.0000
  H   H1677     1.0  0.38281  0.92457  0.77900  1.0000
  H   H1678     1.0  0.33328  0.56593  0.92424  1.0000
  C   C973      1.0  0.30855  0.61622  0.98790  1.0000
  H   H1679     1.0  0.32073  0.58757  0.93101  1.0000
  H   H1680     1.0  0.27909  0.57094  0.91361  1.0000
  H   H1681     1.0  0.29148  0.54743  0.91172  1.0000
  H   H1682     1.0  0.27105  0.55383  0.89964  1.0000
  H   H1683     1.0  0.37393  0.86523  0.79035  1.0000
  N   N70       1.0  0.46504  0.51250  0.95092  1.0000
  C   C974      1.0  0.45259  0.51391  0.96938  1.0000
  C   C975      1.0  0.24583  0.63764  0.84687  1.0000
  C   C976      1.0  0.48492  0.51617  0.95441  1.0000
  H   H1684     1.0  0.45830  0.50397  0.98102  1.0000
  H   H1685     1.0  0.33803  0.63208  0.96812  1.0000
  H   H1686     1.0  0.47472  0.51884  0.91026  1.0000
  H   H1687     1.0  0.33524  0.75009  0.76834  1.0000
  H   H1688     1.0  0.49027  0.84018  0.86026  1.0000
  C   C977      1.0  0.26053  0.63880  0.85867  1.0000
  H   H1689     1.0  0.46906  0.96901  0.85279  1.0000
  C   C978      1.0  0.45688  0.52738  0.93630  1.0000
  C   C979      1.0  0.35250  0.71788  0.97224  1.0000
  H   H1690     1.0  0.33476  0.53808  0.86493  1.0000
  H   H1691     1.0  0.46241  0.54142  0.93718  1.0000
  C   C980      1.0  0.49224  0.82876  0.85097  1.0000
  C   C981      1.0  0.41961  0.97031  0.98784  1.0000
  H   H1692     1.0  0.48983  0.91577  0.88880  1.0000
  S   S283      1.0  0.39765  0.97205  0.89919  1.0000
  H   H1693     1.0  0.41618  0.90217  0.78241  1.0000
  Fe  Fe143     1.0  0.31318  0.92287  0.66772  1.0000
  C   C982      1.0  0.34792  0.61891  0.96911  1.0000
  H   H1694     1.0  0.41767  0.87216  0.91028  1.0000
  C   C983      1.0  0.39264  0.90466  0.91624  1.0000
  H   H1695     1.0  0.36150  0.73892  0.81589  1.0000
  H   H1696     1.0  0.43813  0.50977  0.96777  1.0000
  H   H1697     1.0  0.35484  0.78681  0.76144  1.0000
  C   C984      1.0  0.37619  0.91417  0.78985  1.0000
  C   C985      1.0  0.30793  0.99052  0.67643  1.0000
  H   H1698     1.0  0.38484  0.87681  0.80648  1.0000
  H   H1699     1.0  0.40465  0.76777  0.77545  1.0000
  H   H1700     1.0  0.33868  0.82085  0.80463  1.0000
  H   H1701     1.0  0.44111  0.52990  0.93918  1.0000
  C   C986      1.0  0.36001  0.91059  0.75169  1.0000
  C   C987      1.0  0.33656  0.80673  0.80001  1.0000
  H   H1702     1.0  0.36137  0.92049  0.79334  1.0000
  N   N71       1.0  0.37583  0.89525  0.78176  1.0000
  C   C988      1.0  0.42333  0.91825  0.91094  1.0000
  C   C989      1.0  0.25305  0.60877  0.87555  1.0000
  S   S284      1.0  0.41783  0.96710  0.94981  1.0000
  H   H1703     1.0  0.34561  0.90070  0.77815  1.0000
  H   H1704     1.0  0.47592  0.97857  0.98143  1.0000
  C   C990      1.0  0.41900  0.88994  0.93407  1.0000
  C   C991      1.0  0.34169  0.75248  0.91563  1.0000
  C   C992      1.0  0.35442  0.88065  0.80989  1.0000
  H   H1705     1.0  0.32898  0.80956  0.78693  1.0000
  H   H1706     1.0  0.37573  0.91276  0.95164  1.0000
  N   N72       1.0  0.35610  0.77539  0.79105  1.0000
  C   C993      1.0  0.35622  0.79555  0.79631  1.0000
  C   C994      1.0  0.37642  0.76659  0.79031  1.0000
  C   C995      1.0  0.34378  0.76482  0.80642  1.0000
  C   C996      1.0  0.34798  0.77636  0.77210  1.0000
  C   C997      1.0  0.39021  0.77522  0.77427  1.0000
  C   C998      1.0  0.34784  0.74295  0.80946  1.0000
  C   C999      1.0  0.34814  0.75740  0.76308  1.0000
  H   H1707     1.0  0.36370  0.79558  0.80940  1.0000
  H   H1708     1.0  0.30874  0.62385  0.97344  1.0000
  H   H1709     1.0  0.36590  0.66874  0.99022  1.0000
  H   H1710     1.0  0.36831  0.63306  0.94905  1.0000
  H   H1711     1.0  0.37915  0.61322  0.96263  1.0000
  H   H1712     1.0  0.25554  0.59764  0.88684  1.0000
  S   S285      1.0  0.41051  0.49940  0.92005  1.0000
  H   H1713     1.0  0.48939  0.97570  0.89871  1.0000
  H   H1714     1.0  0.49195  0.81352  0.78655  1.0000
  C   C1000     1.0  0.44983  0.53369  0.97725  1.0000
  H   H1715     1.0  0.34009  0.70974  0.97714  1.0000
  H   H1716     1.0  0.34845  0.73333  0.97308  1.0000
  C   C1001     1.0  0.36015  0.59115  0.98918  1.0000
  H   H1717     1.0  0.43957  0.53296  0.99017  1.0000
  H   H1718     1.0  0.49004  0.83161  0.76669  1.0000
  C   C1002     1.0  0.39843  0.49470  0.98129  1.0000
  H   H1719     1.0  0.42556  0.93305  0.65956  1.0000
  H   H1720     1.0  0.29509  0.60922  0.99018  1.0000
  H   H1721     1.0  0.52291  0.45568  0.01769  1.0000
  C   C1003     1.0  0.59432  0.01335  0.00035  1.0000
  Fe  Fe144     1.0  0.66639  0.08969  0.30697  1.0000
  S   S286      1.0  0.66295  0.09095  0.27498  1.0000
  Fe  Fe145     1.0  0.61408  0.15566  0.18727  1.0000
  S   S287      1.0  0.62749  0.15519  0.15692  1.0000
  S   S288      1.0  0.62986  0.15573  0.21410  1.0000
  Fe  Fe146     1.0  0.57399  0.16541  0.17405  1.0000
  S   S289      1.0  0.58480  0.16640  0.14328  1.0000
  S   S290      1.0  0.54291  0.16812  0.18614  1.0000
  Fe  Fe147     1.0  0.60265  0.13932  0.15172  1.0000
  S   S291      1.0  0.59924  0.11784  0.13051  1.0000
  Fe  Fe148     1.0  0.60874  0.18236  0.15059  1.0000
  S   S292      1.0  0.62120  0.20554  0.12891  1.0000
  S   S293      1.0  0.59082  0.13774  0.18247  1.0000
  S   S294      1.0  0.59635  0.18355  0.18101  1.0000
  Fe  Fe149     1.0  0.60424  0.01050  0.10814  1.0000
  S   S295      1.0  0.61754  0.02812  0.12765  1.0000
  S   S296      1.0  0.58210  0.02190  0.08856  1.0000
  Fe  Fe150     1.0  0.66503  0.31032  0.10106  1.0000
  S   S297      1.0  0.69581  0.31249  0.08949  1.0000
  S   S298      1.0  0.65227  0.28837  0.12390  1.0000
  Fe  Fe151     1.0  0.65246  0.34967  0.08147  1.0000
  S   S299      1.0  0.68179  0.35446  0.06849  1.0000
  S   S300      1.0  0.62786  0.37108  0.07375  1.0000
  Fe  Fe152     1.0  0.68350  0.32398  0.06174  1.0000
  S   S301      1.0  0.69676  0.31830  0.03191  1.0000
  Fe  Fe153     1.0  0.69194  0.34310  0.09687  1.0000
  S   S302      1.0  0.70882  0.36250  0.11172  1.0000
  S   S303      1.0  0.65330  0.31980  0.07287  1.0000
  S   S304      1.0  0.66207  0.34031  0.11028  1.0000
  H   H1722     1.0  0.58858  0.32423  0.07775  1.0000
  C   C1004     1.0  0.54917  0.11240  0.18926  1.0000
  H   H1723     1.0  0.50984  0.16577  0.12840  1.0000
  H   H1724     1.0  0.60190  0.10199  0.32363  1.0000
  S   S305      1.0  0.53647  0.99931  0.11005  1.0000
  H   H1725     1.0  0.57155  0.13338  0.28849  1.0000
  Fe  Fe154     1.0  0.60275  0.47605  0.09357  1.0000
  S   S306      1.0  0.61129  0.44926  0.11241  1.0000
  S   S307      1.0  0.58117  0.47603  0.07243  1.0000
  C   C1005     1.0  0.50510  0.16416  0.18335  1.0000
  H   H1726     1.0  0.58771  0.02779  0.00050  1.0000
  H   H1727     1.0  0.70556  0.42523  0.11610  1.0000
  C   C1006     1.0  0.59051  0.47180  0.99441  1.0000
  H   H1728     1.0  0.55214  0.12556  0.19533  1.0000
  H   H1729     1.0  0.52990  0.48923  0.04096  1.0000
  H   H1730     1.0  0.65768  0.41003  0.09111  1.0000
  H   H1731     1.0  0.61811  0.14386  0.32209  1.0000
  C   C1007     1.0  0.57469  0.49301  0.01703  1.0000
  C   C1008     1.0  0.73307  0.36225  0.11658  1.0000
  C   C1009     1.0  0.68344  0.31703  0.01225  1.0000
  C   C1010     1.0  0.66377  0.31591  0.01454  1.0000
  H   H1732     1.0  0.55964  0.10086  0.19449  1.0000
  H   H1733     1.0  0.49625  0.99941  0.11559  1.0000
  H   H1734     1.0  0.65634  0.31581  0.02862  1.0000
  H   H1735     1.0  0.61220  0.33129  0.07968  1.0000
  C   C1011     1.0  0.62377  0.39274  0.08463  1.0000
  C   C1012     1.0  0.61802  0.40960  0.07372  1.0000
  C   C1013     1.0  0.61423  0.42698  0.08207  1.0000
  C   C1014     1.0  0.61562  0.42756  0.10155  1.0000
  C   C1015     1.0  0.62102  0.41061  0.11255  1.0000
  C   C1016     1.0  0.62533  0.39330  0.10409  1.0000
  H   H1736     1.0  0.61662  0.40928  0.05870  1.0000
  H   H1737     1.0  0.61012  0.43992  0.07342  1.0000
  H   H1738     1.0  0.62196  0.41091  0.12765  1.0000
  H   H1739     1.0  0.62960  0.38039  0.11266  1.0000
  S   S308      1.0  0.61080  0.47810  0.02341  1.0000
  H   H1740     1.0  0.69069  0.44279  0.07827  1.0000
  H   H1741     1.0  0.72751  0.38721  0.13217  1.0000
  H   H1742     1.0  0.72992  0.40815  0.09645  1.0000
  H   H1743     1.0  0.61965  0.35345  0.13589  1.0000
  H   H1744     1.0  0.62716  0.32343  0.11893  1.0000
  C   C1017     1.0  0.67347  0.40862  0.08938  1.0000
  C   C1018     1.0  0.62862  0.22911  0.12768  1.0000
  C   C1019     1.0  0.62692  0.23980  0.14348  1.0000
  C   C1020     1.0  0.63423  0.25781  0.14200  1.0000
  C   C1021     1.0  0.64303  0.26565  0.12466  1.0000
  C   C1022     1.0  0.64428  0.25520  0.10876  1.0000
  C   C1023     1.0  0.63722  0.23706  0.11031  1.0000
  H   H1745     1.0  0.62014  0.23409  0.15687  1.0000
  H   H1746     1.0  0.63308  0.26574  0.15441  1.0000
  H   H1747     1.0  0.65100  0.26092  0.09533  1.0000
  H   H1748     1.0  0.63864  0.22900  0.09797  1.0000
  C   C1024     1.0  0.60427  0.09280  0.13063  1.0000
  C   C1025     1.0  0.61555  0.08209  0.14366  1.0000
  C   C1026     1.0  0.61939  0.06224  0.14272  1.0000
  C   C1027     1.0  0.61160  0.05289  0.12911  1.0000
  C   C1028     1.0  0.59981  0.06354  0.11655  1.0000
  C   C1029     1.0  0.59653  0.08342  0.11702  1.0000
  H   H1749     1.0  0.62162  0.08913  0.15418  1.0000
  H   H1750     1.0  0.62851  0.05409  0.15254  1.0000
  H   H1751     1.0  0.59341  0.05648  0.10633  1.0000
  H   H1752     1.0  0.58787  0.09157  0.10681  1.0000
  C   C1030     1.0  0.52457  0.16690  0.15343  1.0000
  C   C1031     1.0  0.52299  0.16634  0.17330  1.0000
  H   H1753     1.0  0.61854  0.10854  0.27306  1.0000
  H   H1754     1.0  0.53817  0.16883  0.14551  1.0000
  S   S309      1.0  0.60158  0.01706  0.03710  1.0000
  C   C1032     1.0  0.65387  0.10925  0.25826  1.0000
  C   C1033     1.0  0.64782  0.10414  0.24127  1.0000
  C   C1034     1.0  0.64003  0.11805  0.22781  1.0000
  C   C1035     1.0  0.63848  0.13735  0.23101  1.0000
  C   C1036     1.0  0.64453  0.14247  0.24801  1.0000
  C   C1037     1.0  0.65205  0.12853  0.26160  1.0000
  H   H1755     1.0  0.64912  0.08927  0.23853  1.0000
  H   H1756     1.0  0.63555  0.11386  0.21480  1.0000
  H   H1757     1.0  0.64352  0.15735  0.25061  1.0000
  H   H1758     1.0  0.65681  0.13272  0.27447  1.0000
  H   H1759     1.0  0.54022  0.46060  0.06579  1.0000
  N   N73       1.0  0.66645  0.19742  0.17093  1.0000
  C   C1038     1.0  0.64551  0.19743  0.17753  1.0000
  C   C1039     1.0  0.67167  0.18017  0.15988  1.0000
  C   C1040     1.0  0.66863  0.21517  0.15750  1.0000
  C   C1041     1.0  0.67749  0.19718  0.18807  1.0000
  C   C1042     1.0  0.63735  0.21199  0.19182  1.0000
  C   C1043     1.0  0.67339  0.16066  0.17183  1.0000
  C   C1044     1.0  0.68896  0.21985  0.15033  1.0000
  C   C1045     1.0  0.69929  0.19219  0.18527  1.0000
  H   H1760     1.0  0.63677  0.19974  0.16516  1.0000
  H   H1761     1.0  0.64209  0.18341  0.18465  1.0000
  H   H1762     1.0  0.68523  0.18115  0.15083  1.0000
  H   H1763     1.0  0.66104  0.17945  0.14942  1.0000
  H   H1764     1.0  0.66104  0.21431  0.14462  1.0000
  H   H1765     1.0  0.66192  0.22810  0.16399  1.0000
  H   H1766     1.0  0.67511  0.21131  0.19400  1.0000
  H   H1767     1.0  0.67188  0.18684  0.19970  1.0000
  H   H1768     1.0  0.64306  0.20837  0.20589  1.0000
  H   H1769     1.0  0.63963  0.22691  0.18664  1.0000
  H   H1770     1.0  0.62172  0.21129  0.19432  1.0000
  H   H1771     1.0  0.68576  0.15901  0.18040  1.0000
  H   H1772     1.0  0.66050  0.15787  0.18140  1.0000
  H   H1773     1.0  0.67560  0.14917  0.16202  1.0000
  H   H1774     1.0  0.68803  0.23222  0.13937  1.0000
  H   H1775     1.0  0.69751  0.20811  0.14336  1.0000
  H   H1776     1.0  0.69642  0.22445  0.16186  1.0000
  H   H1777     1.0  0.70687  0.20447  0.18809  1.0000
  H   H1778     1.0  0.70471  0.18797  0.17101  1.0000
  H   H1779     1.0  0.70362  0.18018  0.19575  1.0000
  N   N74       1.0  0.59814  0.31750  0.11768  1.0000
  C   C1046     1.0  0.59897  0.30297  0.13480  1.0000
  C   C1047     1.0  0.60376  0.30709  0.10011  1.0000
  C   C1048     1.0  0.57814  0.32708  0.11751  1.0000
  C   C1049     1.0  0.58735  0.28567  0.13481  1.0000
  H   H1780     1.0  0.61390  0.29719  0.13667  1.0000
  H   H1781     1.0  0.59387  0.30970  0.14814  1.0000
  H   H1782     1.0  0.61831  0.29957  0.10079  1.0000
  H   H1783     1.0  0.59416  0.29583  0.09912  1.0000
  H   H1784     1.0  0.56878  0.31781  0.11164  1.0000
  H   H1785     1.0  0.57193  0.32890  0.13237  1.0000
  H   H1786     1.0  0.57257  0.28989  0.13123  1.0000
  H   H1787     1.0  0.59450  0.27527  0.12504  1.0000
  H   H1788     1.0  0.58659  0.27794  0.14926  1.0000
  H   H1789     1.0  0.61427  0.33218  0.15010  1.0000
  H   H1790     1.0  0.59536  0.34830  0.14046  1.0000
  H   H1791     1.0  0.57383  0.35841  0.11671  1.0000
  C   C1050     1.0  0.61273  0.33120  0.11935  1.0000
  H   H1792     1.0  0.50052  0.44556  0.04220  1.0000
  Fe  Fe155     1.0  0.56740  0.99605  0.09964  1.0000
  H   H1793     1.0  0.65303  0.44278  0.08017  1.0000
  C   C1051     1.0  0.52094  0.47788  0.04750  1.0000
  C   C1052     1.0  0.50847  0.16520  0.14378  1.0000
  H   H1794     1.0  0.50405  0.14023  0.09759  1.0000
  H   H1795     1.0  0.57339  0.13085  0.25490  1.0000
  H   H1796     1.0  0.65677  0.35458  0.99524  1.0000
  H   H1797     1.0  0.60927  0.31001  0.06937  1.0000
  C   C1053     1.0  0.60162  0.00413  0.01693  1.0000
  H   H1798     1.0  0.64432  0.02577  0.09551  1.0000
  H   H1799     1.0  0.66898  0.03799  0.02686  1.0000
  H   H1800     1.0  0.63576  0.13869  0.30317  1.0000
  Fe  Fe156     1.0  0.60333  0.48899  0.05198  1.0000
  C   C1054     1.0  0.60335  0.31914  0.08082  1.0000
  C   C1055     1.0  0.57562  0.34716  0.10664  1.0000
  H   H1801     1.0  0.50370  0.16380  0.19872  1.0000
  N   N75       1.0  0.59772  0.11693  0.29572  1.0000
  H   H1802     1.0  0.66309  0.39294  0.12464  1.0000
  C   C1056     1.0  0.58132  0.12125  0.28344  1.0000
  C   C1057     1.0  0.62536  0.37714  0.00624  1.0000
  H   H1803     1.0  0.67259  0.43426  0.12833  1.0000
  C   C1058     1.0  0.61008  0.34179  0.13756  1.0000
  H   H1804     1.0  0.49768  0.45894  0.07431  1.0000
  H   H1805     1.0  0.55204  0.13595  0.13212  1.0000
  C   C1059     1.0  0.58663  0.12654  0.26201  1.0000
  C   C1060     1.0  0.71613  0.41236  0.09032  1.0000
  N   N76       1.0  0.54495  0.10028  0.15689  1.0000
  C   C1061     1.0  0.55810  0.08255  0.16126  1.0000
  C   C1062     1.0  0.55118  0.11579  0.16734  1.0000
  C   C1063     1.0  0.54734  0.10550  0.13564  1.0000
  C   C1064     1.0  0.52484  0.09576  0.16326  1.0000
  C   C1065     1.0  0.55591  0.06533  0.15010  1.0000
  H   H1806     1.0  0.67936  0.40056  0.13996  1.0000
  C   C1066     1.0  0.54177  0.12634  0.12840  1.0000
  H   H1807     1.0  0.57240  0.10905  0.28457  1.0000
  H   H1808     1.0  0.57326  0.08574  0.15853  1.0000
  H   H1809     1.0  0.55617  0.07733  0.17659  1.0000
  H   H1810     1.0  0.54338  0.12983  0.16379  1.0000
  H   H1811     1.0  0.56629  0.11807  0.16264  1.0000
  H   H1812     1.0  0.56248  0.10274  0.13013  1.0000
  H   H1813     1.0  0.53930  0.09639  0.12800  1.0000
  H   H1814     1.0  0.52012  0.08575  0.15391  1.0000
  H   H1815     1.0  0.52387  0.08766  0.17756  1.0000
  H   H1816     1.0  0.54166  0.06004  0.15325  1.0000
  H   H1817     1.0  0.55897  0.06848  0.13452  1.0000
  H   H1818     1.0  0.56649  0.05342  0.15446  1.0000
  C   C1067     1.0  0.67647  0.00695  0.32159  1.0000
  C   C1068     1.0  0.50929  0.11263  0.16360  1.0000
  C   C1069     1.0  0.50101  0.46892  0.00066  1.0000
  H   H1819     1.0  0.54239  0.12755  0.11261  1.0000
  C   C1070     1.0  0.49571  0.12817  0.10344  1.0000
  H   H1820     1.0  0.49989  0.01823  0.02533  1.0000
  H   H1821     1.0  0.52869  0.44655  0.05204  1.0000
  H   H1822     1.0  0.62591  0.11968  0.31791  1.0000
  Fe  Fe157     1.0  0.59795  0.00295  0.06735  1.0000
  C   C1071     1.0  0.66637  0.40483  0.13249  1.0000
  H   H1823     1.0  0.65323  0.42883  0.11650  1.0000
  H   H1824     1.0  0.54751  0.46012  0.04065  1.0000
  H   H1825     1.0  0.65450  0.40705  0.14373  1.0000
  H   H1826     1.0  0.62858  0.07896  0.08756  1.0000
  H   H1827     1.0  0.70049  0.40136  0.11519  1.0000
  H   H1828     1.0  0.71347  0.40032  0.08231  1.0000
  H   H1829     1.0  0.62490  0.09994  0.29581  1.0000
  H   H1830     1.0  0.66667  0.03670  0.09191  1.0000
  H   H1831     1.0  0.68722  0.45167  0.10073  1.0000
  H   H1832     1.0  0.66579  0.01231  0.08831  1.0000
  C   C1072     1.0  0.67877  0.41111  0.06762  1.0000
  H   H1833     1.0  0.58695  0.35056  0.09533  1.0000
  H   H1834     1.0  0.62392  0.34625  0.01467  1.0000
  H   H1835     1.0  0.60285  0.05967  0.04841  1.0000
  C   C1073     1.0  0.66802  0.42361  0.11955  1.0000
  H   H1836     1.0  0.67829  0.02053  0.31348  1.0000
  C   C1074     1.0  0.59020  0.10872  0.31516  1.0000
  H   H1837     1.0  0.72657  0.01536  0.32490  1.0000
  H   H1838     1.0  0.65216  0.08431  0.08968  1.0000
  H   H1839     1.0  0.68030  0.39685  0.06208  1.0000
  H   H1840     1.0  0.64539  0.06114  0.09785  1.0000
  H   H1841     1.0  0.56216  0.34854  0.09963  1.0000
  H   H1842     1.0  0.56610  0.13071  0.31996  1.0000
  S   S310      1.0  0.68991  0.07002  0.31964  1.0000
  H   H1843     1.0  0.59576  0.14679  0.30077  1.0000
  H   H1844     1.0  0.67796  0.39359  0.09450  1.0000
  H   H1845     1.0  0.69222  0.41750  0.06308  1.0000
  H   H1846     1.0  0.61367  0.34218  0.10713  1.0000
  N   N77       1.0  0.64242  0.04956  0.06037  1.0000
  C   C1075     1.0  0.64173  0.05151  0.03901  1.0000
  C   C1076     1.0  0.62253  0.04700  0.06924  1.0000
  C   C1077     1.0  0.65512  0.03171  0.06534  1.0000
  C   C1078     1.0  0.65021  0.06700  0.06626  1.0000
  C   C1079     1.0  0.66105  0.05232  0.02700  1.0000
  C   C1080     1.0  0.60699  0.06238  0.06255  1.0000
  C   C1081     1.0  0.65789  0.02665  0.08655  1.0000
  C   C1082     1.0  0.64362  0.07288  0.08649  1.0000
  H   H1847     1.0  0.63466  0.03953  0.03445  1.0000
  H   H1848     1.0  0.63298  0.06476  0.03432  1.0000
  H   H1849     1.0  0.62168  0.04625  0.08498  1.0000
  H   H1850     1.0  0.61819  0.03304  0.06617  1.0000
  H   H1851     1.0  0.64971  0.01914  0.05998  1.0000
  H   H1852     1.0  0.66974  0.03266  0.05833  1.0000
  H   H1853     1.0  0.66605  0.06521  0.06506  1.0000
  H   H1854     1.0  0.64652  0.07983  0.05643  1.0000
  H   H1855     1.0  0.65847  0.05705  0.01198  1.0000
  H   H1856     1.0  0.66995  0.06255  0.03189  1.0000
  H   H1857     1.0  0.59394  0.11424  0.25482  1.0000
  H   H1858     1.0  0.65333  0.45760  0.09941  1.0000
  H   H1859     1.0  0.50498  0.11495  0.10097  1.0000
  H   H1860     1.0  0.71801  0.42543  0.08066  1.0000
  H   H1861     1.0  0.58132  0.09688  0.31390  1.0000
  H   H1862     1.0  0.61779  0.07442  0.27749  1.0000
  H   H1863     1.0  0.61341  0.14025  0.28264  1.0000
  H   H1864     1.0  0.52722  0.13141  0.13372  1.0000
  H   H1865     1.0  0.66694  0.41922  0.06028  1.0000
  C   C1083     1.0  0.68116  0.44227  0.09160  1.0000
  C   C1084     1.0  0.51467  0.46990  0.01609  1.0000
  C   C1085     1.0  0.50279  0.48858  0.10658  1.0000
  H   H1866     1.0  0.53325  0.48974  0.10598  1.0000
  H   H1867     1.0  0.63135  0.38891  0.01241  1.0000
  C   C1086     1.0  0.62237  0.13401  0.31083  1.0000
  S   S311      1.0  0.62546  0.48711  0.07241  1.0000
  C   C1087     1.0  0.70055  0.41537  0.10673  1.0000
  H   H1868     1.0  0.66391  0.46475  0.07627  1.0000
  C   C1088     1.0  0.60676  0.13512  0.29685  1.0000
  H   H1869     1.0  0.64258  0.35673  0.02472  1.0000
  H   H1870     1.0  0.59370  0.08416  0.27603  1.0000
  C   C1089     1.0  0.60586  0.08308  0.28486  1.0000
  H   H1871     1.0  0.66165  0.37873  0.99475  1.0000
  C   C1090     1.0  0.65376  0.31442  0.99862  1.0000
  H   H1872     1.0  0.59546  0.13874  0.25935  1.0000
  C   C1091     1.0  0.66167  0.45217  0.08664  1.0000
  C   C1092     1.0  0.73828  0.37662  0.12696  1.0000
  C   C1093     1.0  0.61252  0.10271  0.28720  1.0000
  H   H1873     1.0  0.61146  0.07700  0.06184  1.0000
  H   H1874     1.0  0.60975  0.38113  0.00661  1.0000
  H   H1875     1.0  0.53456  0.10949  0.19501  1.0000
  N   N78       1.0  0.50548  0.47542  0.03507  1.0000
  C   C1094     1.0  0.53508  0.46022  0.05153  1.0000
  H   H1876     1.0  0.50225  0.47743  0.11818  1.0000
  H   H1877     1.0  0.59396  0.06166  0.07254  1.0000
  N   N79       1.0  0.68087  0.42233  0.10130  1.0000
  H   H1878     1.0  0.51388  0.12569  0.16833  1.0000
  H   H1879     1.0  0.63861  0.31320  0.00061  1.0000
  H   H1880     1.0  0.51502  0.48323  0.06126  1.0000
  H   H1881     1.0  0.49737  0.10888  0.17426  1.0000
  H   H1882     1.0  0.61845  0.36139  0.03364  1.0000
  H   H1883     1.0  0.72934  0.04793  0.30725  1.0000
  C   C1095     1.0  0.59052  0.48094  0.01100  1.0000
  H   H1884     1.0  0.60228  0.07517  0.29885  1.0000
  H   H1885     1.0  0.52540  0.47978  0.01023  1.0000
  C   C1096     1.0  0.62785  0.35919  0.02038  1.0000
  H   H1886     1.0  0.50362  0.11601  0.14955  1.0000
  C   C1097     1.0  0.69291  0.31689  0.99385  1.0000
  H   H1887     1.0  0.49735  0.01939  0.99310  1.0000
  C   C1098     1.0  0.74208  0.04843  0.31508  1.0000
  H   H1888     1.0  0.70816  0.31739  0.99206  1.0000
  S   S312      1.0  0.68148  0.08519  0.64344  1.0000
  C   C1099     1.0  0.71810  0.99895  0.35087  1.0000
  H   H1889     1.0  0.59174  0.12457  0.65583  1.0000
  C   C1100     1.0  0.50341  0.09698  0.51008  1.0000
  S   S313      1.0  0.63214  0.10042  0.62459  1.0000
  Fe  Fe158     1.0  0.52888  0.07915  0.60245  1.0000
  S   S314      1.0  0.53962  0.07666  0.57177  1.0000
  S   S315      1.0  0.54605  0.08102  0.62767  1.0000
  Fe  Fe159     1.0  0.52252  0.05146  0.57410  1.0000
  H   H1890     1.0  0.72216  0.05637  0.33796  1.0000
  Fe  Fe160     1.0  0.51187  0.09304  0.56494  1.0000
  C   C1101     1.0  0.53358  0.99987  0.61482  1.0000
  Fe  Fe161     1.0  0.64740  0.09760  0.34606  1.0000
  S   S316      1.0  0.62067  0.11315  0.35985  1.0000
  Fe  Fe162     1.0  0.69137  0.09223  0.34040  1.0000
  S   S317      1.0  0.72159  0.09476  0.34966  1.0000
  C   C1102     1.0  0.55733  0.08744  0.47202  1.0000
  S   S318      1.0  0.53377  0.02406  0.56208  1.0000
  H   H1891     1.0  0.49753  0.02678  0.37386  1.0000
  S   S319      1.0  0.66948  0.07899  0.36162  1.0000
  C   C1103     1.0  0.56662  0.08618  0.43810  1.0000
  H   H1892     1.0  0.57113  0.12263  0.46618  1.0000
  C   C1104     1.0  0.50001  0.00296  0.43679  1.0000
  C   C1105     1.0  0.54229  0.11126  0.44951  1.0000
  C   C1106     1.0  0.61343  0.02489  0.61733  1.0000
  S   S320      1.0  0.50231  0.09802  0.59568  1.0000
  Fe  Fe163     1.0  0.52297  0.07139  0.40949  1.0000
  S   S321      1.0  0.55363  0.06432  0.39744  1.0000
  S   S322      1.0  0.51614  0.06726  0.44124  1.0000
  H   H1893     1.0  0.56874  0.09412  0.42391  1.0000
  C   C1107     1.0  0.57614  0.11219  0.45560  1.0000
  S   S323      1.0  0.51372  0.05250  0.60509  1.0000
  H   H1894     1.0  0.52244  0.01958  0.42383  1.0000
  C   C1108     1.0  0.57784  0.12284  0.32748  1.0000
  H   H1895     1.0  0.58434  0.03702  0.61329  1.0000
  H   H1896     1.0  0.54613  0.08825  0.50172  1.0000
  H   H1897     1.0  0.65425  0.01289  0.63958  1.0000
  H   H1898     1.0  0.58864  0.10363  0.46142  1.0000
  H   H1899     1.0  0.54084  0.12481  0.45651  1.0000
  H   H1900     1.0  0.54975  0.12365  0.41987  1.0000
  C   C1109     1.0  0.72184  0.01833  0.33986  1.0000
  C   C1110     1.0  0.60196  0.09965  0.37024  1.0000
  C   C1111     1.0  0.58433  0.10899  0.37650  1.0000
  C   C1112     1.0  0.56912  0.09849  0.38444  1.0000
  C   C1113     1.0  0.57165  0.07855  0.38670  1.0000
  C   C1114     1.0  0.58935  0.06931  0.38067  1.0000
  C   C1115     1.0  0.60436  0.07974  0.37231  1.0000
  H   H1901     1.0  0.58235  0.12440  0.37494  1.0000
  H   H1902     1.0  0.55551  0.10578  0.38884  1.0000
  H   H1903     1.0  0.59147  0.05394  0.38258  1.0000
  H   H1904     1.0  0.61788  0.07237  0.36769  1.0000
  H   H1905     1.0  0.71022  0.00076  0.36498  1.0000
  C   C1116     1.0  0.64261  0.01072  0.63090  1.0000
  H   H1906     1.0  0.54604  0.02502  0.62138  1.0000
  C   C1117     1.0  0.72094  0.13754  0.44187  1.0000
  C   C1118     1.0  0.58500  0.07286  0.44036  1.0000
  Fe  Fe164     1.0  0.66711  0.05803  0.34022  1.0000
  C   C1119     1.0  0.66969  0.00641  0.34082  1.0000
  H   H1907     1.0  0.61501  0.13998  0.63394  1.0000
  H   H1908     1.0  0.70796  0.04210  0.38907  1.0000
  H   H1909     1.0  0.60955  0.03054  0.36134  1.0000
  H   H1910     1.0  0.58950  0.11507  0.42595  1.0000
  Fe  Fe165     1.0  0.49418  0.04872  0.43522  1.0000
  C   C1120     1.0  0.53832  0.11644  0.42851  1.0000
  H   H1911     1.0  0.64386  0.03959  0.60008  1.0000
  S   S324      1.0  0.66433  0.02735  0.35280  1.0000
  Fe  Fe166     1.0  0.65062  0.09551  0.64936  1.0000
  H   H1912     1.0  0.69914  0.03360  0.36918  1.0000
  C   C1121     1.0  0.60836  0.09448  0.62565  1.0000
  C   C1122     1.0  0.59898  0.09674  0.60891  1.0000
  C   C1123     1.0  0.57997  0.09246  0.60919  1.0000
  C   C1124     1.0  0.57013  0.08603  0.62631  1.0000
  C   C1125     1.0  0.57958  0.08359  0.64303  1.0000
  C   C1126     1.0  0.59862  0.08774  0.64272  1.0000
  H   H1913     1.0  0.60639  0.10196  0.59564  1.0000
  H   H1914     1.0  0.57285  0.09440  0.59623  1.0000
  H   H1915     1.0  0.53582  0.10356  0.42172  1.0000
  H   H1916     1.0  0.67044  0.03579  0.62185  1.0000
  H   H1917     1.0  0.63177  0.05756  0.61345  1.0000
  N   N80       1.0  0.63013  0.02902  0.62731  1.0000
  H   H1918     1.0  0.57211  0.07840  0.65628  1.0000
  H   H1919     1.0  0.61863  0.05207  0.64453  1.0000
  H   H1920     1.0  0.59746  0.08079  0.44152  1.0000
  C   C1127     1.0  0.62387  0.03673  0.64626  1.0000
  H   H1921     1.0  0.60243  0.04973  0.59900  1.0000
  H   H1922     1.0  0.60569  0.08580  0.65569  1.0000
  C   C1128     1.0  0.65956  0.04818  0.62194  1.0000
  H   H1923     1.0  0.55507  0.07694  0.43695  1.0000
  C   C1129     1.0  0.60559  0.01697  0.36931  1.0000
  H   H1924     1.0  0.52504  0.12619  0.42796  1.0000
  H   H1925     1.0  0.59002  0.01851  0.37275  1.0000
  C   C1130     1.0  0.58352  0.12403  0.43748  1.0000
  H   H1926     1.0  0.59733  0.05237  0.62391  1.0000
  H   H1927     1.0  0.71378  0.12549  0.43777  1.0000
  H   H1928     1.0  0.70791  0.02700  0.33888  1.0000
  H   H1929     1.0  0.59525  0.13202  0.44092  1.0000
  N   N81       1.0  0.56079  0.09951  0.45344  1.0000
  H   H1930     1.0  0.63616  0.03643  0.65488  1.0000
  H   H1931     1.0  0.71908  0.12268  0.62124  1.0000
  C   C1131     1.0  0.60976  0.14651  0.64734  1.0000
  H   H1932     1.0  0.58331  0.06184  0.45249  1.0000
  C   C1132     1.0  0.64075  0.04372  0.61488  1.0000
  C   C1133     1.0  0.73324  0.07387  0.64764  1.0000
  H   H1933     1.0  0.53798  0.10887  0.48719  1.0000
  H   H1934     1.0  0.52987  0.10360  0.45583  1.0000
  C   C1134     1.0  0.73068  0.07274  0.62642  1.0000
  S   S325      1.0  0.50258  0.05080  0.40394  1.0000
  C   C1135     1.0  0.59870  0.04202  0.61310  1.0000
  H   H1935     1.0  0.57238  0.13481  0.43230  1.0000
  H   H1936     1.0  0.56202  0.10601  0.49410  1.0000
  C   C1136     1.0  0.65197  0.00134  0.61314  1.0000
  H   H1937     1.0  0.58821  0.06506  0.42738  1.0000
  H   H1938     1.0  0.71575  0.13510  0.35878  1.0000
  H   H1939     1.0  0.52706  0.00753  0.60222  1.0000
  C   C1137     1.0  0.55048  0.09851  0.48955  1.0000
  S   S326      1.0  0.64353  0.07584  0.32626  1.0000
  H   H1940     1.0  0.72008  0.08449  0.62179  1.0000
  H   H1941     1.0  0.57046  0.07857  0.47586  1.0000
  C   C1138     1.0  0.50382  0.11454  0.51771  1.0000
  H   H1942     1.0  0.60596  0.01290  0.62504  1.0000
  H   H1943     1.0  0.66550  0.05990  0.61228  1.0000
  H   H1944     1.0  0.59456  0.02862  0.65284  1.0000
  S   S327      1.0  0.49573  0.06755  0.56496  1.0000
  H   H1945     1.0  0.62828  0.00024  0.35547  1.0000
  S   S328      1.0  0.66922  0.11275  0.32610  1.0000
  H   H1946     1.0  0.64135  0.99613  0.60493  1.0000
  H   H1947     1.0  0.71055  0.14660  0.45064  1.0000
  H   H1948     1.0  0.65738  0.05321  0.63636  1.0000
  S   S329      1.0  0.50124  0.09649  0.40495  1.0000
  C   C1139     1.0  0.73279  0.12849  0.64550  1.0000
  H   H1949     1.0  0.72487  0.14668  0.42879  1.0000
  H   H1950     1.0  0.54661  0.07723  0.47076  1.0000
  H   H1951     1.0  0.52294  0.00263  0.62697  1.0000
  H   H1952     1.0  0.58655  0.13302  0.33276  1.0000
  C   C1140     1.0  0.73006  0.12958  0.36161  1.0000
  H   H1953     1.0  0.73469  0.08902  0.64919  1.0000
  H   H1954     1.0  0.59781  0.15705  0.64362  1.0000
  H   H1955     1.0  0.50380  0.01560  0.35248  1.0000
  H   H1956     1.0  0.70081  0.99604  0.65441  1.0000
  H   H1957     1.0  0.49897  0.08309  0.48504  1.0000
  S   S330      1.0  0.50935  0.11674  0.54120  1.0000
  C   C1141     1.0  0.73163  0.12751  0.62602  1.0000
  C   C1142     1.0  0.51531  0.00923  0.56331  1.0000
  C   C1143     1.0  0.49918  0.09657  0.49097  1.0000
  H   H1958     1.0  0.50659  0.08382  0.51877  1.0000
  H   H1959     1.0  0.61832  0.01965  0.60322  1.0000
  C   C1144     1.0  0.51537  0.00680  0.42352  1.0000
  H   H1960     1.0  0.73879  0.13960  0.46486  1.0000
  C   C1145     1.0  0.49522  0.13102  0.48759  1.0000
  C   C1146     1.0  0.49498  0.11371  0.47971  1.0000
  C   C1147     1.0  0.71042  0.04161  0.37340  1.0000
  H   H1961     1.0  0.57120  0.11472  0.34021  1.0000
  H   H1962     1.0  0.72494  0.05924  0.62406  1.0000
  C   C1148     1.0  0.55099  0.01026  0.61788  1.0000
  C   C1149     1.0  0.49973  0.13143  0.50630  1.0000
  C   C1150     1.0  0.73633  0.11065  0.35841  1.0000
  H   H1963     1.0  0.70870  0.05658  0.36713  1.0000
  H   H1964     1.0  0.61288  0.01555  0.38260  1.0000
  H   H1965     1.0  0.55872  0.00333  0.62992  1.0000
  H   H1966     1.0  0.60795  0.00491  0.34242  1.0000
  H   H1967     1.0  0.56077  0.01170  0.60471  1.0000
  C   C1151     1.0  0.73799  0.13008  0.45340  1.0000
  H   H1968     1.0  0.53267  0.99781  0.39873  1.0000
  H   H1969     1.0  0.56678  0.00412  0.36024  1.0000
  C   C1152     1.0  0.74240  0.14151  0.36828  1.0000
  H   H1970     1.0  0.73731  0.15612  0.37047  1.0000
  H   H1971     1.0  0.66107  0.01087  0.60378  1.0000
  H   H1972     1.0  0.62180  0.15357  0.65134  1.0000
  C   C1153     1.0  0.73643  0.04846  0.33669  1.0000
  C   C1154     1.0  0.73059  0.03203  0.36848  1.0000
  H   H1973     1.0  0.73386  0.11658  0.46142  1.0000
  C   C1155     1.0  0.52131  0.99437  0.40947  1.0000
  H   H1974     1.0  0.73193  0.01821  0.37743  1.0000
  N   N82       1.0  0.73603  0.02921  0.34775  1.0000
  H   H1975     1.0  0.49997  0.14503  0.51201  1.0000
  H   H1976     1.0  0.49504  0.02769  0.57929  1.0000
  C   C1156     1.0  0.61248  0.00046  0.35693  1.0000
  C   C1157     1.0  0.49764  0.01429  0.57297  1.0000
  H   H1977     1.0  0.74052  0.04105  0.37381  1.0000
  H   H1978     1.0  0.63448  0.99973  0.63954  1.0000
  H   H1979     1.0  0.71956  0.07072  0.65595  1.0000
  Fe  Fe167     1.0  0.65324  0.09454  0.69205  1.0000
  H   H1980     1.0  0.57204  0.14993  0.69695  1.0000
  S   S331      1.0  0.63226  0.09772  0.71855  1.0000
  C   C1158     1.0  0.57498  0.47530  0.98346  1.0000
  H   H1981     1.0  0.57232  0.09526  0.69749  1.0000
  S   S332      1.0  0.68419  0.08329  0.68957  1.0000
  S   S333      1.0  0.64508  0.07316  0.67325  1.0000
  Fe  Fe168     1.0  0.60332  0.15423  0.81183  1.0000
  S   S334      1.0  0.61216  0.15668  0.84127  1.0000
  S   S335      1.0  0.62651  0.15109  0.78714  1.0000
  Fe  Fe169     1.0  0.56104  0.16420  0.82423  1.0000
  S   S336      1.0  0.56692  0.16791  0.85413  1.0000
  S   S337      1.0  0.53259  0.17086  0.81130  1.0000
  Fe  Fe170     1.0  0.59226  0.18360  0.84184  1.0000
  S   S338      1.0  0.59755  0.21363  0.84984  1.0000
  Fe  Fe171     1.0  0.58643  0.14081  0.85150  1.0000
  S   S339      1.0  0.58398  0.11882  0.87723  1.0000
  S   S340      1.0  0.58470  0.18188  0.81190  1.0000
  S   S341      1.0  0.57917  0.13632  0.82213  1.0000
  Fe  Fe172     1.0  0.58277  0.00686  0.90048  1.0000
  S   S342      1.0  0.57478  0.01151  0.93128  1.0000
  S   S343      1.0  0.59343  0.02837  0.87677  1.0000
  H   H1982     1.0  0.73706  0.33475  0.97494  1.0000
  H   H1983     1.0  0.64646  0.27194  0.92488  1.0000
  H   H1984     1.0  0.67806  0.00999  0.91174  1.0000
  H   H1985     1.0  0.61809  0.48617  0.89735  1.0000
  C   C1159     1.0  0.62150  0.45254  0.87070  1.0000
  H   H1986     1.0  0.63390  0.44278  0.87487  1.0000
  Fe  Fe173     1.0  0.65751  0.29544  0.89248  1.0000
  S   S344      1.0  0.68024  0.29566  0.91271  1.0000
  S   S345      1.0  0.65377  0.26514  0.88429  1.0000
  Fe  Fe174     1.0  0.64897  0.33924  0.89311  1.0000
  S   S346      1.0  0.67109  0.34210  0.91301  1.0000
  S   S347      1.0  0.62862  0.36403  0.88249  1.0000
  Fe  Fe175     1.0  0.68963  0.32185  0.89477  1.0000
  S   S348      1.0  0.72180  0.32219  0.88734  1.0000
  Fe  Fe176     1.0  0.66008  0.31586  0.92911  1.0000
  S   S349      1.0  0.64973  0.31317  0.96069  1.0000
  S   S350      1.0  0.66820  0.32056  0.87362  1.0000
  S   S351      1.0  0.63674  0.31415  0.91019  1.0000
  S   S352      1.0  0.52307  0.49000  0.88647  1.0000
  C   C1160     1.0  0.50185  0.47952  0.89482  1.0000
  H   H1987     1.0  0.66552  0.24880  0.94405  1.0000
  H   H1988     1.0  0.58793  0.27902  0.94128  1.0000
  H   H1989     1.0  0.73151  0.03778  0.65952  1.0000
  H   H1990     1.0  0.65896  0.44927  0.85229  1.0000
  Fe  Fe177     1.0  0.58330  0.46420  0.91962  1.0000
  S   S353      1.0  0.60641  0.43978  0.92469  1.0000
  S   S354      1.0  0.55196  0.46551  0.92937  1.0000
  H   H1991     1.0  0.62978  0.20916  0.92035  1.0000
  C   C1161     1.0  0.65993  0.01378  0.67811  1.0000
  H   H1992     1.0  0.65063  0.04422  0.92279  1.0000
  H   H1993     1.0  0.62213  0.19005  0.79807  1.0000
  C   C1162     1.0  0.72629  0.35825  0.86878  1.0000
  H   H1994     1.0  0.71096  0.36094  0.87066  1.0000
  C   C1163     1.0  0.62230  0.38482  0.89465  1.0000
  C   C1164     1.0  0.60672  0.39744  0.88933  1.0000
  C   C1165     1.0  0.60147  0.41425  0.89848  1.0000
  C   C1166     1.0  0.61196  0.41871  0.91286  1.0000
  C   C1167     1.0  0.62765  0.40620  0.91803  1.0000
  C   C1168     1.0  0.63272  0.38927  0.90910  1.0000
  H   H1995     1.0  0.59862  0.39415  0.87812  1.0000
  H   H1996     1.0  0.58935  0.42373  0.89436  1.0000
  H   H1997     1.0  0.63604  0.40976  0.92885  1.0000
  H   H1998     1.0  0.64488  0.37984  0.91312  1.0000
  C   C1169     1.0  0.66320  0.31450  0.98021  1.0000
  H   H1999     1.0  0.69026  0.31571  0.96379  1.0000
  C   C1170     1.0  0.61365  0.24867  0.95627  1.0000
  H   H2000     1.0  0.71831  0.31596  0.93036  1.0000
  H   H2001     1.0  0.53916  0.04158  0.87496  1.0000
  H   H2002     1.0  0.54115  0.12617  0.86944  1.0000
  H   H2003     1.0  0.56043  0.11858  0.69389  1.0000
  C   C1171     1.0  0.61314  0.22750  0.86013  1.0000
  C   C1172     1.0  0.60861  0.24737  0.86029  1.0000
  C   C1173     1.0  0.62067  0.25908  0.86765  1.0000
  C   C1174     1.0  0.63769  0.25116  0.87484  1.0000
  C   C1175     1.0  0.64217  0.23128  0.87482  1.0000
  C   C1176     1.0  0.62996  0.21954  0.86772  1.0000
  H   H2004     1.0  0.59567  0.25380  0.85452  1.0000
  H   H2005     1.0  0.61690  0.27428  0.86750  1.0000
  H   H2006     1.0  0.65520  0.22487  0.88041  1.0000
  H   H2007     1.0  0.63363  0.20432  0.86809  1.0000
  C   C1177     1.0  0.58719  0.09369  0.87691  1.0000
  C   C1178     1.0  0.58163  0.08217  0.89345  1.0000
  C   C1179     1.0  0.58342  0.06213  0.89366  1.0000
  C   C1180     1.0  0.59107  0.05344  0.87737  1.0000
  C   C1181     1.0  0.59681  0.06495  0.86090  1.0000
  C   C1182     1.0  0.59478  0.08499  0.86061  1.0000
  H   H2008     1.0  0.57568  0.08880  0.90610  1.0000
  H   H2009     1.0  0.57874  0.05346  0.90636  1.0000
  H   H2010     1.0  0.60277  0.05834  0.84824  1.0000
  H   H2011     1.0  0.59919  0.09368  0.84782  1.0000
  C   C1183     1.0  0.60812  0.15103  0.71034  1.0000
  C   C1184     1.0  0.51156  0.15927  0.81762  1.0000
  C   C1185     1.0  0.50909  0.14737  0.83445  1.0000
  H   H2012     1.0  0.61662  0.01634  0.90800  1.0000
  H   H2013     1.0  0.52027  0.14517  0.84394  1.0000
  C   C1186     1.0  0.57940  0.15000  0.68230  1.0000
  H   H2014     1.0  0.62347  0.05268  0.93958  1.0000
  H   H2015     1.0  0.58962  0.01120  0.97101  1.0000
  C   C1187     1.0  0.63116  0.11263  0.73751  1.0000
  C   C1188     1.0  0.61582  0.11185  0.75168  1.0000
  C   C1189     1.0  0.61408  0.12357  0.76687  1.0000
  C   C1190     1.0  0.62776  0.13620  0.76812  1.0000
  C   C1191     1.0  0.64305  0.13708  0.75388  1.0000
  C   C1192     1.0  0.64475  0.12540  0.73863  1.0000
  H   H2016     1.0  0.60522  0.10205  0.75095  1.0000
  H   H2017     1.0  0.60226  0.12272  0.77770  1.0000
  H   H2018     1.0  0.65374  0.14676  0.75469  1.0000
  H   H2019     1.0  0.65661  0.12619  0.72785  1.0000
  C   C1193     1.0  0.63283  0.47917  0.89573  1.0000
  H   H2020     1.0  0.50351  0.02760  0.87913  1.0000
  N   N83       1.0  0.64939  0.20100  0.79802  1.0000
  C   C1194     1.0  0.65515  0.19550  0.77803  1.0000
  C   C1195     1.0  0.62796  0.20362  0.80018  1.0000
  C   C1196     1.0  0.65611  0.18454  0.81167  1.0000
  C   C1197     1.0  0.65851  0.21883  0.80068  1.0000
  C   C1198     1.0  0.67650  0.18973  0.77312  1.0000
  C   C1199     1.0  0.61867  0.21926  0.78643  1.0000
  C   C1200     1.0  0.65160  0.18689  0.83304  1.0000
  C   C1201     1.0  0.64914  0.23111  0.81663  1.0000
  H   H2021     1.0  0.64735  0.18339  0.77496  1.0000
  H   H2022     1.0  0.65118  0.20743  0.76731  1.0000
  H   H2023     1.0  0.62214  0.20667  0.81471  1.0000
  H   H2024     1.0  0.65012  0.17124  0.80876  1.0000
  H   H2025     1.0  0.67181  0.18155  0.80977  1.0000
  H   H2026     1.0  0.67370  0.21521  0.80338  1.0000
  H   H2027     1.0  0.65871  0.22852  0.78730  1.0000
  H   H2028     1.0  0.68081  0.17531  0.77985  1.0000
  H   H2029     1.0  0.67918  0.18884  0.75751  1.0000
  H   H2030     1.0  0.68567  0.20025  0.77702  1.0000
  H   H2031     1.0  0.60334  0.22188  0.79133  1.0000
  H   H2032     1.0  0.63621  0.18975  0.83717  1.0000
  H   H2033     1.0  0.65963  0.19801  0.83765  1.0000
  H   H2034     1.0  0.65626  0.17330  0.84123  1.0000
  H   H2035     1.0  0.66038  0.23582  0.82448  1.0000
  H   H2036     1.0  0.63939  0.22392  0.82741  1.0000
  H   H2037     1.0  0.64146  0.24439  0.81048  1.0000
  C   C1202     1.0  0.54335  0.10427  0.84991  1.0000
  C   C1203     1.0  0.51749  0.08629  0.84119  1.0000
  C   C1204     1.0  0.53488  0.11255  0.86852  1.0000
  H   H2038     1.0  0.66125  0.45770  0.88448  1.0000
  H   H2039     1.0  0.51367  0.10030  0.83319  1.0000
  C   C1205     1.0  0.60324  0.13056  0.66222  1.0000
  H   H2040     1.0  0.51573  0.07550  0.83122  1.0000
  H   H2041     1.0  0.60666  0.04408  0.92549  1.0000
  H   H2042     1.0  0.53863  0.10327  0.88139  1.0000
  H   H2043     1.0  0.60990  0.21897  0.93496  1.0000
  H   H2044     1.0  0.65690  0.01162  0.88731  1.0000
  H   H2045     1.0  0.57495  0.46810  0.97071  1.0000
  H   H2046     1.0  0.67330  0.03344  0.89958  1.0000
  C   C1206     1.0  0.63151  0.02035  0.90660  1.0000
  Fe  Fe178     1.0  0.54980  0.99532  0.92833  1.0000
  H   H2047     1.0  0.60737  0.29351  0.93295  1.0000
  C   C1207     1.0  0.60942  0.26387  0.97081  1.0000
  H   H2048     1.0  0.62137  0.15519  0.71528  1.0000
  H   H2049     1.0  0.71338  0.38555  0.91875  1.0000
  H   H2050     1.0  0.60880  0.27887  0.96473  1.0000
  H   H2051     1.0  0.53640  0.09576  0.80688  1.0000
  H   H2052     1.0  0.63189  0.46401  0.90128  1.0000
  H   H2053     1.0  0.68209  0.45599  0.85448  1.0000
  H   H2054     1.0  0.65342  0.02669  0.68393  1.0000
  H   H2055     1.0  0.60874  0.36068  0.98350  1.0000
  H   H2056     1.0  0.63048  0.03587  0.90185  1.0000
  H   H2057     1.0  0.63847  0.48335  0.92451  1.0000
  C   C1208     1.0  0.64427  0.48767  0.90974  1.0000
  H   H2058     1.0  0.57488  0.17563  0.66257  1.0000
  H   H2059     1.0  0.61336  0.01096  0.94190  1.0000
  H   H2060     1.0  0.59753  0.17392  0.67198  1.0000
  C   C1209     1.0  0.74276  0.08262  0.68398  1.0000
  H   H2061     1.0  0.63192  0.47280  0.84851  1.0000
  H   H2062     1.0  0.65941  0.02904  0.94151  1.0000
  H   H2063     1.0  0.60769  0.41119  0.98953  1.0000
  C   C1210     1.0  0.55093  0.09164  0.81125  1.0000
  H   H2064     1.0  0.71442  0.35094  0.91418  1.0000
  C   C1211     1.0  0.61391  0.04140  0.93878  1.0000
  H   H2065     1.0  0.60237  0.14070  0.72164  1.0000
  H   H2066     1.0  0.60657  0.03200  0.67304  1.0000
  H   H2067     1.0  0.60024  0.25463  0.92057  1.0000
  H   H2068     1.0  0.74342  0.31662  0.82327  1.0000
  H   H2069     1.0  0.61522  0.11910  0.66259  1.0000
  H   H2070     1.0  0.59812  0.16406  0.70934  1.0000
  H   H2071     1.0  0.59535  0.26193  0.97877  1.0000
  C   C1212     1.0  0.68664  0.99645  0.66163  1.0000
  C   C1213     1.0  0.50175  0.46385  0.90848  1.0000
  C   C1214     1.0  0.62323  0.36269  0.95563  1.0000
  H   H2072     1.0  0.55920  0.08423  0.79955  1.0000
  H   H2073     1.0  0.68621  0.02973  0.92049  1.0000
  C   C1215     1.0  0.58252  0.17102  0.67544  1.0000
  H   H2074     1.0  0.61099  0.41661  0.96435  1.0000
  C   C1216     1.0  0.50468  0.00980  0.92543  1.0000
  H   H2075     1.0  0.66384  0.27080  0.95460  1.0000
  H   H2076     1.0  0.55806  0.10463  0.81252  1.0000
  C   C1217     1.0  0.51102  0.01795  0.90745  1.0000
  H   H2077     1.0  0.51938  0.11620  0.86867  1.0000
  H   H2078     1.0  0.73056  0.38636  0.85520  1.0000
  C   C1218     1.0  0.57334  0.10940  0.68929  1.0000
  H   H2079     1.0  0.53955  0.11519  0.83817  1.0000
  C   C1219     1.0  0.59875  0.28242  0.92936  1.0000
  H   H2080     1.0  0.61056  0.45292  0.88301  1.0000
  H   H2081     1.0  0.69183  0.37586  0.92788  1.0000
  N   N84       1.0  0.64066  0.48071  0.87507  1.0000
  H   H2082     1.0  0.57316  0.10709  0.67413  1.0000
  H   H2083     1.0  0.60261  0.46222  0.98989  1.0000
  C   C1220     1.0  0.49562  0.00422  0.99136  1.0000
  N   N85       1.0  0.62425  0.25461  0.93741  1.0000
  C   C1221     1.0  0.63406  0.23694  0.92906  1.0000
  S   S355      1.0  0.57921  0.48385  0.89303  1.0000
  C   C1222     1.0  0.61081  0.26429  0.92346  1.0000
  C   C1223     1.0  0.62102  0.22260  0.92345  1.0000
  C   C1224     1.0  0.65477  0.36871  0.98699  1.0000
  H   H2084     1.0  0.67117  0.47929  0.87628  1.0000
  H   H2085     1.0  0.64363  0.24081  0.91616  1.0000
  H   H2086     1.0  0.64350  0.22872  0.93920  1.0000
  C   C1225     1.0  0.64634  0.99553  0.92913  1.0000
  H   H2087     1.0  0.59988  0.24336  0.95394  1.0000
  H   H2088     1.0  0.61878  0.26807  0.90947  1.0000
  H   H2089     1.0  0.63723  0.39411  0.96010  1.0000
  H   H2090     1.0  0.60085  0.39505  0.97371  1.0000
  H   H2091     1.0  0.62436  0.13067  0.69304  1.0000
  H   H2092     1.0  0.66583  0.47206  0.84179  1.0000
  H   H2093     1.0  0.73871  0.30123  0.93713  1.0000
  H   H2094     1.0  0.61749  0.34988  0.95131  1.0000
  S   S356      1.0  0.69064  0.03426  0.66484  1.0000
  H   H2095     1.0  0.51487  0.45793  0.91418  1.0000
  H   H2096     1.0  0.61515  0.44638  0.85925  1.0000
  C   C1226     1.0  0.66689  0.46154  0.85432  1.0000
  H   H2097     1.0  0.58974  0.11930  0.70917  1.0000
  H   H2098     1.0  0.70804  0.38040  0.94429  1.0000
  H   H2099     1.0  0.61982  0.26162  0.98174  1.0000
  H   H2100     1.0  0.65955  0.48245  0.90838  1.0000
  H   H2101     1.0  0.64993  0.25229  0.96553  1.0000
  C   C1227     1.0  0.67414  0.02521  0.91370  1.0000
  C   C1228     1.0  0.55978  0.48842  0.98873  1.0000
  C   C1229     1.0  0.62673  0.47289  0.86378  1.0000
  H   H2102     1.0  0.66846  0.99700  0.94872  1.0000
  C   C1230     1.0  0.68283  0.31583  0.97786  1.0000
  N   N86       1.0  0.53780  0.08495  0.84639  1.0000
  Fe  Fe179     1.0  0.67625  0.06402  0.66876  1.0000
  H   H2103     1.0  0.53132  0.07451  0.87606  1.0000
  H   H2104     1.0  0.62189  0.23642  0.96374  1.0000
  H   H2105     1.0  0.59084  0.28881  0.91715  1.0000
  H   H2106     1.0  0.61442  0.22788  0.91013  1.0000
  C   C1231     1.0  0.66020  0.47000  0.87340  1.0000
  N   N87       1.0  0.59672  0.13581  0.68213  1.0000
  H   H2107     1.0  0.60353  0.10608  0.69207  1.0000
  H   H2108     1.0  0.66324  0.35376  0.96133  1.0000
  H   H2109     1.0  0.68195  0.36341  0.97081  1.0000
  H   H2110     1.0  0.62039  0.15348  0.68156  1.0000
  H   H2111     1.0  0.55909  0.10387  0.84995  1.0000
  C   C1232     1.0  0.71633  0.35489  0.92866  1.0000
  N   N88       1.0  0.63994  0.01646  0.92554  1.0000
  C   C1233     1.0  0.65563  0.02905  0.92662  1.0000
  H   H2112     1.0  0.60262  0.04276  0.95074  1.0000
  C   C1234     1.0  0.70716  0.37545  0.93007  1.0000
  H   H2113     1.0  0.62503  0.23297  0.78599  1.0000
  C   C1235     1.0  0.55090  0.07819  0.82979  1.0000
  C   C1236     1.0  0.54129  0.07110  0.86353  1.0000
  H   H2114     1.0  0.63362  0.28121  0.94479  1.0000
  Fe  Fe180     1.0  0.54821  0.48715  0.90426  1.0000
  C   C1237     1.0  0.65546  0.25914  0.95165  1.0000
  H   H2115     1.0  0.66579  0.37929  0.95782  1.0000
  C   C1238     1.0  0.64156  0.00987  0.88977  1.0000
  H   H2116     1.0  0.55353  0.04394  0.85295  1.0000
  H   H2117     1.0  0.61935  0.21462  0.77185  1.0000
  C   C1239     1.0  0.63948  0.26759  0.93920  1.0000
  H   H2118     1.0  0.52785  0.04755  0.85327  1.0000
  H   H2119     1.0  0.63508  0.01578  0.87653  1.0000
  H   H2120     1.0  0.54717  0.06426  0.82590  1.0000
  C   C1240     1.0  0.59166  0.11757  0.69369  1.0000
  N   N89       1.0  0.73703  0.35150  0.93235  1.0000
  H   H2121     1.0  0.56588  0.07565  0.83364  1.0000
  C   C1241     1.0  0.66679  0.36636  0.96793  1.0000
  S   S357      1.0  0.58836  0.48822  0.93649  1.0000
  C   C1242     1.0  0.61307  0.14258  0.69097  1.0000
  C   C1243     1.0  0.54026  0.04988  0.86080  1.0000
  H   H2122     1.0  0.55560  0.07233  0.86809  1.0000
  H   H2123     1.0  0.62992  0.01969  0.95522  1.0000
  H   H2124     1.0  0.52560  0.02129  0.90454  1.0000
  C   C1244     1.0  0.62439  0.02120  0.94095  1.0000
  C   C1245     1.0  0.73499  0.34048  0.87516  1.0000
  C   C1246     1.0  0.61163  0.40474  0.97585  1.0000
  C   C1247     1.0  0.73746  0.37266  0.86006  1.0000
  S   S358      1.0  0.52072  0.00298  0.94255  1.0000
  H   H2125     1.0  0.70727  0.34561  0.93837  1.0000
  H   H2126     1.0  0.63732  0.36363  0.94766  1.0000
  H   H2127     1.0  0.61315  0.48231  0.86389  1.0000
  H   H2128     1.0  0.71477  0.34541  0.96675  1.0000
  N   N90       1.0  0.63392  0.37515  0.98605  1.0000
  H   H2129     1.0  0.73597  0.34111  0.82567  1.0000
  C   C1248     1.0  0.59545  0.00398  0.98358  1.0000
  H   H2130     1.0  0.49842  0.17188  0.79266  1.0000
  H   H2131     1.0  0.72733  0.35823  0.98047  1.0000
  C   C1249     1.0  0.63198  0.39463  0.97530  1.0000
  C   C1250     1.0  0.73093  0.31552  0.93855  1.0000
  C   C1251     1.0  0.72931  0.34818  0.96919  1.0000
  C   C1252     1.0  0.67820  0.01350  0.66867  1.0000
  H   H2132     1.0  0.73956  0.36983  0.79604  1.0000
  Fe  Fe181     1.0  0.55683  0.49107  0.94380  1.0000
  S   S359      1.0  0.65706  0.11765  0.66806  1.0000
  H   H2133     1.0  0.72633  0.31633  0.95380  1.0000
  C   C1253     1.0  0.65002  0.99733  0.67999  1.0000
  H   H2134     1.0  0.50950  0.46461  0.98749  1.0000
  H   H2135     1.0  0.56882  0.14557  0.67338  1.0000
  H   H2136     1.0  0.57640  0.18046  0.68657  1.0000
  H   H2137     1.0  0.61361  0.37517  0.95077  1.0000
  H   H2138     1.0  0.50222  0.06846  0.86390  1.0000
  H   H2139     1.0  0.64107  0.40438  0.98089  1.0000
  H   H2140     1.0  0.74010  0.05305  0.68520  1.0000
  C   C1254     1.0  0.74069  0.35724  0.95151  1.0000
  C   C1255     1.0  0.49850  0.02173  0.89319  1.0000
  H   H2141     1.0  0.49355  0.00449  0.97599  1.0000
  H   H2142     1.0  0.52650  0.00198  0.98974  1.0000
  H   H2143     1.0  0.72709  0.08541  0.68401  1.0000
  H   H2144     1.0  0.63583  0.99773  0.68719  1.0000
  H   H2145     1.0  0.50202  0.09295  0.86896  1.0000
  C   C1256     1.0  0.50171  0.08346  0.85757  1.0000
  C   C1257     1.0  0.49663  0.16269  0.80572  1.0000
  H   H2146     1.0  0.49675  0.19952  0.83644  1.0000
  C   C1258     1.0  0.60853  0.02622  0.65889  1.0000
  H   H2147     1.0  0.73877  0.37301  0.95197  1.0000
  H   H2148     1.0  0.63930  0.99448  0.89162  1.0000
  S   S360      1.0  0.71417  0.12191  0.66320  1.0000
  Fe  Fe182     1.0  0.68775  0.10519  0.66423  1.0000
  H   H2149     1.0  0.61265  0.01072  0.66135  1.0000
  C   C1259     1.0  0.62385  0.36063  0.97750  1.0000
  H   H2150     1.0  0.63026  0.34595  0.98144  1.0000
  H   H2151     1.0  0.60450  0.88529  0.20169  1.0000
  S   S361      1.0  0.68680  0.89550  0.30906  1.0000
  Fe  Fe183     1.0  0.65648  0.88967  0.30683  1.0000
  S   S362      1.0  0.64466  0.88537  0.27870  1.0000
  Fe  Fe184     1.0  0.60493  0.82110  0.20665  1.0000
  S   S363      1.0  0.61946  0.83208  0.17858  1.0000
  S   S364      1.0  0.61814  0.81896  0.23521  1.0000
  Fe  Fe185     1.0  0.56971  0.81201  0.18752  1.0000
  S   S365      1.0  0.58185  0.82298  0.15858  1.0000
  S   S366      1.0  0.54246  0.79688  0.19110  1.0000
  Fe  Fe186     1.0  0.60941  0.80657  0.16656  1.0000
  S   S367      1.0  0.62644  0.78836  0.14429  1.0000
  Fe  Fe187     1.0  0.59064  0.84711  0.17317  1.0000
  S   S368      1.0  0.58288  0.87904  0.16694  1.0000
  S   S369      1.0  0.59688  0.79465  0.19497  1.0000
  S   S370      1.0  0.57659  0.83708  0.20186  1.0000
  H   H2152     1.0  0.51793  0.96732  0.05712  1.0000
  H   H2153     1.0  0.67814  0.56524  0.15511  1.0000
  C   C1260     1.0  0.69239  0.72348  0.15140  1.0000
  Fe  Fe188     1.0  0.57223  0.50608  0.07940  1.0000
  S   S371      1.0  0.54237  0.52046  0.07657  1.0000
  N   N91       1.0  0.57972  0.88121  0.30807  1.0000
  Fe  Fe189     1.0  0.60343  0.96941  0.09774  1.0000
  S   S372      1.0  0.61552  0.93839  0.10162  1.0000
  S   S373      1.0  0.58128  0.97792  0.07703  1.0000
  Fe  Fe190     1.0  0.66040  0.67690  0.11927  1.0000
  S   S374      1.0  0.68304  0.67929  0.09463  1.0000
  S   S375      1.0  0.64977  0.69830  0.14150  1.0000
  Fe  Fe191     1.0  0.65611  0.63485  0.11252  1.0000
  S   S376      1.0  0.67827  0.63447  0.08775  1.0000
  S   S377      1.0  0.63978  0.60950  0.12377  1.0000
  Fe  Fe192     1.0  0.69506  0.64989  0.10584  1.0000
  S   S378      1.0  0.72703  0.64142  0.10611  1.0000
  Fe  Fe193     1.0  0.66442  0.66341  0.07873  1.0000
  S   S379      1.0  0.65385  0.67192  0.04949  1.0000
  S   S380      1.0  0.67371  0.64834  0.13128  1.0000
  S   S381      1.0  0.64102  0.66295  0.10272  1.0000
  Fe  Fe194     1.0  0.61344  0.51651  0.07934  1.0000
  S   S382      1.0  0.63499  0.53877  0.07606  1.0000
  S   S383      1.0  0.59296  0.51905  0.05691  1.0000
  C   C1261     1.0  0.56118  0.93215  0.09144  1.0000
  H   H2154     1.0  0.55936  0.91419  0.13113  1.0000
  C   C1262     1.0  0.52633  0.98259  0.07938  1.0000
  C   C1263     1.0  0.61482  0.52925  0.00870  1.0000
  C   C1264     1.0  0.50424  0.51776  0.07717  1.0000
  H   H2155     1.0  0.60931  0.90650  0.18733  1.0000
  C   C1265     1.0  0.63026  0.88197  0.18276  1.0000
  H   H2156     1.0  0.71823  0.63071  0.14699  1.0000
  H   H2157     1.0  0.63246  0.93785  0.15551  1.0000
  H   H2158     1.0  0.73254  0.81117  0.31604  1.0000
  C   C1266     1.0  0.66211  0.66238  0.02761  1.0000
  C   C1267     1.0  0.74078  0.62994  0.12438  1.0000
  C   C1268     1.0  0.67821  0.64933  0.02583  1.0000
  H   H2159     1.0  0.67364  0.85388  0.29736  1.0000
  H   H2160     1.0  0.68623  0.64504  0.03799  1.0000
  C   C1269     1.0  0.63815  0.59020  0.11012  1.0000
  C   C1270     1.0  0.62452  0.57724  0.11601  1.0000
  C   C1271     1.0  0.62314  0.56148  0.10567  1.0000
  C   C1272     1.0  0.63569  0.55839  0.08955  1.0000
  C   C1273     1.0  0.64945  0.57124  0.08381  1.0000
  C   C1274     1.0  0.65055  0.58720  0.09389  1.0000
  H   H2161     1.0  0.61490  0.57941  0.12860  1.0000
  H   H2162     1.0  0.61252  0.55164  0.11027  1.0000
  H   H2163     1.0  0.65930  0.56884  0.07144  1.0000
  H   H2164     1.0  0.66110  0.59703  0.08917  1.0000
  H   H2165     1.0  0.61603  0.62915  0.09148  1.0000
  H   H2166     1.0  0.70542  0.80695  0.29773  1.0000
  H   H2167     1.0  0.71711  0.58062  0.09543  1.0000
  H   H2168     1.0  0.54993  0.88725  0.30346  1.0000
  C   C1275     1.0  0.65755  0.66030  0.99408  1.0000
  H   H2169     1.0  0.56323  0.91657  0.09527  1.0000
  C   C1276     1.0  0.63864  0.92778  0.16683  1.0000
  C   C1277     1.0  0.64241  0.90776  0.15956  1.0000
  C   C1278     1.0  0.63242  0.76319  0.14377  1.0000
  C   C1279     1.0  0.62980  0.75030  0.15991  1.0000
  C   C1280     1.0  0.63501  0.73058  0.15883  1.0000
  C   C1281     1.0  0.64272  0.72332  0.14160  1.0000
  C   C1282     1.0  0.64516  0.73618  0.12541  1.0000
  C   C1283     1.0  0.64016  0.75594  0.12655  1.0000
  H   H2170     1.0  0.62401  0.75556  0.17330  1.0000
  H   H2171     1.0  0.63314  0.72086  0.17150  1.0000
  H   H2172     1.0  0.65109  0.73095  0.11205  1.0000
  H   H2173     1.0  0.64227  0.76570  0.11394  1.0000
  C   C1284     1.0  0.52006  0.80698  0.18384  1.0000
  H   H2174     1.0  0.57389  0.76404  0.18996  1.0000
  C   C1285     1.0  0.55938  0.49694  0.00577  1.0000
  C   C1286     1.0  0.52030  0.99127  0.09614  1.0000
  C   C1287     1.0  0.51705  0.82618  0.17708  1.0000
  H   H2175     1.0  0.67169  0.90427  0.18141  1.0000
  C   C1288     1.0  0.72952  0.69385  0.10486  1.0000
  H   H2176     1.0  0.52860  0.83521  0.17606  1.0000
  C   C1289     1.0  0.60665  0.92196  0.11999  1.0000
  C   C1290     1.0  0.61020  0.90230  0.11812  1.0000
  C   C1291     1.0  0.60323  0.88884  0.13245  1.0000
  C   C1292     1.0  0.59278  0.89503  0.14883  1.0000
  C   C1293     1.0  0.58972  0.91465  0.15093  1.0000
  C   C1294     1.0  0.59657  0.92807  0.13658  1.0000
  H   H2177     1.0  0.61813  0.89746  0.10538  1.0000
  H   H2178     1.0  0.60569  0.87376  0.13069  1.0000
  H   H2179     1.0  0.58190  0.91948  0.16372  1.0000
  H   H2180     1.0  0.59414  0.94315  0.13837  1.0000
  C   C1295     1.0  0.63720  0.86658  0.26717  1.0000
  C   C1296     1.0  0.63698  0.84791  0.27569  1.0000
  C   C1297     1.0  0.63114  0.83351  0.26573  1.0000
  C   C1298     1.0  0.62512  0.83765  0.24728  1.0000
  C   C1299     1.0  0.62502  0.85640  0.23894  1.0000
  C   C1300     1.0  0.63113  0.87072  0.24878  1.0000
  H   H2181     1.0  0.64118  0.84461  0.28996  1.0000
  H   H2182     1.0  0.63111  0.81908  0.27237  1.0000
  H   H2183     1.0  0.62023  0.85978  0.22490  1.0000
  H   H2184     1.0  0.63102  0.88516  0.24216  1.0000
  H   H2185     1.0  0.62412  0.52030  0.01847  1.0000
  C   C1301     1.0  0.61784  0.63621  0.03422  1.0000
  H   H2186     1.0  0.51789  0.94938  0.10171  1.0000
  H   H2187     1.0  0.61910  0.60199  0.07260  1.0000
  N   N92       1.0  0.56688  0.75205  0.15475  1.0000
  C   C1302     1.0  0.57526  0.74040  0.17147  1.0000
  C   C1303     1.0  0.57054  0.74005  0.13807  1.0000
  C   C1304     1.0  0.54571  0.75544  0.15969  1.0000
  C   C1305     1.0  0.57592  0.77068  0.15131  1.0000
  C   C1306     1.0  0.57126  0.74883  0.19089  1.0000
  C   C1307     1.0  0.59166  0.73433  0.13196  1.0000
  C   C1308     1.0  0.57590  0.78109  0.13101  1.0000
  H   H2188     1.0  0.57020  0.72586  0.17339  1.0000
  H   H2189     1.0  0.59103  0.73819  0.16892  1.0000
  H   H2190     1.0  0.56410  0.74700  0.12528  1.0000
  H   H2191     1.0  0.56346  0.72659  0.14131  1.0000
  H   H2192     1.0  0.54251  0.76295  0.17281  1.0000
  H   H2193     1.0  0.56911  0.78091  0.16146  1.0000
  H   H2194     1.0  0.59110  0.76842  0.15441  1.0000
  H   H2195     1.0  0.55650  0.74713  0.19716  1.0000
  H   H2196     1.0  0.66853  0.58045  0.13673  1.0000
  H   H2197     1.0  0.57661  0.90065  0.28275  1.0000
  H   H2198     1.0  0.59287  0.72827  0.11798  1.0000
  H   H2199     1.0  0.60035  0.74662  0.13033  1.0000
  H   H2200     1.0  0.59792  0.72306  0.14215  1.0000
  H   H2201     1.0  0.57288  0.79664  0.13214  1.0000
  H   H2202     1.0  0.56522  0.77718  0.12216  1.0000
  H   H2203     1.0  0.59029  0.77936  0.12329  1.0000
  H   H2204     1.0  0.50451  0.91309  0.12411  1.0000
  C   C1309     1.0  0.50482  0.79548  0.18515  1.0000
  H   H2205     1.0  0.53938  0.91693  0.16101  1.0000
  H   H2206     1.0  0.66163  0.59563  0.16548  1.0000
  C   C1310     1.0  0.53458  0.90921  0.14976  1.0000
  N   N93       1.0  0.69905  0.83665  0.28747  1.0000
  C   C1311     1.0  0.52107  0.51035  0.08514  1.0000
  H   H2207     1.0  0.61767  0.64592  0.07100  1.0000
  C   C1312     1.0  0.59136  0.84495  0.31199  1.0000
  H   H2208     1.0  0.57454  0.49992  0.02997  1.0000
  C   C1313     1.0  0.61502  0.61617  0.06512  1.0000
  C   C1314     1.0  0.49891  0.83383  0.17206  1.0000
  C   C1315     1.0  0.52036  0.49552  0.09970  1.0000
  C   C1316     1.0  0.68403  0.64196  0.00818  1.0000
  C   C1317     1.0  0.61276  0.60234  0.03531  1.0000
  H   H2209     1.0  0.69653  0.63194  0.00691  1.0000
  H   H2210     1.0  0.63944  0.67798  0.01286  1.0000
  H   H2211     1.0  0.61541  0.57173  0.03223  1.0000
  C   C1318     1.0  0.68915  0.83023  0.27166  1.0000
  H   H2212     1.0  0.68667  0.71511  0.16439  1.0000
  H   H2213     1.0  0.69868  0.60779  0.12505  1.0000
  H   H2214     1.0  0.59705  0.60546  0.03709  1.0000
  H   H2215     1.0  0.65065  0.62485  0.04650  1.0000
  H   H2216     1.0  0.59920  0.61766  0.06692  1.0000
  H   H2217     1.0  0.68153  0.81745  0.27673  1.0000
  H   H2218     1.0  0.65212  0.93322  0.16971  1.0000
  H   H2219     1.0  0.50471  0.52920  0.06587  1.0000
  C   C1319     1.0  0.68424  0.84265  0.30303  1.0000
  H   H2220     1.0  0.72401  0.57050  0.17478  1.0000
  H   H2221     1.0  0.70382  0.72031  0.12273  1.0000
  C   C1320     1.0  0.58558  0.88753  0.28754  1.0000
  H   H2222     1.0  0.52435  0.96303  0.12933  1.0000
  H   H2223     1.0  0.58303  0.84333  0.30000  1.0000
  H   H2224     1.0  0.62621  0.64692  0.03920  1.0000
  H   H2225     1.0  0.72756  0.55179  0.15883  1.0000
  S   S384      1.0  0.62148  0.99323  0.08623  1.0000
  H   H2226     1.0  0.68998  0.70182  0.13256  1.0000
  C   C1321     1.0  0.66009  0.87630  0.16314  1.0000
  C   C1322     1.0  0.65186  0.86966  0.14573  1.0000
  H   H2227     1.0  0.67411  0.88167  0.15797  1.0000
  H   H2228     1.0  0.66325  0.86310  0.17263  1.0000
  H   H2229     1.0  0.63902  0.86196  0.14986  1.0000
  H   H2230     1.0  0.64857  0.88151  0.13477  1.0000
  H   H2231     1.0  0.66260  0.85941  0.13878  1.0000
  H   H2232     1.0  0.72341  0.84859  0.27169  1.0000
  H   H2233     1.0  0.60267  0.91432  0.30436  1.0000
  H   H2234     1.0  0.69305  0.82140  0.24295  1.0000
  H   H2235     1.0  0.53930  0.89389  0.15317  1.0000
  H   H2236     1.0  0.49974  0.55942  0.09768  1.0000
  C   C1323     1.0  0.69971  0.86981  0.26847  1.0000
  C   C1324     1.0  0.61651  0.58134  0.04345  1.0000
  H   H2237     1.0  0.49938  0.96020  0.00454  1.0000
  H   H2238     1.0  0.64900  0.59347  0.01958  1.0000
  H   H2239     1.0  0.64936  0.61859  0.01170  1.0000
  H   H2240     1.0  0.58879  0.87999  0.25842  1.0000
  C   C1325     1.0  0.73306  0.62644  0.14319  1.0000
  C   C1326     1.0  0.72203  0.82350  0.31279  1.0000
  C   C1327     1.0  0.68037  0.57876  0.14612  1.0000
  H   H2241     1.0  0.60866  0.86865  0.31030  1.0000
  H   H2242     1.0  0.51694  0.98676  0.00853  1.0000
  H   H2243     1.0  0.68581  0.59299  0.17112  1.0000
  C   C1328     1.0  0.71540  0.57947  0.14634  1.0000
  H   H2244     1.0  0.54112  0.98180  0.07401  1.0000
  H   H2245     1.0  0.71446  0.59379  0.15169  1.0000
  H   H2246     1.0  0.60561  0.83735  0.30871  1.0000
  S   S385      1.0  0.59213  0.50548  0.10262  1.0000
  H   H2247     1.0  0.68413  0.87128  0.27180  1.0000
  H   H2248     1.0  0.67844  0.60921  0.15120  1.0000
  H   H2249     1.0  0.58087  0.74101  0.20107  1.0000
  H   H2250     1.0  0.59570  0.65879  0.02818  1.0000
  C   C1329     1.0  0.52140  0.93503  0.10902  1.0000
  C   C1330     1.0  0.70254  0.55860  0.12626  1.0000
  H   H2251     1.0  0.63783  0.62927  0.07667  1.0000
  N   N94       1.0  0.69935  0.57764  0.13442  1.0000
  H   H2252     1.0  0.64814  0.60070  0.05348  1.0000
  H   H2253     1.0  0.59547  0.86066  0.27494  1.0000
  H   H2254     1.0  0.62193  0.87781  0.17167  1.0000
  H   H2255     1.0  0.62273  0.89856  0.20776  1.0000
  C   C1331     1.0  0.53111  0.94948  0.13611  1.0000
  C   C1332     1.0  0.69904  0.59386  0.11892  1.0000
  H   H2256     1.0  0.71171  0.81167  0.25710  1.0000
  C   C1333     1.0  0.67278  0.82669  0.31349  1.0000
  C   C1334     1.0  0.68817  0.55498  0.11232  1.0000
  H   H2257     1.0  0.67346  0.55500  0.11929  1.0000
  C   C1335     1.0  0.65291  0.60737  0.02317  1.0000
  H   H2258     1.0  0.72967  0.59460  0.10936  1.0000
  C   C1336     1.0  0.70120  0.71060  0.13586  1.0000
  H   H2259     1.0  0.55827  0.86324  0.30174  1.0000
  H   H2260     1.0  0.55521  0.96583  0.13876  1.0000
  H   H2261     1.0  0.73850  0.61460  0.17167  1.0000
  C   C1337     1.0  0.50272  0.92841  0.11909  1.0000
  H   H2262     1.0  0.53800  0.78264  0.14327  1.0000
  C   C1338     1.0  0.55383  0.94337  0.10872  1.0000
  C   C1339     1.0  0.65906  0.89742  0.18853  1.0000
  C   C1340     1.0  0.59387  0.86569  0.31579  1.0000
  H   H2263     1.0  0.70188  0.54679  0.13786  1.0000
  H   H2264     1.0  0.61904  0.96213  0.99927  1.0000
  H   H2265     1.0  0.69196  0.54064  0.10717  1.0000
  C   C1341     1.0  0.59682  0.64437  0.03600  1.0000
  C   C1342     1.0  0.51318  0.97443  0.06980  1.0000
  H   H2266     1.0  0.55162  0.93531  0.07982  1.0000
  C   C1343     1.0  0.70212  0.82471  0.25389  1.0000
  C   C1344     1.0  0.71257  0.82037  0.29478  1.0000
  H   H2267     1.0  0.62974  0.90515  0.15252  1.0000
  H   H2268     1.0  0.55006  0.95843  0.10327  1.0000
  H   H2269     1.0  0.51891  0.76834  0.15011  1.0000
  H   H2270     1.0  0.67788  0.84126  0.26689  1.0000
  H   H2271     1.0  0.67726  0.87131  0.19701  1.0000
  H   H2272     1.0  0.68650  0.99034  0.29800  1.0000
  H   H2273     1.0  0.68580  0.59483  0.11154  1.0000
  N   N95       1.0  0.53743  0.93561  0.12136  1.0000
  H   H2274     1.0  0.54769  0.50717  0.00984  1.0000
  H   H2275     1.0  0.61719  0.54425  0.01013  1.0000
  C   C1345     1.0  0.61192  0.97636  0.99958  1.0000
  H   H2276     1.0  0.71713  0.55643  0.11899  1.0000
  C   C1346     1.0  0.72389  0.68466  0.12506  1.0000
  H   H2277     1.0  0.71389  0.60592  0.09291  1.0000
  H   H2278     1.0  0.56634  0.94377  0.11686  1.0000
  H   H2279     1.0  0.66862  0.60602  0.02343  1.0000
  C   C1347     1.0  0.54380  0.91581  0.12985  1.0000
  C   C1348     1.0  0.71027  0.85340  0.28051  1.0000
  H   H2280     1.0  0.53930  0.74160  0.16285  1.0000
  H   H2281     1.0  0.54167  0.90490  0.12015  1.0000
  H   H2282     1.0  0.65392  0.90936  0.14776  1.0000
  H   H2283     1.0  0.65077  0.90852  0.19674  1.0000
  H   H2284     1.0  0.57530  0.93667  0.08558  1.0000
  H   H2285     1.0  0.72989  0.83642  0.31095  1.0000
  H   H2286     1.0  0.50697  0.78063  0.19042  1.0000
  S   S386      1.0  0.64500  0.91741  0.31823  1.0000
  C   C1349     1.0  0.54692  0.95501  0.14736  1.0000
  C   C1350     1.0  0.61616  0.89406  0.19560  1.0000
  H   H2287     1.0  0.71058  0.83637  0.24738  1.0000
  C   C1351     1.0  0.65187  0.66784  0.01164  1.0000
  H   H2288     1.0  0.70327  0.86852  0.25303  1.0000
  H   H2289     1.0  0.70487  0.88355  0.27109  1.0000
  C   C1352     1.0  0.71642  0.68684  0.15933  1.0000
  Fe  Fe195     1.0  0.67479  0.92211  0.32275  1.0000
  C   C1353     1.0  0.67663  0.59517  0.15916  1.0000
  H   H2290     1.0  0.71778  0.70362  0.09922  1.0000
  C   C1354     1.0  0.69971  0.67420  0.16195  1.0000
  H   H2291     1.0  0.51988  0.94410  0.14668  1.0000
  H   H2292     1.0  0.70430  0.55904  0.16978  1.0000
  H   H2293     1.0  0.60008  0.52634  0.01389  1.0000
  S   S387      1.0  0.68531  0.95087  0.31179  1.0000
  H   H2294     1.0  0.63097  0.57779  0.04808  1.0000
  N   N96       1.0  0.71909  0.69824  0.14028  1.0000
  H   H2295     1.0  0.73571  0.72129  0.12800  1.0000
  H   H2296     1.0  0.71453  0.69638  0.17109  1.0000
  C   C1355     1.0  0.55964  0.87551  0.30986  1.0000
  H   H2297     1.0  0.54043  0.96166  0.16031  1.0000
  N   N97       1.0  0.62230  0.61676  0.04439  1.0000
  C   C1356     1.0  0.58484  0.87305  0.27283  1.0000
  H   H2298     1.0  0.71519  0.85977  0.29273  1.0000
  H   H2299     1.0  0.62226  0.63618  0.01872  1.0000
  H   H2300     1.0  0.58756  0.63568  0.02941  1.0000
  H   H2301     1.0  0.61608  0.60333  0.01957  1.0000
  H   H2302     1.0  0.60611  0.57781  0.05577  1.0000
  H   H2303     1.0  0.68577  0.68252  0.16042  1.0000
  H   H2304     1.0  0.69904  0.66679  0.17653  1.0000
  H   H2305     1.0  0.70170  0.66303  0.15189  1.0000
  C   C1357     1.0  0.53423  0.76769  0.14486  1.0000
  H   H2306     1.0  0.70243  0.73321  0.15516  1.0000
  H   H2307     1.0  0.52556  0.92540  0.09754  1.0000
  N   N98       1.0  0.64767  0.89111  0.17378  1.0000
  C   C1358     1.0  0.64363  0.61246  0.04286  1.0000
  H   H2308     1.0  0.56853  0.90981  0.31458  1.0000
  C   C1359     1.0  0.61017  0.98547  0.01656  1.0000
  C   C1360     1.0  0.62216  0.63110  0.07645  1.0000
  H   H2309     1.0  0.67332  0.88842  0.21412  1.0000
  H   H2310     1.0  0.63435  0.86840  0.19129  1.0000
  C   C1361     1.0  0.59842  0.90737  0.31865  1.0000
  C   C1362     1.0  0.66636  0.88170  0.20344  1.0000
  C   C1363     1.0  0.68109  0.98983  0.31285  1.0000
  H   H2311     1.0  0.53558  0.76167  0.13091  1.0000
  H   H2312     1.0  0.65469  0.87415  0.21140  1.0000
  H   H2313     1.0  0.68839  0.56540  0.09959  1.0000
  H   H2314     1.0  0.62855  0.92839  0.17970  1.0000
  H   H2315     1.0  0.55669  0.94257  0.15183  1.0000
  H   H2316     1.0  0.73190  0.71979  0.15308  1.0000
  C   C1364     1.0  0.49396  0.97538  0.07675  1.0000
  H   H2317     1.0  0.51372  0.51562  0.03054  1.0000
  H   H2318     1.0  0.51887  0.91059  0.15072  1.0000
  C   C1365     1.0  0.71599  0.59338  0.10347  1.0000
  H   H2319     1.0  0.73546  0.67356  0.12896  1.0000
  H   H2320     1.0  0.60051  0.89141  0.28580  1.0000
  H   H2321     1.0  0.49668  0.84879  0.16723  1.0000
  H   H2322     1.0  0.59132  0.64623  0.05095  1.0000
  H   H2323     1.0  0.72446  0.81718  0.28376  1.0000
  C   C1366     1.0  0.50103  0.99257  0.10274  1.0000
  H   H2324     1.0  0.71156  0.67656  0.12366  1.0000
  H   H2325     1.0  0.73264  0.68240  0.09504  1.0000
  C   C1367     1.0  0.71785  0.56420  0.16327  1.0000
  H   H2326     1.0  0.69076  0.84944  0.31398  1.0000
  H   H2327     1.0  0.50861  0.50849  0.00781  1.0000
  H   H2328     1.0  0.57047  0.86838  0.27241  1.0000
  H   H2329     1.0  0.72929  0.57866  0.13755  1.0000
  H   H2330     1.0  0.61600  0.97827  0.02916  1.0000
  H   H2331     1.0  0.61107  0.96930  0.32533  1.0000
  C   C1368     1.0  0.57946  0.89833  0.31930  1.0000
  C   C1369     1.0  0.50259  0.51113  0.02245  1.0000
  H   H2332     1.0  0.72931  0.67698  0.16198  1.0000
  H   H2333     1.0  0.49681  0.93711  0.13082  1.0000
  H   H2334     1.0  0.68015  0.73267  0.14590  1.0000
  H   H2335     1.0  0.66413  0.82048  0.30392  1.0000
  H   H2336     1.0  0.49817  0.86966  0.13373  1.0000
  S   S388      1.0  0.58825  0.98581  0.12106  1.0000
  H   H2337     1.0  0.68190  0.81520  0.32081  1.0000
  C   C1370     1.0  0.73485  0.71090  0.14086  1.0000
  H   H2338     1.0  0.58962  0.55836  0.99759  1.0000
  C   C1371     1.0  0.51489  0.99250  0.99374  1.0000
  C   C1372     1.0  0.67872  0.97206  0.32314  1.0000
  C   C1373     1.0  0.67369  0.64734  0.99225  1.0000
  H   H2339     1.0  0.66268  0.83286  0.32474  1.0000
  H   H2340     1.0  0.74255  0.70137  0.10412  1.0000
  H   H2341     1.0  0.61001  0.89685  0.32344  1.0000
  H   H2342     1.0  0.58507  0.83707  0.32506  1.0000
  S   S389      1.0  0.66117  0.91871  0.64021  1.0000
  H   H2343     1.0  0.49912  0.96410  0.47166  1.0000
  S   S390      1.0  0.62254  0.88778  0.62814  1.0000
  H   H2344     1.0  0.52682  0.85474  0.49100  1.0000
  H   H2345     1.0  0.52096  0.86692  0.42399  1.0000
  Fe  Fe196     1.0  0.51518  0.91224  0.59642  1.0000
  S   S391      1.0  0.51457  0.92912  0.56795  1.0000
  S   S392      1.0  0.53553  0.91696  0.61829  1.0000
  H   H2346     1.0  0.71774  0.85405  0.65067  1.0000
  C   C1374     1.0  0.53482  0.96837  0.64844  1.0000
  S   S393      1.0  0.50418  0.91874  0.37059  1.0000
  C   C1375     1.0  0.68617  0.88953  0.59488  1.0000
  H   H2347     1.0  0.73131  0.98944  0.35251  1.0000
  C   C1376     1.0  0.54619  0.96771  0.62881  1.0000
  Fe  Fe197     1.0  0.64405  0.90132  0.34706  1.0000
  S   S394      1.0  0.61807  0.91080  0.36640  1.0000
  H   H2348     1.0  0.54855  0.88406  0.42199  1.0000
  H   H2349     1.0  0.52932  0.90480  0.48844  1.0000
  C   C1377     1.0  0.52442  0.95059  0.50768  1.0000
  H   H2350     1.0  0.72916  0.88634  0.35736  1.0000
  S   S395      1.0  0.67351  0.90774  0.35255  1.0000
  H   H2351     1.0  0.59912  0.98810  0.39319  1.0000
  H   H2352     1.0  0.61555  0.95176  0.35749  1.0000
  C   C1378     1.0  0.72894  0.85679  0.63952  1.0000
  H   H2353     1.0  0.55360  0.84218  0.45699  1.0000
  H   H2354     1.0  0.69958  0.88361  0.58735  1.0000
  C   C1379     1.0  0.72943  0.87505  0.62999  1.0000
  H   H2355     1.0  0.52003  0.87924  0.44448  1.0000
  Fe  Fe198     1.0  0.51413  0.89471  0.39123  1.0000
  S   S396      1.0  0.53927  0.87379  0.38281  1.0000
  S   S397      1.0  0.51592  0.91301  0.41497  1.0000
  C   C1380     1.0  0.52407  0.83210  0.43791  1.0000
  C   C1381     1.0  0.51933  0.97082  0.60839  1.0000
  C   C1382     1.0  0.66747  0.98864  0.35115  1.0000
  C   C1383     1.0  0.54829  0.87151  0.43270  1.0000
  C   C1384     1.0  0.59635  0.90011  0.36994  1.0000
  C   C1385     1.0  0.59534  0.88076  0.36794  1.0000
  C   C1386     1.0  0.57781  0.87272  0.37197  1.0000
  C   C1387     1.0  0.56118  0.88403  0.37770  1.0000
  C   C1388     1.0  0.56220  0.90341  0.37933  1.0000
  C   C1389     1.0  0.57972  0.91134  0.37564  1.0000
  H   H2356     1.0  0.60813  0.87193  0.36381  1.0000
  H   H2357     1.0  0.57716  0.85768  0.37080  1.0000
  H   H2358     1.0  0.54952  0.91232  0.38363  1.0000
  H   H2359     1.0  0.58033  0.92628  0.37727  1.0000
  H   H2360     1.0  0.56513  0.95763  0.57454  1.0000
  S   S398      1.0  0.51835  0.96357  0.39016  1.0000
  C   C1390     1.0  0.51016  0.96845  0.50512  1.0000
  C   C1391     1.0  0.53895  0.84329  0.46412  1.0000
  C   C1392     1.0  0.72888  0.85600  0.35723  1.0000
  H   H2361     1.0  0.50301  0.83817  0.47182  1.0000
  C   C1393     1.0  0.55102  0.87026  0.33035  1.0000
  H   H2362     1.0  0.67578  0.89514  0.58457  1.0000
  H   H2363     1.0  0.66139  0.98860  0.61793  1.0000
  H   H2364     1.0  0.54275  0.95061  0.58490  1.0000
  H   H2365     1.0  0.51290  0.83516  0.42777  1.0000
  H   H2366     1.0  0.53716  0.82885  0.47155  1.0000
  H   H2367     1.0  0.59672  0.91872  0.32862  1.0000
  C   C1394     1.0  0.50464  0.90445  0.47297  1.0000
  C   C1395     1.0  0.51426  0.90309  0.48957  1.0000
  C   C1396     1.0  0.73930  0.83826  0.36134  1.0000
  H   H2368     1.0  0.55760  0.85992  0.42634  1.0000
  H   H2369     1.0  0.51222  0.90751  0.45921  1.0000
  S   S399      1.0  0.71243  0.89453  0.63572  1.0000
  C   C1397     1.0  0.50506  0.85074  0.46129  1.0000
  H   H2370     1.0  0.62267  0.97829  0.38851  1.0000
  S   S400      1.0  0.70596  0.85648  0.34844  1.0000
  H   H2371     1.0  0.52053  0.95505  0.61132  1.0000
  H   H2372     1.0  0.58396  0.96321  0.36004  1.0000
  C   C1398     1.0  0.59842  0.89623  0.62543  1.0000
  C   C1399     1.0  0.58950  0.89075  0.61020  1.0000
  C   C1400     1.0  0.57029  0.89695  0.60771  1.0000
  C   C1401     1.0  0.55975  0.90858  0.62057  1.0000
  C   C1402     1.0  0.56870  0.91408  0.63576  1.0000
  C   C1403     1.0  0.58793  0.90803  0.63814  1.0000
  H   H2373     1.0  0.59747  0.88160  0.60030  1.0000
  H   H2374     1.0  0.56361  0.89260  0.59598  1.0000
  H   H2375     1.0  0.66927  0.82863  0.64668  1.0000
  C   C1404     1.0  0.62414  0.96954  0.33262  1.0000
  H   H2376     1.0  0.54644  0.98659  0.58251  1.0000
  H   H2377     1.0  0.67027  0.95796  0.35048  1.0000
  C   C1405     1.0  0.60782  0.97718  0.38512  1.0000
  C   C1406     1.0  0.55143  0.97701  0.59480  1.0000
  H   H2378     1.0  0.50103  0.97696  0.63473  1.0000
  N   N99       1.0  0.53741  0.97889  0.61216  1.0000
  H   H2379     1.0  0.58684  0.95589  0.39213  1.0000
  H   H2380     1.0  0.52435  0.95751  0.65044  1.0000
  H   H2381     1.0  0.68978  0.90196  0.60180  1.0000
  H   H2382     1.0  0.63446  0.96545  0.36038  1.0000
  C   C1407     1.0  0.55571  0.95680  0.58801  1.0000
  H   H2383     1.0  0.52812  0.94367  0.49427  1.0000
  S   S401      1.0  0.65373  0.87308  0.33560  1.0000
  H   H2384     1.0  0.53723  0.87222  0.47394  1.0000
  H   H2385     1.0  0.73935  0.84515  0.48720  1.0000
  H   H2386     1.0  0.52758  0.98254  0.65103  1.0000
  C   C1408     1.0  0.54243  0.82694  0.42529  1.0000
  H   H2387     1.0  0.62968  0.85952  0.57816  1.0000
  H   H2388     1.0  0.72728  0.85418  0.42605  1.0000
  Fe  Fe199     1.0  0.64052  0.89695  0.65009  1.0000
  C   C1409     1.0  0.50449  0.89976  0.50764  1.0000
  S   S402      1.0  0.51733  0.89737  0.52802  1.0000
  H   H2389     1.0  0.54838  0.95235  0.62646  1.0000
  C   C1410     1.0  0.73869  0.84920  0.41538  1.0000
  N   N100      1.0  0.67027  0.85802  0.60361  1.0000
  C   C1411     1.0  0.67813  0.87490  0.61047  1.0000
  C   C1412     1.0  0.66228  0.84636  0.62104  1.0000
  C   C1413     1.0  0.65479  0.86567  0.59087  1.0000
  C   C1414     1.0  0.68627  0.84698  0.59266  1.0000
  H   H2390     1.0  0.51934  0.94006  0.51920  1.0000
  C   C1415     1.0  0.67698  0.83613  0.63419  1.0000
  C   C1416     1.0  0.63872  0.85290  0.58941  1.0000
  C   C1417     1.0  0.68165  0.82818  0.58566  1.0000
  H   H2391     1.0  0.66695  0.88290  0.61952  1.0000
  H   H2392     1.0  0.68987  0.87027  0.61959  1.0000
  H   H2393     1.0  0.65404  0.83497  0.61738  1.0000
  H   H2394     1.0  0.65179  0.85545  0.62976  1.0000
  H   H2395     1.0  0.64736  0.87926  0.59563  1.0000
  H   H2396     1.0  0.66098  0.86948  0.57609  1.0000
  H   H2397     1.0  0.69146  0.85571  0.57963  1.0000
  H   H2398     1.0  0.69911  0.84407  0.60076  1.0000
  H   H2399     1.0  0.54094  0.81355  0.41883  1.0000
  H   H2400     1.0  0.60281  0.95694  0.40982  1.0000
  H   H2401     1.0  0.53781  0.86319  0.32986  1.0000
  H   H2402     1.0  0.68559  0.84605  0.63995  1.0000
  C   C1418     1.0  0.52747  0.86673  0.43769  1.0000
  H   H2403     1.0  0.68657  0.82517  0.62698  1.0000
  H   H2404     1.0  0.64406  0.83843  0.58561  1.0000
  H   H2405     1.0  0.55521  0.82428  0.43329  1.0000
  H   H2406     1.0  0.62925  0.85200  0.60288  1.0000
  H   H2407     1.0  0.67545  0.83083  0.57175  1.0000
  H   H2408     1.0  0.67206  0.82006  0.59592  1.0000
  H   H2409     1.0  0.69497  0.81856  0.58398  1.0000
  H   H2410     1.0  0.56089  0.97134  0.63004  1.0000
  Fe  Fe200     1.0  0.50360  0.90372  0.55741  1.0000
  N   N101      1.0  0.60648  0.98089  0.36395  1.0000
  Fe  Fe201     1.0  0.68343  0.89792  0.65363  1.0000
  C   C1419     1.0  0.51227  0.97778  0.40906  1.0000
  H   H2411     1.0  0.55206  0.85449  0.48682  1.0000
  C   C1420     1.0  0.67184  0.97155  0.34234  1.0000
  C   C1421     1.0  0.60181  0.95773  0.39422  1.0000
  C   C1422     1.0  0.50057  0.97846  0.61913  1.0000
  H   H2412     1.0  0.66249  0.98808  0.36610  1.0000
  H   H2413     1.0  0.51645  0.97816  0.49332  1.0000
  C   C1423     1.0  0.56986  0.99005  0.36830  1.0000
  C   C1424     1.0  0.53863  0.85709  0.47975  1.0000
  H   H2414     1.0  0.73429  0.83454  0.45603  1.0000
  H   H2415     1.0  0.56340  0.94688  0.59836  1.0000
  H   H2416     1.0  0.55706  0.98204  0.36902  1.0000
  S   S403      1.0  0.50659  0.88581  0.58549  1.0000
  H   H2417     1.0  0.50724  0.96550  0.55200  1.0000
  H   H2418     1.0  0.51019  0.97583  0.51821  1.0000
  H   H2419     1.0  0.50000  0.94145  0.48485  1.0000
  H   H2420     1.0  0.56066  0.92290  0.64591  1.0000
  C   C1425     1.0  0.49774  0.97329  0.42313  1.0000
  H   H2421     1.0  0.73334  0.82531  0.35900  1.0000
  H   H2422     1.0  0.59340  0.86567  0.33155  1.0000
  H   H2423     1.0  0.53791  0.95501  0.51184  1.0000
  N   N102      1.0  0.52427  0.84845  0.45002  1.0000
  H   H2424     1.0  0.70908  0.99142  0.34271  1.0000
  H   H2425     1.0  0.54454  0.83797  0.41320  1.0000
  H   H2426     1.0  0.57535  0.89462  0.33467  1.0000
  Fe  Fe202     1.0  0.50402  0.93654  0.39494  1.0000
  H   H2427     1.0  0.51687  0.97352  0.59310  1.0000
  H   H2428     1.0  0.55466  0.87556  0.44520  1.0000
  Fe  Fe203     1.0  0.68370  0.88066  0.33873  1.0000
  H   H2429     1.0  0.58621  0.98245  0.34285  1.0000
  C   C1426     1.0  0.62039  0.96631  0.35450  1.0000
  H   H2430     1.0  0.50398  0.86328  0.46980  1.0000
  H   H2431     1.0  0.53222  0.98781  0.54791  1.0000
  C   C1427     1.0  0.58695  0.97848  0.35835  1.0000
  C   C1428     1.0  0.51859  0.99174  0.55544  1.0000
  H   H2432     1.0  0.73172  0.84290  0.40442  1.0000
  H   H2433     1.0  0.74024  0.85834  0.45468  1.0000
  H   H2434     1.0  0.59455  0.91226  0.64998  1.0000
  H   H2435     1.0  0.61134  0.94562  0.38891  1.0000
  H   H2436     1.0  0.56076  0.86029  0.33869  1.0000
  C   C1429     1.0  0.50447  0.97904  0.55784  1.0000
  C   C1430     1.0  0.73688  0.87258  0.36041  1.0000
  H   H2437     1.0  0.56546  0.98159  0.59726  1.0000
  H   H2438     1.0  0.54679  0.88316  0.33806  1.0000
  H   H2439     1.0  0.52043  0.81896  0.44701  1.0000
  H   H2440     1.0  0.68327  0.96697  0.65790  1.0000
  H   H2441     1.0  0.49650  0.99356  0.61417  1.0000
  H   H2442     1.0  0.63438  0.95778  0.32759  1.0000
  H   H2443     1.0  0.63093  0.98289  0.32800  1.0000
  H   H2444     1.0  0.57142  0.99217  0.38327  1.0000
  C   C1431     1.0  0.74342  0.84221  0.63514  1.0000
  H   H2445     1.0  0.74313  0.82833  0.64301  1.0000
  H   H2446     1.0  0.71163  0.82426  0.32547  1.0000
  Fe  Fe204     1.0  0.65586  0.88923  0.68942  1.0000
  H   H2447     1.0  0.58187  0.74513  0.89174  1.0000
  S   S404      1.0  0.65636  0.87136  0.71822  1.0000
  H   H2448     1.0  0.64795  0.52214  0.95633  1.0000
  H   H2449     1.0  0.49803  0.52468  0.92575  1.0000
  S   S405      1.0  0.63180  0.90895  0.67820  1.0000
  S   S406      1.0  0.67779  0.91057  0.68198  1.0000
  Fe  Fe205     1.0  0.59046  0.83307  0.80999  1.0000
  S   S407      1.0  0.61518  0.82454  0.82759  1.0000
  S   S408      1.0  0.58882  0.84680  0.77950  1.0000
  Fe  Fe206     1.0  0.56117  0.82502  0.84422  1.0000
  S   S409      1.0  0.58375  0.81622  0.86437  1.0000
  S   S410      1.0  0.53012  0.82835  0.85585  1.0000
  Fe  Fe207     1.0  0.59802  0.84152  0.84992  1.0000
  S   S411      1.0  0.61107  0.86308  0.86531  1.0000
  Fe  Fe208     1.0  0.59888  0.79974  0.84079  1.0000
  S   S412      1.0  0.60987  0.76778  0.84289  1.0000
  S   S413      1.0  0.57453  0.85135  0.83157  1.0000
  S   S414      1.0  0.57513  0.80729  0.82138  1.0000
  Fe  Fe209     1.0  0.57286  0.96496  0.90525  1.0000
  S   S415      1.0  0.56398  0.96641  0.93646  1.0000
  S   S416      1.0  0.56531  0.94092  0.88884  1.0000
  Fe  Fe210     1.0  0.67471  0.63644  0.90095  1.0000
  S   S417      1.0  0.64466  0.64680  0.89420  1.0000
  S   S418      1.0  0.69567  0.62392  0.87779  1.0000
  Fe  Fe211     1.0  0.66630  0.64333  0.94315  1.0000
  S   S419      1.0  0.63599  0.65433  0.93939  1.0000
  S   S420      1.0  0.68127  0.63721  0.97054  1.0000
  Fe  Fe212     1.0  0.63559  0.62961  0.92154  1.0000
  S   S421      1.0  0.61034  0.61145  0.92695  1.0000
  Fe  Fe213     1.0  0.64735  0.67077  0.91226  1.0000
  S   S422      1.0  0.63870  0.70311  0.90677  1.0000
  S   S423      1.0  0.66519  0.61772  0.92693  1.0000
  S   S424      1.0  0.67806  0.66127  0.91739  1.0000
  Fe  Fe214     1.0  0.58288  0.50793  0.91062  1.0000
  S   S425      1.0  0.60600  0.52803  0.90127  1.0000
  S   S426      1.0  0.55163  0.51293  0.91939  1.0000
  H   H2450     1.0  0.71618  0.61706  0.95408  1.0000
  H   H2451     1.0  0.50017  0.83610  0.80718  1.0000
  C   C1432     1.0  0.72097  0.62174  0.87577  1.0000
  H   H2452     1.0  0.51704  0.98075  0.98423  1.0000
  H   H2453     1.0  0.62397  0.88907  0.76384  1.0000
  H   H2454     1.0  0.72370  0.64728  0.88884  1.0000
  C   C1433     1.0  0.60936  0.58845  0.91924  1.0000
  C   C1434     1.0  0.59230  0.57962  0.92296  1.0000
  C   C1435     1.0  0.59096  0.56124  0.91739  1.0000
  C   C1436     1.0  0.60670  0.55148  0.90801  1.0000
  C   C1437     1.0  0.62375  0.56030  0.90426  1.0000
  C   C1438     1.0  0.62511  0.57866  0.90988  1.0000
  H   H2455     1.0  0.58001  0.58711  0.93009  1.0000
  H   H2456     1.0  0.57769  0.55475  0.92014  1.0000
  H   H2457     1.0  0.63601  0.55291  0.89699  1.0000
  H   H2458     1.0  0.63830  0.58528  0.90690  1.0000
  C   C1439     1.0  0.60972  0.55486  0.97114  1.0000
  H   H2459     1.0  0.60671  0.56094  0.95652  1.0000
  H   H2460     1.0  0.55439  0.82442  0.75964  1.0000
  S   S427      1.0  0.55643  0.99296  0.89705  1.0000
  H   H2461     1.0  0.63560  0.52672  0.98531  1.0000
  H   H2462     1.0  0.72990  0.66514  0.82914  1.0000
  H   H2463     1.0  0.55420  0.80053  0.77033  1.0000
  H   H2464     1.0  0.54083  0.77976  0.90763  1.0000
  H   H2465     1.0  0.51912  0.83475  0.74666  1.0000
  C   C1440     1.0  0.61273  0.89648  0.82302  1.0000
  C   C1441     1.0  0.61726  0.75003  0.86117  1.0000
  C   C1442     1.0  0.62099  0.75453  0.87915  1.0000
  C   C1443     1.0  0.62732  0.73998  0.89288  1.0000
  C   C1444     1.0  0.62992  0.72069  0.88898  1.0000
  C   C1445     1.0  0.62583  0.71615  0.87112  1.0000
  C   C1446     1.0  0.61969  0.73072  0.85732  1.0000
  H   H2466     1.0  0.61935  0.76925  0.88239  1.0000
  H   H2467     1.0  0.63041  0.74374  0.90660  1.0000
  H   H2468     1.0  0.62749  0.70145  0.86788  1.0000
  H   H2469     1.0  0.61680  0.72699  0.84352  1.0000
  C   C1447     1.0  0.59797  0.88427  0.87263  1.0000
  C   C1448     1.0  0.60705  0.89719  0.88170  1.0000
  C   C1449     1.0  0.59726  0.91450  0.88703  1.0000
  C   C1450     1.0  0.57829  0.91908  0.88324  1.0000
  C   C1451     1.0  0.56922  0.90613  0.87421  1.0000
  C   C1452     1.0  0.57895  0.88881  0.86900  1.0000
  H   H2470     1.0  0.62176  0.89381  0.88459  1.0000
  H   H2471     1.0  0.60443  0.92431  0.89396  1.0000
  H   H2472     1.0  0.55456  0.90950  0.87121  1.0000
  H   H2473     1.0  0.57174  0.87901  0.86212  1.0000
  C   C1453     1.0  0.57107  0.73711  0.88674  1.0000
  C   C1454     1.0  0.51065  0.82038  0.84610  1.0000
  C   C1455     1.0  0.51304  0.80555  0.83419  1.0000
  S   S428      1.0  0.60848  0.97423  0.96157  1.0000
  H   H2474     1.0  0.52714  0.79893  0.83044  1.0000
  C   C1456     1.0  0.69316  0.70502  0.88711  1.0000
  H   H2475     1.0  0.51223  0.86290  0.81656  1.0000
  H   H2476     1.0  0.52358  0.76129  0.86583  1.0000
  C   C1457     1.0  0.63724  0.86382  0.73447  1.0000
  C   C1458     1.0  0.64141  0.85254  0.75130  1.0000
  C   C1459     1.0  0.62679  0.84686  0.76504  1.0000
  C   C1460     1.0  0.60776  0.85252  0.76216  1.0000
  C   C1461     1.0  0.60354  0.86348  0.74516  1.0000
  C   C1462     1.0  0.61817  0.86914  0.73140  1.0000
  H   H2477     1.0  0.65610  0.84823  0.75376  1.0000
  H   H2478     1.0  0.63027  0.83819  0.77788  1.0000
  H   H2479     1.0  0.58888  0.86785  0.74269  1.0000
  H   H2480     1.0  0.61472  0.87777  0.71851  1.0000
  H   H2481     1.0  0.65219  0.89693  0.77392  1.0000
  H   H2482     1.0  0.53069  0.96588  0.88484  1.0000
  H   H2483     1.0  0.62424  0.91462  0.76416  1.0000
  H   H2484     1.0  0.50395  0.85672  0.74867  1.0000
  H   H2485     1.0  0.54244  0.85490  0.76450  1.0000
  H   H2486     1.0  0.63409  0.98685  0.92903  1.0000
  Fe  Fe215     1.0  0.65411  0.92956  0.66906  1.0000
  H   H2487     1.0  0.52171  0.81368  0.77037  1.0000
  N   N103      1.0  0.50456  0.95298  0.88341  1.0000
  H   H2488     1.0  0.66456  0.50288  0.84572  1.0000
  C   C1463     1.0  0.50133  0.91826  0.89753  1.0000
  H   H2489     1.0  0.58883  0.51206  0.97732  1.0000
  H   H2490     1.0  0.54754  0.79627  0.88816  1.0000
  C   C1464     1.0  0.57061  0.77982  0.90165  1.0000
  H   H2491     1.0  0.52768  0.85628  0.73684  1.0000
  C   C1465     1.0  0.62047  0.52377  0.98830  1.0000
  H   H2492     1.0  0.57549  0.73427  0.87176  1.0000
  C   C1466     1.0  0.64446  0.86652  0.81624  1.0000
  H   H2493     1.0  0.62294  0.89302  0.83409  1.0000
  H   H2494     1.0  0.64469  0.90926  0.81447  1.0000
  H   H2495     1.0  0.65169  0.85287  0.81161  1.0000
  H   H2496     1.0  0.65556  0.87604  0.81778  1.0000
  H   H2497     1.0  0.63678  0.86306  0.83037  1.0000
  N   N104      1.0  0.69176  0.68750  0.85681  1.0000
  C   C1467     1.0  0.70324  0.67224  0.84593  1.0000
  C   C1468     1.0  0.67305  0.67982  0.86403  1.0000
  C   C1469     1.0  0.70242  0.69036  0.87354  1.0000
  C   C1470     1.0  0.68950  0.70561  0.84372  1.0000
  C   C1471     1.0  0.72406  0.67578  0.83924  1.0000
  C   C1472     1.0  0.51418  0.93320  0.88737  1.0000
  H   H2498     1.0  0.69288  0.71976  0.88013  1.0000
  C   C1473     1.0  0.67247  0.72024  0.84889  1.0000
  H   H2499     1.0  0.70363  0.65820  0.85456  1.0000
  H   H2500     1.0  0.69651  0.67008  0.83287  1.0000
  H   H2501     1.0  0.66373  0.68978  0.87270  1.0000
  H   H2502     1.0  0.67557  0.66678  0.87393  1.0000
  H   H2503     1.0  0.70503  0.67656  0.88231  1.0000
  H   H2504     1.0  0.71664  0.69527  0.86870  1.0000
  H   H2505     1.0  0.70266  0.71316  0.84246  1.0000
  H   H2506     1.0  0.68772  0.70210  0.82905  1.0000
  H   H2507     1.0  0.72536  0.69013  0.83169  1.0000
  H   H2508     1.0  0.73317  0.67351  0.85128  1.0000
  H   H2509     1.0  0.51429  0.51558  0.94272  1.0000
  H   H2510     1.0  0.66012  0.97403  0.94851  1.0000
  H   H2511     1.0  0.67879  0.70184  0.89331  1.0000
  Fe  Fe216     1.0  0.58967  0.98230  0.93737  1.0000
  H   H2512     1.0  0.54483  0.96518  0.65968  1.0000
  H   H2513     1.0  0.57527  0.55177  0.95843  1.0000
  C   C1474     1.0  0.51935  0.96606  0.87509  1.0000
  H   H2514     1.0  0.63916  0.54556  0.94598  1.0000
  H   H2515     1.0  0.51314  0.98117  0.87364  1.0000
  H   H2516     1.0  0.66063  0.71926  0.83999  1.0000
  C   C1475     1.0  0.52978  0.96130  0.85573  1.0000
  H   H2517     1.0  0.53606  0.86528  0.82064  1.0000
  C   C1476     1.0  0.61569  0.90228  0.76799  1.0000
  H   H2518     1.0  0.49533  0.94358  0.85779  1.0000
  C   C1477     1.0  0.52700  0.77132  0.87588  1.0000
  H   H2519     1.0  0.73104  0.66174  0.95327  1.0000
  C   C1478     1.0  0.65560  0.98956  0.94787  1.0000
  H   H2520     1.0  0.59705  0.89075  0.79123  1.0000
  C   C1479     1.0  0.55985  0.77134  0.86248  1.0000
  C   C1480     1.0  0.66115  0.67446  0.84862  1.0000
  H   H2521     1.0  0.52038  0.92733  0.87390  1.0000
  C   C1481     1.0  0.52995  0.81912  0.78082  1.0000
  H   H2522     1.0  0.61630  0.51003  0.95529  1.0000
  H   H2523     1.0  0.64069  0.52533  0.93283  1.0000
  H   H2524     1.0  0.57162  0.72302  0.89520  1.0000
  H   H2525     1.0  0.51987  0.96861  0.91453  1.0000
  H   H2526     1.0  0.55416  0.74514  0.84997  1.0000
  C   C1482     1.0  0.52683  0.86324  0.80939  1.0000
  H   H2527     1.0  0.57722  0.52887  0.94879  1.0000
  H   H2528     1.0  0.58228  0.77980  0.89008  1.0000
  H   H2529     1.0  0.64257  0.50347  0.90811  1.0000
  H   H2530     1.0  0.52765  0.80934  0.79398  1.0000
  H   H2531     1.0  0.72666  0.60255  0.91449  1.0000
  S   S429      1.0  0.54257  0.49578  0.97292  1.0000
  H   H2532     1.0  0.53900  0.94771  0.85707  1.0000
  H   H2533     1.0  0.62446  0.55822  0.97271  1.0000
  C   C1483     1.0  0.72733  0.61083  0.94384  1.0000
  H   H2534     1.0  0.53412  0.83295  0.81242  1.0000
  C   C1484     1.0  0.71762  0.61028  0.92543  1.0000
  C   C1485     1.0  0.59610  0.56660  0.98500  1.0000
  H   H2535     1.0  0.72121  0.66566  0.93055  1.0000
  H   H2536     1.0  0.74014  0.64125  0.91739  1.0000
  C   C1486     1.0  0.64904  0.50681  0.84799  1.0000
  H   H2537     1.0  0.70193  0.70462  0.89932  1.0000
  C   C1487     1.0  0.52692  0.85339  0.76772  1.0000
  H   H2538     1.0  0.64949  0.66460  0.98194  1.0000
  C   C1488     1.0  0.51873  0.84994  0.74914  1.0000
  H   H2539     1.0  0.55996  0.53392  0.96795  1.0000
  N   N105      1.0  0.60868  0.53354  0.97295  1.0000
  C   C1489     1.0  0.61680  0.52580  0.95444  1.0000
  C   C1490     1.0  0.50216  0.84080  0.79171  1.0000
  C   C1491     1.0  0.60457  0.98555  0.98302  1.0000
  H   H2540     1.0  0.64696  0.52256  0.84496  1.0000
  C   C1492     1.0  0.63735  0.53009  0.94734  1.0000
  C   C1493     1.0  0.57471  0.53625  0.96201  1.0000
  H   H2541     1.0  0.58192  0.53139  0.99082  1.0000
  H   H2542     1.0  0.54612  0.74601  0.90475  1.0000
  H   H2543     1.0  0.66691  0.71946  0.86402  1.0000
  H   H2544     1.0  0.60810  0.53165  0.94271  1.0000
  H   H2545     1.0  0.64657  0.67212  0.85512  1.0000
  H   H2546     1.0  0.66715  0.66083  0.84295  1.0000
  C   C1494     1.0  0.73123  0.63529  0.88223  1.0000
  H   H2547     1.0  0.49593  0.85590  0.79034  1.0000
  H   H2548     1.0  0.60341  0.90458  0.75919  1.0000
  H   H2549     1.0  0.54924  0.84568  0.79549  1.0000
  C   C1495     1.0  0.51162  0.76984  0.89281  1.0000
  H   H2550     1.0  0.52760  0.87584  0.79885  1.0000
  C   C1496     1.0  0.65829  0.98036  0.67266  1.0000
  C   C1497     1.0  0.73102  0.60648  0.86669  1.0000
  H   H2551     1.0  0.52102  0.86800  0.77088  1.0000
  H   H2552     1.0  0.70482  0.60234  0.92885  1.0000
  H   H2553     1.0  0.73039  0.59582  0.94990  1.0000
  C   C1498     1.0  0.74223  0.64116  0.93266  1.0000
  H   H2554     1.0  0.66764  0.89764  0.79259  1.0000
  H   H2555     1.0  0.65992  0.91874  0.77898  1.0000
  C   C1499     1.0  0.53402  0.84444  0.80052  1.0000
  H   H2556     1.0  0.57508  0.76834  0.86478  1.0000
  H   H2557     1.0  0.59878  0.91612  0.84298  1.0000
  H   H2558     1.0  0.71330  0.64743  0.94691  1.0000
  C   C1500     1.0  0.72613  0.65457  0.94165  1.0000
  H   H2559     1.0  0.54372  0.76708  0.83852  1.0000
  H   H2560     1.0  0.54150  0.73761  0.88313  1.0000
  H   H2561     1.0  0.58465  0.57491  0.97727  1.0000
  C   C1501     1.0  0.63054  0.87503  0.80157  1.0000
  C   C1502     1.0  0.63824  0.90909  0.80078  1.0000
  C   C1503     1.0  0.60207  0.91593  0.82737  1.0000
  C   C1504     1.0  0.65517  0.90496  0.78571  1.0000
  H   H2562     1.0  0.60226  0.88557  0.82597  1.0000
  H   H2563     1.0  0.61060  0.92808  0.82269  1.0000
  N   N106      1.0  0.52308  0.83936  0.78476  1.0000
  N   N107      1.0  0.62286  0.89551  0.80330  1.0000
  H   H2564     1.0  0.61864  0.86566  0.80290  1.0000
  C   C1505     1.0  0.60825  0.90097  0.78916  1.0000
  C   C1506     1.0  0.49708  0.79905  0.82740  1.0000
  C   C1507     1.0  0.55067  0.78133  0.89449  1.0000
  H   H2565     1.0  0.56872  0.76076  0.83483  1.0000
  H   H2566     1.0  0.63790  0.87291  0.78736  1.0000
  H   H2567     1.0  0.63201  0.92394  0.79722  1.0000
  C   C1508     1.0  0.55102  0.81572  0.77322  1.0000
  H   H2568     1.0  0.72323  0.59608  0.86133  1.0000
  C   C1509     1.0  0.55626  0.76030  0.84563  1.0000
  H   H2569     1.0  0.57278  0.76713  0.91198  1.0000
  H   H2570     1.0  0.60077  0.91525  0.79127  1.0000
  H   H2571     1.0  0.52461  0.78588  0.86846  1.0000
  H   H2572     1.0  0.55808  0.78678  0.85749  1.0000
  H   H2573     1.0  0.58821  0.91815  0.82110  1.0000
  S   S430      1.0  0.59996  0.97864  0.90657  1.0000
  H   H2574     1.0  0.57177  0.79244  0.90949  1.0000
  N   N108      1.0  0.54739  0.76736  0.88063  1.0000
  H   H2575     1.0  0.51012  0.90445  0.89975  1.0000
  H   H2576     1.0  0.65977  0.68580  0.83677  1.0000
  C   C1510     1.0  0.55060  0.74700  0.88920  1.0000
  H   H2577     1.0  0.52649  0.93344  0.89588  1.0000
  H   H2578     1.0  0.71267  0.62478  0.91944  1.0000
  H   H2579     1.0  0.53936  0.97260  0.85068  1.0000
  H   H2580     1.0  0.67686  0.73489  0.84530  1.0000
  S   S431      1.0  0.64446  0.96066  0.67413  1.0000
  H   H2581     1.0  0.72782  0.63675  0.97609  1.0000
  H   H2582     1.0  0.56074  0.81834  0.78375  1.0000
  C   C1511     1.0  0.73808  0.62411  0.97838  1.0000
  C   C1512     1.0  0.58865  0.52784  0.97672  1.0000
  H   H2583     1.0  0.51064  0.78242  0.90117  1.0000
  H   H2584     1.0  0.51288  0.94523  0.92315  1.0000
  H   H2585     1.0  0.51391  0.75652  0.90224  1.0000
  C   C1513     1.0  0.50763  0.95995  0.91812  1.0000
  H   H2586     1.0  0.60405  0.57738  0.99041  1.0000
  H   H2587     1.0  0.62712  0.50943  0.87100  1.0000
  H   H2588     1.0  0.51999  0.96080  0.84461  1.0000
  H   H2589     1.0  0.62031  0.50797  0.98874  1.0000
  H   H2590     1.0  0.49898  0.78741  0.81837  1.0000
  C   C1514     1.0  0.50030  0.51368  0.93774  1.0000
  C   C1515     1.0  0.64151  0.50165  0.86878  1.0000
  H   H2591     1.0  0.73012  0.61137  0.98238  1.0000
  S   S432      1.0  0.66312  0.87548  0.66189  1.0000
  C   C1516     1.0  0.67675  0.97994  0.66360  1.0000
  H   H2592     1.0  0.65079  0.50832  0.87745  1.0000
  C   C1517     1.0  0.49501  0.96056  0.90146  1.0000
  H   H2593     1.0  0.49904  0.96606  0.93040  1.0000
  H   H2594     1.0  0.64548  0.99162  0.96061  1.0000
  H   H2595     1.0  0.64129  0.50070  0.83758  1.0000
  H   H2596     1.0  0.65670  0.99033  0.91764  1.0000
  H   H2597     1.0  0.49752  0.76987  0.88722  1.0000
  H   H2598     1.0  0.50154  0.49927  0.93262  1.0000
  H   H2599     1.0  0.49517  0.92209  0.91177  1.0000
  Fe  Fe217     1.0  0.81222  0.38267  0.14466  1.0000
  S   S433      1.0  0.84298  0.37169  0.14729  1.0000
  S   S434      1.0  0.79576  0.36367  0.12896  1.0000
  Fe  Fe218     1.0  0.81802  0.41983  0.16205  1.0000
  S   S435      1.0  0.84881  0.41131  0.16569  1.0000
  S   S436      1.0  0.80291  0.44848  0.16923  1.0000
  Fe  Fe219     1.0  0.84963  0.40142  0.13625  1.0000
  S   S437      1.0  0.87011  0.41313  0.11230  1.0000
  Fe  Fe220     1.0  0.83941  0.38235  0.17671  1.0000
  S   S438      1.0  0.84557  0.36368  0.20452  1.0000
  S   S439      1.0  0.81932  0.41174  0.13210  1.0000
  S   S440      1.0  0.80817  0.39152  0.17457  1.0000
  H   H2600     1.0  0.81292  0.41806  0.09079  1.0000
  H   H2601     1.0  0.79978  0.36164  0.08956  1.0000
  C   C1518     1.0  0.95723  0.29375  0.27781  1.0000
  H   H2602     1.0  0.78167  0.39265  0.06178  1.0000
  H   H2603     1.0  0.94551  0.43861  0.04466  1.0000
  H   H2604     1.0  0.83116  0.34800  0.06095  1.0000
  Fe  Fe221     1.0  0.89852  0.39096  0.00824  1.0000
  S   S441      1.0  0.89204  0.37256  0.03581  1.0000
  S   S442      1.0  0.92029  0.41222  0.00574  1.0000
  Fe  Fe222     1.0  0.89522  0.33379  0.30608  1.0000
  H   H2605     1.0  0.84979  0.37760  0.03604  1.0000
  S   S443      1.0  0.89331  0.35373  0.27818  1.0000
  S   S444      1.0  0.89006  0.46123  0.00252  1.0000
  C   C1519     1.0  0.82036  0.38360  0.04846  1.0000
  H   H2606     1.0  0.83988  0.38997  0.08220  1.0000
  H   H2607     1.0  0.85738  0.43183  0.19984  1.0000
  H   H2608     1.0  0.84852  0.36277  0.06568  1.0000
  H   H2609     1.0  0.80448  0.41379  0.06907  1.0000
  H   H2610     1.0  0.80962  0.39579  0.04590  1.0000
  H   H2611     1.0  0.79724  0.35819  0.06562  1.0000
  H   H2612     1.0  0.92994  0.30378  0.26785  1.0000
  C   C1520     1.0  0.85971  0.36071  0.22441  1.0000
  C   C1521     1.0  0.87389  0.37262  0.22637  1.0000
  C   C1522     1.0  0.88394  0.37023  0.24287  1.0000
  C   C1523     1.0  0.88009  0.35589  0.25766  1.0000
  C   C1524     1.0  0.86604  0.34390  0.25561  1.0000
  C   C1525     1.0  0.85594  0.34634  0.23916  1.0000
  H   H2613     1.0  0.87707  0.38368  0.21521  1.0000
  H   H2614     1.0  0.89478  0.37960  0.24420  1.0000
  H   H2615     1.0  0.86285  0.33281  0.26676  1.0000
  H   H2616     1.0  0.84501  0.33704  0.23791  1.0000
  C   C1526     1.0  0.81543  0.46881  0.16995  1.0000
  H   H2617     1.0  0.84827  0.33768  0.09015  1.0000
  C   C1527     1.0  0.83486  0.46708  0.17234  1.0000
  C   C1528     1.0  0.76621  0.34907  0.11439  1.0000
  H   H2618     1.0  0.84253  0.45312  0.17380  1.0000
  C   C1529     1.0  0.88635  0.38398  0.05705  1.0000
  C   C1530     1.0  0.88208  0.37300  0.07428  1.0000
  C   C1531     1.0  0.87669  0.38176  0.09125  1.0000
  C   C1532     1.0  0.87597  0.40159  0.09118  1.0000
  C   C1533     1.0  0.88056  0.41255  0.07402  1.0000
  C   C1534     1.0  0.88554  0.40382  0.05698  1.0000
  H   H2619     1.0  0.88289  0.35764  0.07449  1.0000
  H   H2620     1.0  0.87344  0.37315  0.10443  1.0000
  H   H2621     1.0  0.88018  0.42788  0.07385  1.0000
  H   H2622     1.0  0.88881  0.41244  0.04381  1.0000
  H   H2623     1.0  0.85951  0.48201  0.17447  1.0000
  H   H2624     1.0  0.84913  0.44048  0.22232  1.0000
  H   H2625     1.0  0.81659  0.37263  0.03957  1.0000
  H   H2626     1.0  0.84636  0.39853  0.04906  1.0000
  S   S445      1.0  0.87542  0.41159  0.99706  1.0000
  H   H2627     1.0  0.88773  0.47117  0.10782  1.0000
  C   C1535     1.0  0.77142  0.36348  0.12470  1.0000
  H   H2628     1.0  0.93814  0.44398  0.02137  1.0000
  H   H2629     1.0  0.76102  0.38841  0.13893  1.0000
  H   H2630     1.0  0.78108  0.42839  0.22230  1.0000
  C   C1536     1.0  0.85861  0.49078  0.08953  1.0000
  H   H2631     1.0  0.82875  0.41936  0.06999  1.0000
  S   S446      1.0  0.90925  0.30368  0.30763  1.0000
  N   N109      1.0  0.81959  0.37593  0.06914  1.0000
  C   C1537     1.0  0.97570  0.46980  0.00379  1.0000
  H   H2632     1.0  0.96947  0.42330  0.02208  1.0000
  H   H2633     1.0  0.94779  0.29845  0.24978  1.0000
  C   C1538     1.0  0.75731  0.37730  0.13092  1.0000
  C   C1539     1.0  0.78322  0.38427  0.07565  1.0000
  H   H2634     1.0  0.88489  0.44562  0.13326  1.0000
  C   C1540     1.0  0.83561  0.34828  0.09065  1.0000
  H   H2635     1.0  0.83822  0.47814  0.13418  1.0000
  H   H2636     1.0  0.86201  0.41716  0.22102  1.0000
  H   H2637     1.0  0.83779  0.39899  0.02610  1.0000
  C   C1541     1.0  0.82420  0.39018  0.08213  1.0000
  H   H2638     1.0  0.83769  0.35802  0.10145  1.0000
  H   H2639     1.0  0.81880  0.38601  0.09713  1.0000
  H   H2640     1.0  0.76997  0.37703  0.07934  1.0000
  H   H2641     1.0  0.88617  0.48429  0.07323  1.0000
  H   H2642     1.0  0.83007  0.46455  0.09590  1.0000
  N   N110      1.0  0.94818  0.32655  0.25990  1.0000
  C   C1542     1.0  0.94322  0.33482  0.27879  1.0000
  C   C1543     1.0  0.96938  0.43898  0.02290  1.0000
  C   C1544     1.0  0.93432  0.33629  0.24640  1.0000
  C   C1545     1.0  0.96842  0.33017  0.25294  1.0000
  C   C1546     1.0  0.94494  0.35638  0.27902  1.0000
  C   C1547     1.0  0.93660  0.33027  0.22597  1.0000
  H   H2643     1.0  0.86037  0.45237  0.13917  1.0000
  H   H2644     1.0  0.92846  0.33220  0.28444  1.0000
  H   H2645     1.0  0.97230  0.29691  0.27618  1.0000
  N   N111      1.0  0.85895  0.48469  0.11047  1.0000
  H   H2646     1.0  0.79058  0.48857  0.16653  1.0000
  H   H2647     1.0  0.91946  0.33405  0.25222  1.0000
  H   H2648     1.0  0.93511  0.35196  0.24476  1.0000
  H   H2649     1.0  0.96899  0.34510  0.24639  1.0000
  H   H2650     1.0  0.97726  0.32891  0.26527  1.0000
  H   H2651     1.0  0.93381  0.36521  0.27136  1.0000
  H   H2652     1.0  0.96425  0.38544  0.99953  1.0000
  H   H2653     1.0  0.96073  0.47631  0.00488  1.0000
  H   H2654     1.0  0.95000  0.33465  0.21815  1.0000
  H   H2655     1.0  0.92482  0.33787  0.21816  1.0000
  H   H2656     1.0  0.93543  0.31485  0.22544  1.0000
  C   C1548     1.0  0.80565  0.48710  0.16823  1.0000
  H   H2657     1.0  0.87041  0.45627  0.10364  1.0000
  H   H2658     1.0  0.82318  0.34015  0.09552  1.0000
  N   N112      1.0  0.82022  0.41591  0.23192  1.0000
  C   C1549     1.0  0.83196  0.40317  0.24562  1.0000
  C   C1550     1.0  0.83252  0.41846  0.21340  1.0000
  C   C1551     1.0  0.80345  0.40545  0.22878  1.0000
  C   C1552     1.0  0.81390  0.43450  0.24044  1.0000
  C   C1553     1.0  0.82186  0.39732  0.26533  1.0000
  C   C1554     1.0  0.85123  0.42756  0.21448  1.0000
  C   C1555     1.0  0.78898  0.41601  0.21572  1.0000
  C   C1556     1.0  0.80882  0.45211  0.22642  1.0000
  H   H2659     1.0  0.83753  0.38973  0.23929  1.0000
  H   H2660     1.0  0.84466  0.41005  0.24857  1.0000
  H   H2661     1.0  0.82488  0.42706  0.20214  1.0000
  H   H2662     1.0  0.83647  0.40442  0.20755  1.0000
  H   H2663     1.0  0.80845  0.39154  0.22292  1.0000
  H   H2664     1.0  0.79489  0.40190  0.24242  1.0000
  H   H2665     1.0  0.80139  0.43275  0.25104  1.0000
  H   H2666     1.0  0.82537  0.43858  0.24849  1.0000
  H   H2667     1.0  0.83271  0.39045  0.27475  1.0000
  H   H2668     1.0  0.81450  0.40968  0.27235  1.0000
  H   H2669     1.0  0.81183  0.38645  0.26447  1.0000
  C   C1557     1.0  0.94917  0.44647  0.03063  1.0000
  H   H2670     1.0  0.78392  0.39371  0.08712  1.0000
  H   H2671     1.0  0.77827  0.40617  0.21360  1.0000
  H   H2672     1.0  0.79680  0.46112  0.23318  1.0000
  H   H2673     1.0  0.80432  0.44901  0.21266  1.0000
  H   H2674     1.0  0.82077  0.46132  0.22372  1.0000
  N   N113      1.0  0.97672  0.44841  0.00393  1.0000
  H   H2675     1.0  0.94822  0.46182  0.03295  1.0000
  H   H2676     1.0  0.97871  0.44030  0.03424  1.0000
  C   C1558     1.0  0.83972  0.39003  0.03967  1.0000
  H   H2677     1.0  0.95688  0.27834  0.27621  1.0000
  H   H2678     1.0  0.77695  0.33821  0.10961  1.0000
  H   H2679     1.0  0.79552  0.42052  0.20141  1.0000
  C   C1559     1.0  0.80027  0.36901  0.07504  1.0000
  C   C1560     1.0  0.87308  0.46744  0.11283  1.0000
  C   C1561     1.0  0.83401  0.35873  0.07057  1.0000
  C   C1562     1.0  0.84445  0.48349  0.17270  1.0000
  C   C1563     1.0  0.97774  0.33038  0.31752  1.0000
  H   H2680     1.0  0.82865  0.49258  0.11519  1.0000
  C   C1564     1.0  0.81703  0.41134  0.07730  1.0000
  H   H2681     1.0  0.95925  0.36048  0.27347  1.0000
  H   H2682     1.0  0.85478  0.47894  0.08186  1.0000
  H   H2683     1.0  0.96431  0.33858  0.31550  1.0000
  H   H2684     1.0  0.95243  0.32765  0.28962  1.0000
  C   C1565     1.0  0.83169  0.46272  0.11138  1.0000
  H   H2685     1.0  0.81734  0.46083  0.11877  1.0000
  H   H2686     1.0  0.87818  0.46789  0.14306  1.0000
  H   H2687     1.0  0.96997  0.30983  0.23012  1.0000
  C   C1566     1.0  0.94516  0.30562  0.26308  1.0000
  H   H2688     1.0  0.84062  0.44931  0.11488  1.0000
  H   H2689     1.0  0.98541  0.46950  0.03273  1.0000
  H   H2690     1.0  0.95121  0.29597  0.29256  1.0000
  H   H2691     1.0  0.98877  0.30578  0.24592  1.0000
  Fe  Fe223     1.0  0.89766  0.43213  0.99259  1.0000
  H   H2692     1.0  0.94256  0.36010  0.29399  1.0000
  H   H2693     1.0  0.74892  0.06165  0.30988  1.0000
  C   C1567     1.0  0.87397  0.45803  0.13335  1.0000
  C   C1568     1.0  0.83921  0.48027  0.11842  1.0000
  C   C1569     1.0  0.97907  0.31678  0.23858  1.0000
  C   C1570     1.0  0.74721  0.34848  0.11028  1.0000
  C   C1571     1.0  0.98632  0.47782  0.01870  1.0000
  C   C1572     1.0  0.90920  0.49172  0.00654  1.0000
  H   H2694     1.0  0.98847  0.32520  0.22823  1.0000
  C   C1573     1.0  0.90795  0.47641  0.99585  1.0000
  H   H2695     1.0  0.75257  0.03647  0.31129  1.0000
  H   H2696     1.0  0.97950  0.49224  0.02146  1.0000
  H   H2697     1.0  0.74348  0.33730  0.10237  1.0000
  Fe  Fe224     1.0  0.84344  0.15830  0.56448  1.0000
  S   S447      1.0  0.83340  0.13439  0.58512  1.0000
  S   S448      1.0  0.85548  0.15577  0.53360  1.0000
  Fe  Fe225     1.0  0.84206  0.18590  0.59606  1.0000
  S   S449      1.0  0.83079  0.16418  0.61879  1.0000
  S   S450      1.0  0.85259  0.21544  0.59777  1.0000
  Fe  Fe226     1.0  0.85292  0.14354  0.60487  1.0000
  S   S451      1.0  0.86987  0.12323  0.62485  1.0000
  Fe  Fe227     1.0  0.81170  0.15651  0.59747  1.0000
  S   S452      1.0  0.78074  0.14818  0.60051  1.0000
  S   S453      1.0  0.86494  0.16533  0.58343  1.0000
  S   S454      1.0  0.82107  0.18026  0.57555  1.0000
  Fe  Fe228     1.0  0.82122  0.14957  0.43149  1.0000
  S   S455      1.0  0.81955  0.12705  0.41144  1.0000
  S   S456      1.0  0.80973  0.14528  0.46259  1.0000
  Fe  Fe229     1.0  0.83470  0.17885  0.39912  1.0000
  S   S457      1.0  0.83339  0.15880  0.37665  1.0000
  S   S458      1.0  0.84434  0.20889  0.39734  1.0000
  Fe  Fe230     1.0  0.80549  0.15040  0.39218  1.0000
  S   S459      1.0  0.77616  0.15086  0.38013  1.0000
  Fe  Fe231     1.0  0.84740  0.13687  0.39757  1.0000
  S   S460      1.0  0.87314  0.11787  0.38660  1.0000
  S   S461      1.0  0.80589  0.17251  0.41306  1.0000
  S   S462      1.0  0.84999  0.15732  0.41919  1.0000
  H   H2698     1.0  0.93364  0.35142  0.52692  1.0000
  C   C1574     1.0  0.85046  0.32356  0.61556  1.0000
  H   H2699     1.0  0.74528  0.16718  0.44578  1.0000
  H   H2700     1.0  0.79754  0.25568  0.35623  1.0000
  C   C1575     1.0  0.87995  0.25256  0.62352  1.0000
  Fe  Fe232     1.0  0.97740  0.09184  0.42176  1.0000
  S   S463      1.0  0.94895  0.10864  0.42904  1.0000
  H   H2701     1.0  0.78547  0.01907  0.34867  1.0000
  H   H2702     1.0  0.94550  0.00071  0.38716  1.0000
  H   H2703     1.0  0.97007  0.03224  0.54946  1.0000
  S   S464      1.0  0.95741  0.09527  0.62925  1.0000
  H   H2704     1.0  0.77003  0.18985  0.39392  1.0000
  C   C1576     1.0  0.93512  0.03899  0.42563  1.0000
  H   H2705     1.0  0.91761  0.19696  0.63808  1.0000
  H   H2706     1.0  0.88742  0.12494  0.56019  1.0000
  H   H2707     1.0  0.91236  0.06616  0.37409  1.0000
  Fe  Fe233     1.0  0.89616  0.33060  0.63866  1.0000
  S   S465      1.0  0.91267  0.30294  0.63220  1.0000
  S   S466      1.0  0.88657  0.35471  0.61705  1.0000
  Fe  Fe234     1.0  0.89162  0.33334  0.34999  1.0000
  S   S467      1.0  0.90495  0.30322  0.35429  1.0000
  S   S468      1.0  0.87974  0.35073  0.37471  1.0000
  H   H2708     1.0  0.81420  0.22446  0.34865  1.0000
  H   H2709     1.0  0.86680  0.29194  0.57121  1.0000
  C   C1577     1.0  0.83912  0.33741  0.62900  1.0000
  Fe  Fe235     1.0  0.93134  0.41107  0.49652  1.0000
  S   S469      1.0  0.92866  0.38071  0.49190  1.0000
  S   S470      1.0  0.95626  0.42245  0.50752  1.0000
  Fe  Fe236     1.0  0.89226  0.42422  0.48570  1.0000
  S   S471      1.0  0.88583  0.39465  0.48020  1.0000
  S   S472      1.0  0.87063  0.44959  0.48097  1.0000
  Fe  Fe237     1.0  0.89965  0.38476  0.50724  1.0000
  S   S473      1.0  0.89272  0.35813  0.52654  1.0000
  Fe  Fe238     1.0  0.91521  0.39214  0.46516  1.0000
  S   S474      1.0  0.92612  0.37560  0.43953  1.0000
  S   S475      1.0  0.90328  0.41448  0.51401  1.0000
  S   S476      1.0  0.92060  0.42246  0.46853  1.0000
  S   S477      1.0  0.91395  0.34280  0.32719  1.0000
  H   H2710     1.0  0.96642  0.38659  0.49089  1.0000
  C   C1578     1.0  0.89303  0.35789  0.39230  1.0000
  C   C1579     1.0  0.88375  0.36944  0.40610  1.0000
  C   C1580     1.0  0.89367  0.37519  0.42053  1.0000
  C   C1581     1.0  0.91303  0.36942  0.42130  1.0000
  C   C1582     1.0  0.92232  0.35785  0.40752  1.0000
  C   C1583     1.0  0.91241  0.35211  0.39309  1.0000
  H   H2711     1.0  0.86878  0.37399  0.40559  1.0000
  H   H2712     1.0  0.88634  0.38410  0.43101  1.0000
  H   H2713     1.0  0.93726  0.35324  0.40807  1.0000
  H   H2714     1.0  0.91970  0.34318  0.38260  1.0000
  H   H2715     1.0  0.85181  0.33185  0.60141  1.0000
  H   H2716     1.0  0.74393  0.07473  0.61709  1.0000
  C   C1584     1.0  0.89002  0.35528  0.59191  1.0000
  C   C1585     1.0  0.88769  0.37293  0.58106  1.0000
  C   C1586     1.0  0.88906  0.37404  0.56104  1.0000
  C   C1587     1.0  0.89234  0.35740  0.55165  1.0000
  C   C1588     1.0  0.89489  0.33971  0.56246  1.0000
  C   C1589     1.0  0.89400  0.33865  0.58251  1.0000
  H   H2717     1.0  0.88454  0.38586  0.58821  1.0000
  H   H2718     1.0  0.88696  0.38773  0.55292  1.0000
  H   H2719     1.0  0.89749  0.32678  0.55530  1.0000
  H   H2720     1.0  0.89588  0.32498  0.59069  1.0000
  H   H2721     1.0  0.89360  0.19049  0.59269  1.0000
  C   C1590     1.0  0.94403  0.34231  0.53526  1.0000
  C   C1591     1.0  0.95877  0.47858  0.50392  1.0000
  H   H2722     1.0  0.98159  0.49350  0.46445  1.0000
  C   C1592     1.0  0.93504  0.08756  0.56598  1.0000
  H   H2723     1.0  0.89089  0.13249  0.53582  1.0000
  C   C1593     1.0  0.85289  0.22505  0.37836  1.0000
  C   C1594     1.0  0.85849  0.24252  0.38269  1.0000
  C   C1595     1.0  0.86516  0.25597  0.36817  1.0000
  C   C1596     1.0  0.86610  0.25216  0.34910  1.0000
  C   C1597     1.0  0.86056  0.23463  0.34478  1.0000
  C   C1598     1.0  0.85411  0.22108  0.35931  1.0000
  H   H2724     1.0  0.85758  0.24576  0.39737  1.0000
  H   H2725     1.0  0.86931  0.26940  0.37170  1.0000
  H   H2726     1.0  0.77671  0.14573  0.64261  1.0000
  H   H2727     1.0  0.84998  0.20767  0.35575  1.0000
  C   C1599     1.0  0.89429  0.11588  0.39824  1.0000
  C   C1600     1.0  0.91166  0.10943  0.38857  1.0000
  C   C1601     1.0  0.92863  0.10729  0.39771  1.0000
  C   C1602     1.0  0.92825  0.11129  0.41668  1.0000
  C   C1603     1.0  0.91095  0.11803  0.42619  1.0000
  C   C1604     1.0  0.89406  0.12031  0.41705  1.0000
  H   H2728     1.0  0.91200  0.10620  0.37394  1.0000
  H   H2729     1.0  0.94200  0.10278  0.39006  1.0000
  H   H2730     1.0  0.91057  0.12134  0.44082  1.0000
  H   H2731     1.0  0.88080  0.12514  0.42472  1.0000
  C   C1605     1.0  0.86183  0.22700  0.61564  1.0000
  C   C1606     1.0  0.85716  0.22251  0.63511  1.0000
  H   H2732     1.0  0.75277  0.22758  0.32939  1.0000
  H   H2733     1.0  0.76952  0.06023  0.63048  1.0000
  C   C1607     1.0  0.87336  0.24201  0.60999  1.0000
  S   S478      1.0  0.97918  0.06986  0.58328  1.0000
  H   H2734     1.0  0.89277  0.20253  0.64259  1.0000
  C   C1608     1.0  0.82260  0.14866  0.48211  1.0000
  C   C1609     1.0  0.84191  0.15165  0.47969  1.0000
  C   C1610     1.0  0.85172  0.15383  0.49560  1.0000
  C   C1611     1.0  0.84232  0.15324  0.51406  1.0000
  C   C1612     1.0  0.82298  0.15035  0.51647  1.0000
  C   C1613     1.0  0.81322  0.14797  0.50058  1.0000
  H   H2735     1.0  0.84934  0.15216  0.46561  1.0000
  H   H2736     1.0  0.86667  0.15604  0.49359  1.0000
  H   H2737     1.0  0.81557  0.14984  0.53058  1.0000
  H   H2738     1.0  0.79830  0.14565  0.50264  1.0000
  C   C1614     1.0  0.89444  0.11581  0.62433  1.0000
  C   C1615     1.0  0.90763  0.11979  0.60866  1.0000
  C   C1616     1.0  0.92714  0.11328  0.60958  1.0000
  C   C1617     1.0  0.93333  0.10309  0.62624  1.0000
  C   C1618     1.0  0.92007  0.09960  0.64181  1.0000
  C   C1619     1.0  0.90082  0.10572  0.64079  1.0000
  H   H2739     1.0  0.90279  0.12793  0.59606  1.0000
  H   H2740     1.0  0.93745  0.11648  0.59773  1.0000
  H   H2741     1.0  0.94986  0.03212  0.42672  1.0000
  H   H2742     1.0  0.94340  0.14381  0.64732  1.0000
  H   H2743     1.0  0.90949  0.48953  0.43568  1.0000
  C   C1620     1.0  0.76743  0.11585  0.36891  1.0000
  C   C1621     1.0  0.76121  0.13482  0.37196  1.0000
  H   H2744     1.0  0.96775  0.10090  0.49809  1.0000
  H   H2745     1.0  0.78185  0.11041  0.37141  1.0000
  C   C1622     1.0  0.79163  0.19536  0.35958  1.0000
  H   H2746     1.0  0.84180  0.47980  0.48387  1.0000
  H   H2747     1.0  0.74882  0.09918  0.43615  1.0000
  C   C1623     1.0  0.76982  0.10085  0.46711  1.0000
  C   C1624     1.0  0.87125  0.47264  0.48855  1.0000
  H   H2748     1.0  0.79650  0.24799  0.38151  1.0000
  C   C1625     1.0  0.76290  0.14011  0.61836  1.0000
  C   C1626     1.0  0.76428  0.14059  0.63788  1.0000
  C   C1627     1.0  0.93243  0.05499  0.43929  1.0000
  H   H2749     1.0  0.87710  0.24560  0.59498  1.0000
  H   H2750     1.0  0.83472  0.26835  0.65091  1.0000
  H   H2751     1.0  0.79875  0.18800  0.37195  1.0000
  Fe  Fe239     1.0  0.99116  0.09326  0.56352  1.0000
  C   C1628     1.0  0.75842  0.21887  0.34186  1.0000
  H   H2752     1.0  0.85285  0.27879  0.60099  1.0000
  S   S479      1.0  0.99055  0.11378  0.58563  1.0000
  C   C1629     1.0  0.87936  0.10566  0.54127  1.0000
  H   H2753     1.0  0.94003  0.06756  0.43371  1.0000
  H   H2754     1.0  0.78530  0.21844  0.39289  1.0000
  N   N114      1.0  0.75685  0.12671  0.44195  1.0000
  H   H2755     1.0  0.98244  0.02308  0.49701  1.0000
  H   H2756     1.0  0.92557  0.02797  0.43190  1.0000
  H   H2757     1.0  0.82234  0.32120  0.59644  1.0000
  H   H2758     1.0  0.95996  0.02011  0.38517  1.0000
  C   C1630     1.0  0.94466  0.36002  0.57273  1.0000
  S   S480      1.0  0.97705  0.10235  0.53659  1.0000
  C   C1631     1.0  0.93384  0.40075  0.55627  1.0000
  H   H2759     1.0  0.80016  0.28980  0.60755  1.0000
  H   H2760     1.0  0.89732  0.04745  0.38320  1.0000
  H   H2761     1.0  0.84805  0.21124  0.63969  1.0000
  C   C1632     1.0  0.94005  0.38304  0.54524  1.0000
  H   H2762     1.0  0.78028  0.05689  0.65218  1.0000
  H   H2763     1.0  0.75276  0.20833  0.40133  1.0000
  H   H2764     1.0  0.76087  0.20398  0.33796  1.0000
  H   H2765     1.0  0.77857  0.18807  0.35924  1.0000
  S   S481      1.0  0.96397  0.31155  0.64221  1.0000
  H   H2766     1.0  0.86493  0.11326  0.54044  1.0000
  H   H2767     1.0  0.97676  0.00488  0.48335  1.0000
  N   N115      1.0  0.84228  0.30484  0.61428  1.0000
  H   H2768     1.0  0.75586  0.00553  0.35695  1.0000
  N   N116      1.0  0.89556  0.32600  0.46938  1.0000
  C   C1633     1.0  0.91490  0.32536  0.45823  1.0000
  C   C1634     1.0  0.88269  0.31690  0.45789  1.0000
  C   C1635     1.0  0.89772  0.31429  0.48814  1.0000
  C   C1636     1.0  0.88895  0.34650  0.47242  1.0000
  C   C1637     1.0  0.93132  0.33153  0.46825  1.0000
  C   C1638     1.0  0.87916  0.32744  0.43825  1.0000
  C   C1639     1.0  0.87960  0.31229  0.50179  1.0000
  C   C1640     1.0  0.86742  0.35141  0.47782  1.0000
  H   H2769     1.0  0.91946  0.31074  0.45394  1.0000
  H   H2770     1.0  0.91442  0.33473  0.44472  1.0000
  H   H2771     1.0  0.86854  0.31513  0.46549  1.0000
  H   H2772     1.0  0.88857  0.30205  0.45545  1.0000
  H   H2773     1.0  0.90417  0.29962  0.48567  1.0000
  H   H2774     1.0  0.90756  0.32056  0.49657  1.0000
  H   H2775     1.0  0.89669  0.35143  0.48367  1.0000
  H   H2776     1.0  0.89281  0.35597  0.45940  1.0000
  H   H2777     1.0  0.92763  0.34544  0.47418  1.0000
  H   H2778     1.0  0.93600  0.32058  0.47954  1.0000
  H   H2779     1.0  0.94378  0.33332  0.45763  1.0000
  H   H2780     1.0  0.89209  0.32665  0.42808  1.0000
  H   H2781     1.0  0.86824  0.32054  0.43185  1.0000
  H   H2782     1.0  0.87369  0.34256  0.43928  1.0000
  H   H2783     1.0  0.88333  0.30259  0.51444  1.0000
  H   H2784     1.0  0.86834  0.30588  0.49553  1.0000
  H   H2785     1.0  0.87409  0.32609  0.50732  1.0000
  H   H2786     1.0  0.86546  0.35873  0.49115  1.0000
  H   H2787     1.0  0.85866  0.33926  0.48031  1.0000
  H   H2788     1.0  0.86129  0.36167  0.46664  1.0000
  H   H2789     1.0  0.81873  0.25008  0.36784  1.0000
  C   C1641     1.0  0.89146  0.17626  0.62138  1.0000
  H   H2790     1.0  0.75695  0.10121  0.47733  1.0000
  H   H2791     1.0  0.86128  0.23156  0.33006  1.0000
  C   C1642     1.0  0.85599  0.29380  0.60080  1.0000
  C   C1643     1.0  0.76196  0.20335  0.38885  1.0000
  H   H2792     1.0  0.97134  0.34293  0.54517  1.0000
  H   H2793     1.0  0.78010  0.11663  0.40815  1.0000
  C   C1644     1.0  0.90315  0.06063  0.38642  1.0000
  H   H2794     1.0  0.88749  0.16262  0.61689  1.0000
  H   H2795     1.0  0.87789  0.18550  0.62330  1.0000
  H   H2796     1.0  0.77454  0.09154  0.65647  1.0000
  H   H2797     1.0  0.76724  0.23280  0.38120  1.0000
  C   C1645     1.0  0.75511  0.10392  0.36222  1.0000
  H   H2798     1.0  0.77075  0.03585  0.36218  1.0000
  Fe  Fe240     1.0  0.88704  0.29678  0.33171  1.0000
  H   H2799     1.0  0.77067  0.09432  0.40760  1.0000
  H   H2800     1.0  0.95256  0.49104  0.49512  1.0000
  C   C1646     1.0  0.77379  0.10483  0.41724  1.0000
  H   H2801     1.0  0.88885  0.26398  0.61892  1.0000
  N   N117      1.0  0.90098  0.17266  0.63971  1.0000
  H   H2802     1.0  0.92930  0.16835  0.62519  1.0000
  C   C1647     1.0  0.99048  0.01027  0.59650  1.0000
  H   H2803     1.0  0.93059  0.15757  0.54656  1.0000
  H   H2804     1.0  0.94059  0.12438  0.54684  1.0000
  H   H2805     1.0  0.93396  0.07684  0.57851  1.0000
  C   C1648     1.0  0.80561  0.22483  0.36265  1.0000
  H   H2806     1.0  0.82282  0.27877  0.59968  1.0000
  H   H2807     1.0  0.96187  0.04795  0.39950  1.0000
  C   C1649     1.0  0.97928  0.09010  0.50093  1.0000
  H   H2808     1.0  0.81437  0.21631  0.37320  1.0000
  C   C1650     1.0  0.97803  0.31175  0.32619  1.0000
  H   H2809     1.0  0.92587  0.03030  0.38091  1.0000
  C   C1651     1.0  0.92522  0.12768  0.55137  1.0000
  H   H2810     1.0  0.78443  0.09755  0.42659  1.0000
  H   H2811     1.0  0.86517  0.32100  0.62011  1.0000
  Fe  Fe241     1.0  0.98074  0.08975  0.60576  1.0000
  H   H2812     1.0  0.93285  0.15430  0.37382  1.0000
  H   H2813     1.0  0.90068  0.15252  0.37274  1.0000
  H   H2814     1.0  0.87063  0.29267  0.60551  1.0000
  H   H2815     1.0  0.77769  0.14284  0.42468  1.0000
  H   H2816     1.0  0.91665  0.14771  0.62877  1.0000
  H   H2817     1.0  0.76996  0.08897  0.45801  1.0000
  H   H2818     1.0  0.77211  0.13082  0.46602  1.0000
  N   N118      1.0  0.90425  0.18673  0.39103  1.0000
  C   C1652     1.0  0.90206  0.20783  0.39358  1.0000
  C   C1653     1.0  0.89445  0.17686  0.40860  1.0000
  C   C1654     1.0  0.89446  0.18388  0.37367  1.0000
  C   C1655     1.0  0.92522  0.18046  0.38834  1.0000
  C   C1656     1.0  0.90812  0.22124  0.37594  1.0000
  C   C1657     1.0  0.90357  0.17773  0.42732  1.0000
  C   C1658     1.0  0.88879  0.16376  0.37169  1.0000
  C   C1659     1.0  0.93109  0.15885  0.38849  1.0000
  H   H2819     1.0  0.88698  0.21265  0.39809  1.0000
  H   H2820     1.0  0.91041  0.21106  0.40515  1.0000
  H   H2821     1.0  0.89349  0.16155  0.40725  1.0000
  H   H2822     1.0  0.87940  0.18302  0.41072  1.0000
  H   H2823     1.0  0.88093  0.19327  0.37329  1.0000
  H   H2824     1.0  0.90334  0.18815  0.36038  1.0000
  H   H2825     1.0  0.93158  0.18693  0.37454  1.0000
  H   H2826     1.0  0.93315  0.18609  0.39906  1.0000
  H   H2827     1.0  0.90633  0.23617  0.37989  1.0000
  H   H2828     1.0  0.92326  0.21820  0.37075  1.0000
  H   H2829     1.0  0.89897  0.22089  0.36417  1.0000
  H   H2830     1.0  0.91840  0.17100  0.42667  1.0000
  H   H2831     1.0  0.90301  0.19248  0.43144  1.0000
  H   H2832     1.0  0.89535  0.16953  0.43897  1.0000
  H   H2833     1.0  0.87683  0.16011  0.38226  1.0000
  H   H2834     1.0  0.96928  0.02845  0.52509  1.0000
  H   H2835     1.0  0.88353  0.16351  0.35748  1.0000
  H   H2836     1.0  0.91717  0.05973  0.44259  1.0000
  H   H2837     1.0  0.92121  0.14989  0.39739  1.0000
  H   H2838     1.0  0.94488  0.15543  0.39483  1.0000
  H   H2839     1.0  0.96454  0.06103  0.36904  1.0000
  H   H2840     1.0  0.94767  0.46837  0.50672  1.0000
  C   C1660     1.0  0.76840  0.06515  0.64502  1.0000
  H   H2841     1.0  0.90737  0.10050  0.57545  1.0000
  H   H2842     1.0  0.92401  0.41064  0.54790  1.0000
  C   C1661     1.0  0.76254  0.14469  0.43048  1.0000
  H   H2843     1.0  0.91485  0.07191  0.40930  1.0000
  C   C1662     1.0  0.75529  0.01802  0.34610  1.0000
  H   H2844     1.0  0.93663  0.33509  0.54806  1.0000
  H   H2845     1.0  0.98175  0.08046  0.47281  1.0000
  S   S482      1.0  0.87189  0.32647  0.32884  1.0000
  C   C1663     1.0  0.75514  0.11187  0.42851  1.0000
  H   H2846     1.0  0.84340  0.30376  0.57373  1.0000
  S   S483      1.0  0.91681  0.33823  0.65791  1.0000
  H   H2847     1.0  0.96840  0.38575  0.57106  1.0000
  H   H2848     1.0  0.81236  0.31376  0.61953  1.0000
  H   H2849     1.0  0.90067  0.47006  0.49450  1.0000
  H   H2850     1.0  0.77271  0.24189  0.34900  1.0000
  C   C1664     1.0  0.80445  0.19058  0.34149  1.0000
  H   H2851     1.0  0.94242  0.08002  0.55397  1.0000
  H   H2852     1.0  0.82406  0.34054  0.62597  1.0000
  H   H2853     1.0  0.85895  0.17053  0.64610  1.0000
  C   C1665     1.0  0.77240  0.02912  0.34857  1.0000
  H   H2854     1.0  0.84010  0.33239  0.64421  1.0000
  H   H2855     1.0  0.91555  0.09145  0.52543  1.0000
  C   C1666     1.0  0.88766  0.47942  0.49406  1.0000
  C   C1667     1.0  0.77185  0.12024  0.45545  1.0000
  H   H2856     1.0  0.86378  0.31575  0.57765  1.0000
  C   C1668     1.0  0.91300  0.05753  0.40506  1.0000
  N   N119      1.0  0.93157  0.04504  0.40510  1.0000
  H   H2857     1.0  0.94595  0.40889  0.55821  1.0000
  H   H2858     1.0  0.93712  0.10011  0.52830  1.0000
  H   H2859     1.0  0.76026  0.08939  0.35977  1.0000
  C   C1669     1.0  0.91939  0.16054  0.63557  1.0000
  C   C1670     1.0  0.97712  0.40694  0.50675  1.0000
  H   H2860     1.0  0.84550  0.35126  0.62685  1.0000
  C   C1671     1.0  0.94930  0.06114  0.37455  1.0000
  H   H2861     1.0  0.94814  0.06938  0.40286  1.0000
  C   C1672     1.0  0.97666  0.46858  0.49363  1.0000
  C   C1673     1.0  0.91968  0.14838  0.54344  1.0000
  C   C1674     1.0  0.96895  0.35018  0.36619  1.0000
  C   C1675     1.0  0.77679  0.22676  0.34621  1.0000
  C   C1676     1.0  0.94802  0.05581  0.39625  1.0000
  H   H2862     1.0  0.95894  0.33944  0.36457  1.0000
  C   C1677     1.0  0.85734  0.30201  0.57976  1.0000
  H   H2863     1.0  0.91480  0.17626  0.59833  1.0000
  H   H2864     1.0  0.94236  0.07567  0.37114  1.0000
  H   H2865     1.0  0.90590  0.15409  0.55052  1.0000
  H   H2866     1.0  0.93283  0.12741  0.50756  1.0000
  H   H2867     1.0  0.90711  0.12790  0.50933  1.0000
  H   H2868     1.0  0.83873  0.26494  0.62633  1.0000
  H   H2869     1.0  0.89080  0.07150  0.38823  1.0000
  H   H2870     1.0  0.94346  0.05096  0.36639  1.0000
  H   H2871     1.0  0.98801  0.32899  0.37969  1.0000
  H   H2872     1.0  0.87786  0.09372  0.55250  1.0000
  H   H2873     1.0  0.90747  0.08390  0.55825  1.0000
  N   N120      1.0  0.95421  0.36837  0.55425  1.0000
  C   C1678     1.0  0.97121  0.37842  0.55773  1.0000
  H   H2874     1.0  0.74540  0.05790  0.34287  1.0000
  H   H2875     1.0  0.76281  0.09555  0.63458  1.0000
  H   H2876     1.0  0.92470  0.09189  0.65475  1.0000
  C   C1679     1.0  0.81399  0.29253  0.59945  1.0000
  H   H2877     1.0  0.94403  0.09835  0.56965  1.0000
  C   C1680     1.0  0.92172  0.10478  0.52781  1.0000
  C   C1681     1.0  0.92056  0.11859  0.50965  1.0000
  N   N121      1.0  0.91363  0.11237  0.54635  1.0000
  H   H2878     1.0  0.91897  0.14990  0.52786  1.0000
  H   H2879     1.0  0.92092  0.11019  0.49715  1.0000
  S   S484      1.0  0.87365  0.26886  0.33017  1.0000
  H   H2880     1.0  0.96381  0.33302  0.57424  1.0000
  C   C1682     1.0  0.90305  0.18612  0.60426  1.0000
  H   H2881     1.0  0.76570  0.17478  0.43159  1.0000
  Fe  Fe242     1.0  0.92617  0.31225  0.33010  1.0000
  H   H2882     1.0  0.92674  0.37674  0.54326  1.0000
  H   H2883     1.0  0.94527  0.33449  0.59248  1.0000
  H   H2884     1.0  0.96798  0.36081  0.35366  1.0000
  H   H2885     1.0  0.90225  0.05150  0.41595  1.0000
  H   H2886     1.0  0.76887  0.16110  0.45373  1.0000
  H   H2887     1.0  0.77486  0.04014  0.33655  1.0000
  C   C1683     1.0  0.89295  0.11981  0.54612  1.0000
  C   C1684     1.0  0.97815  0.38993  0.49809  1.0000
  C   C1685     1.0  0.95564  0.34312  0.58356  1.0000
  H   H2888     1.0  0.81085  0.29675  0.58448  1.0000
  H   H2889     1.0  0.75459  0.14794  0.41762  1.0000
  C   C1686     1.0  0.91481  0.09607  0.56178  1.0000
  H   H2890     1.0  0.94579  0.38831  0.53069  1.0000
  H   H2891     1.0  0.92442  0.12820  0.56707  1.0000
  H   H2892     1.0  0.78638  0.22735  0.33279  1.0000
  H   H2893     1.0  0.88362  0.10021  0.52720  1.0000
  C   C1687     1.0  0.98730  0.07865  0.48659  1.0000
  H   H2894     1.0  0.79860  0.19745  0.32832  1.0000
  H   H2895     1.0  0.96374  0.35702  0.37937  1.0000
  C   C1688     1.0  0.93006  0.02716  0.39561  1.0000
  C   C1689     1.0  0.77565  0.21863  0.38134  1.0000
  C   C1690     1.0  0.85453  0.48489  0.48802  1.0000
  H   H2896     1.0  0.93817  0.04947  0.45301  1.0000
  H   H2897     1.0  0.88993  0.47743  0.44671  1.0000
  H   H2898     1.0  0.95033  0.33104  0.52607  1.0000
  H   H2899     1.0  0.96645  0.36059  0.52664  1.0000
  C   C1691     1.0  0.96001  0.35367  0.54023  1.0000
  H   H2900     1.0  0.90858  0.19931  0.60779  1.0000
  C   C1692     1.0  0.74928  0.13497  0.65129  1.0000
  H   H2901     1.0  0.75814  0.01168  0.33223  1.0000
  C   C1693     1.0  0.80414  0.24582  0.36737  1.0000
  C   C1694     1.0  0.83247  0.27528  0.63644  1.0000
  N   N122      1.0  0.78702  0.21625  0.36233  1.0000
  H   H2902     1.0  0.91848  0.01905  0.40323  1.0000
  H   H2903     1.0  0.94153  0.37104  0.58304  1.0000
  H   H2904     1.0  0.93029  0.35587  0.57089  1.0000
  H   H2905     1.0  0.78634  0.11956  0.44776  1.0000
  H   H2906     1.0  0.88639  0.14745  0.64879  1.0000
  H   H2907     1.0  0.98336  0.02381  0.60027  1.0000
  H   H2908     1.0  0.96521  0.34821  0.59307  1.0000
  C   C1695     1.0  0.98632  0.08764  0.51885  1.0000
  C   C1696     1.0  0.76036  0.16280  0.44127  1.0000
  C   C1697     1.0  0.82261  0.30896  0.60763  1.0000
  H   H2909     1.0  0.97394  0.38990  0.54613  1.0000
  C   C1698     1.0  0.84181  0.29421  0.63383  1.0000
  H   H2910     1.0  0.92586  0.39702  0.57017  1.0000
  H   H2911     1.0  0.97405  0.99829  0.54590  1.0000
  H   H2912     1.0  0.95315  0.00804  0.40826  1.0000
  H   H2913     1.0  0.81688  0.27769  0.63573  1.0000
  H   H2914     1.0  0.85651  0.29118  0.63835  1.0000
  H   H2915     1.0  0.78718  0.08695  0.63428  1.0000
  H   H2916     1.0  0.83380  0.30293  0.64467  1.0000
  H   H2917     1.0  0.97981  0.45496  0.50230  1.0000
  C   C1699     1.0  0.87488  0.24839  0.64295  1.0000
  H   H2918     1.0  0.97252  0.46424  0.48003  1.0000
  H   H2919     1.0  0.80535  0.17492  0.34055  1.0000
  H   H2920     1.0  0.78220  0.09758  0.47572  1.0000
  H   H2921     1.0  0.81922  0.19418  0.34207  1.0000
  C   C1700     1.0  0.86367  0.23313  0.64865  1.0000
  C   C1701     1.0  0.98710  0.00858  0.49286  1.0000
  C   C1702     1.0  0.77316  0.08605  0.64266  1.0000
  S   S485      1.0  0.98183  0.06034  0.42982  1.0000
  H   H2922     1.0  0.98810  0.37050  0.38838  1.0000
  H   H2923     1.0  0.74722  0.22009  0.35380  1.0000
  H   H2924     1.0  0.89078  0.10261  0.65296  1.0000
  C   C1703     1.0  0.99044  0.36626  0.55887  1.0000
  Fe  Fe243     1.0  0.93265  0.30992  0.65296  1.0000
  H   H2925     1.0  0.75256  0.20016  0.37829  1.0000
  H   H2926     1.0  0.74509  0.11747  0.41771  1.0000
  C   C1704     1.0  0.90462  0.19161  0.64611  1.0000
  H   H2927     1.0  0.99020  0.03672  0.53336  1.0000
  C   C1705     1.0  0.97874  0.02712  0.53672  1.0000
  C   C1706     1.0  0.98665  0.00638  0.54151  1.0000
  S   S486      1.0  0.95696  0.30044  0.33294  1.0000
  C   C1707     1.0  0.98914  0.33989  0.36731  1.0000
  H   H2928     1.0  0.74645  0.03840  0.63786  1.0000
  C   C1708     1.0  0.98460  0.30787  0.65481  1.0000
  H   H2929     1.0  0.74517  0.13303  0.59758  1.0000
  H   H2930     1.0  0.99229  0.33176  0.35455  1.0000
  H   H2931     1.0  0.96155  0.48290  0.51792  1.0000
  H   H2932     1.0  0.98967  0.35359  0.56925  1.0000
  C   C1709     1.0  0.94831  0.01340  0.39415  1.0000
  C   C1710     1.0  0.99277  0.41147  0.51539  1.0000
  H   H2933     1.0  0.99195  0.42449  0.52233  1.0000
  C   C1711     1.0  0.74649  0.13342  0.61260  1.0000
  H   H2934     1.0  0.96605  0.99462  0.60545  1.0000
  C   C1712     1.0  0.98070  0.99369  0.59941  1.0000
  H   H2935     1.0  0.88817  0.48910  0.42344  1.0000
  C   C1713     1.0  0.89374  0.49028  0.43730  1.0000
  C   C1714     1.0  0.88797  0.16158  0.65384  1.0000
  C   C1715     1.0  0.93093  0.15333  0.65253  1.0000
  C   C1716     1.0  0.74603  0.04085  0.65316  1.0000
  H   H2936     1.0  0.93672  0.16520  0.65849  1.0000
  H   H2937     1.0  0.77481  0.02589  0.65465  1.0000
  C   C1717     1.0  0.86776  0.17133  0.65803  1.0000
  N   N123      1.0  0.74946  0.06116  0.65557  1.0000
  Fe  Fe244     1.0  0.89555  0.29034  0.65804  1.0000
  Fe  Fe245     1.0  0.80247  0.38890  0.83701  1.0000
  S   S487      1.0  0.82418  0.36365  0.83493  1.0000
  S   S488      1.0  0.77063  0.38821  0.84626  1.0000
  Fe  Fe246     1.0  0.83139  0.41719  0.82100  1.0000
  S   S489      1.0  0.85494  0.39364  0.81728  1.0000
  S   S490      1.0  0.84101  0.44683  0.81237  1.0000
  Fe  Fe247     1.0  0.83389  0.37713  0.80576  1.0000
  S   S491      1.0  0.83719  0.35705  0.78157  1.0000
  Fe  Fe248     1.0  0.84369  0.38209  0.84643  1.0000
  S   S492      1.0  0.86621  0.37120  0.86645  1.0000
  S   S493      1.0  0.81097  0.40161  0.80721  1.0000
  S   S494      1.0  0.82136  0.40643  0.85080  1.0000
  Fe  Fe249     1.0  0.88616  0.40296  0.96787  1.0000
  S   S495      1.0  0.86265  0.40254  0.94813  1.0000
  S   S496      1.0  0.90673  0.42542  0.96271  1.0000
  Fe  Fe250     1.0  0.89957  0.32348  0.68241  1.0000
  S   S497      1.0  0.91691  0.29521  0.67858  1.0000
  S   S498      1.0  0.89755  0.33906  0.70996  1.0000
  H   H2938     1.0  0.91719  0.20254  0.66913  1.0000
  C   C1718     1.0  0.97844  0.39640  0.97305  1.0000
  H   H2939     1.0  0.82297  0.43114  0.89356  1.0000
  H   H2940     1.0  0.89682  0.30252  0.82979  1.0000
  H   H2941     1.0  0.90671  0.31497  0.85502  1.0000
  H   H2942     1.0  0.77401  0.39102  0.80265  1.0000
  C   C1719     1.0  0.80946  0.48700  0.84275  1.0000
  C   C1720     1.0  0.85382  0.47308  0.86978  1.0000
  H   H2943     1.0  0.84332  0.31786  0.84839  1.0000
  H   H2944     1.0  0.86060  0.16362  0.67072  1.0000
  S   S499      1.0  0.90767  0.38013  0.97938  1.0000
  S   S500      1.0  0.87741  0.31788  0.66334  1.0000
  H   H2945     1.0  0.75795  0.32724  0.93670  1.0000
  C   C1721     1.0  0.75496  0.33731  0.87263  1.0000
  H   H2946     1.0  0.88663  0.42805  0.90769  1.0000
  S   S501      1.0  0.95761  0.40240  0.96114  1.0000
  H   H2947     1.0  0.89147  0.29960  0.77618  1.0000
  C   C1722     1.0  0.85369  0.35323  0.76110  1.0000
  C   C1723     1.0  0.87069  0.36199  0.75762  1.0000
  C   C1724     1.0  0.88380  0.35751  0.74194  1.0000
  C   C1725     1.0  0.88006  0.34447  0.72924  1.0000
  C   C1726     1.0  0.86298  0.33584  0.73265  1.0000
  C   C1727     1.0  0.85001  0.34009  0.74851  1.0000
  H   H2948     1.0  0.87378  0.37219  0.76703  1.0000
  H   H2949     1.0  0.89688  0.36436  0.73951  1.0000
  H   H2950     1.0  0.85985  0.32572  0.72317  1.0000
  H   H2951     1.0  0.83702  0.33309  0.75101  1.0000
  C   C1728     1.0  0.88645  0.30122  0.79136  1.0000
  C   C1729     1.0  0.83193  0.46848  0.82201  1.0000
  C   C1730     1.0  0.81577  0.46962  0.83499  1.0000
  H   H2952     1.0  0.77477  0.34556  0.91147  1.0000
  H   H2953     1.0  0.80813  0.45716  0.83904  1.0000
  C   C1731     1.0  0.86513  0.37970  0.88926  1.0000
  C   C1732     1.0  0.88124  0.37682  0.89963  1.0000
  C   C1733     1.0  0.88081  0.38369  0.91771  1.0000
  C   C1734     1.0  0.86415  0.39329  0.92565  1.0000
  C   C1735     1.0  0.84800  0.39593  0.91535  1.0000
  C   C1736     1.0  0.84849  0.38927  0.89724  1.0000
  H   H2954     1.0  0.89415  0.36936  0.89363  1.0000
  H   H2955     1.0  0.89331  0.38150  0.92553  1.0000
  H   H2956     1.0  0.83503  0.40319  0.92147  1.0000
  H   H2957     1.0  0.83593  0.39137  0.88955  1.0000
  H   H2958     1.0  0.82525  0.45602  0.89270  1.0000
  H   H2959     1.0  0.86402  0.30432  0.82262  1.0000
  C   C1737     1.0  0.75742  0.36952  0.85758  1.0000
  C   C1738     1.0  0.76613  0.35172  0.86391  1.0000
  H   H2960     1.0  0.76018  0.35898  0.76793  1.0000
  H   H2961     1.0  0.77599  0.37027  0.90457  1.0000
  H   H2962     1.0  0.78146  0.34909  0.86215  1.0000
  H   H2963     1.0  0.76185  0.32363  0.87758  1.0000
  H   H2964     1.0  0.77587  0.36216  0.92923  1.0000
  H   H2965     1.0  0.79696  0.48777  0.85280  1.0000
  H   H2966     1.0  0.93215  0.36427  0.71142  1.0000
  H   H2967     1.0  0.93588  0.33132  0.72263  1.0000
  C   C1739     1.0  0.78409  0.35253  0.80857  1.0000
  C   C1740     1.0  0.84660  0.44001  0.87402  1.0000
  C   C1741     1.0  0.75313  0.36992  0.80271  1.0000
  C   C1742     1.0  0.89869  0.31789  0.82585  1.0000
  C   C1743     1.0  0.79612  0.33309  0.81121  1.0000
  H   H2968     1.0  0.86767  0.45543  0.90035  1.0000
  H   H2969     1.0  0.76535  0.32280  0.79654  1.0000
  C   C1744     1.0  0.88667  0.48840  0.94868  1.0000
  H   H2970     1.0  0.89389  0.15802  0.66773  1.0000
  H   H2971     1.0  0.91218  0.31821  0.81636  1.0000
  H   H2972     1.0  0.88819  0.45538  0.85157  1.0000
  H   H2973     1.0  0.79389  0.36332  0.80232  1.0000
  N   N124      1.0  0.96801  0.34675  0.69961  1.0000
  C   C1745     1.0  0.75653  0.33571  0.80081  1.0000
  C   C1746     1.0  0.89785  0.35870  0.80561  1.0000
  H   H2974     1.0  0.85410  0.48415  0.80676  1.0000
  H   H2975     1.0  0.84244  0.47500  0.85991  1.0000
  C   C1747     1.0  0.97073  0.44924  0.96830  1.0000
  C   C1748     1.0  0.95634  0.36617  0.66948  1.0000
  H   H2976     1.0  0.88779  0.42857  0.83350  1.0000
  N   N125      1.0  0.88229  0.32726  0.81523  1.0000
  Fe  Fe251     1.0  0.92774  0.40335  0.97616  1.0000
  H   H2977     1.0  0.81141  0.33559  0.81000  1.0000
  H   H2978     1.0  0.79476  0.32289  0.80073  1.0000
  H   H2979     1.0  0.79312  0.32621  0.82584  1.0000
  H   H2980     1.0  0.94323  0.48533  0.96088  1.0000
  H   H2981     1.0  0.91143  0.17875  0.67532  1.0000
  H   H2982     1.0  0.94030  0.34722  0.68856  1.0000
  H   H2983     1.0  0.89875  0.35914  0.78986  1.0000
  H   H2984     1.0  0.75590  0.35365  0.95405  1.0000
  C   C1749     1.0  0.74960  0.06301  0.67668  1.0000
  C   C1750     1.0  0.75986  0.39001  0.79781  1.0000
  H   H2985     1.0  0.78130  0.32719  0.76870  1.0000
  C   C1751     1.0  0.93403  0.48686  0.97384  1.0000
  H   H2986     1.0  0.76403  0.05879  0.68146  1.0000
  H   H2987     1.0  0.87221  0.29576  0.79365  1.0000
  H   H2988     1.0  0.94108  0.31682  0.70279  1.0000
  H   H2989     1.0  0.91957  0.46200  0.97132  1.0000
  C   C1752     1.0  0.85778  0.32262  0.84464  1.0000
  H   H2990     1.0  0.75927  0.33120  0.83184  1.0000
  H   H2991     1.0  0.95244  0.37935  0.67677  1.0000
  C   C1753     1.0  0.86371  0.31992  0.82352  1.0000
  C   C1754     1.0  0.90660  0.19239  0.66756  1.0000
  H   H2992     1.0  0.87561  0.41851  0.89024  1.0000
  C   C1755     1.0  0.94314  0.36733  0.72040  1.0000
  C   C1756     1.0  0.84162  0.48488  0.81684  1.0000
  H   H2993     1.0  0.84149  0.43884  0.90537  1.0000
  H   H2994     1.0  0.78032  0.37010  0.77303  1.0000
  H   H2995     1.0  0.89043  0.33530  0.85102  1.0000
  H   H2996     1.0  0.94728  0.30784  0.72589  1.0000
  H   H2997     1.0  0.94099  0.35927  0.73458  1.0000
  H   H2998     1.0  0.88727  0.45919  0.88398  1.0000
  H   H2999     1.0  0.88467  0.41889  0.85769  1.0000
  C   C1757     1.0  0.88546  0.32252  0.79476  1.0000
  C   C1758     1.0  0.74846  0.33111  0.82163  1.0000
  C   C1759     1.0  0.76986  0.35999  0.91585  1.0000
  C   C1760     1.0  0.78683  0.34139  0.76708  1.0000
  C   C1761     1.0  0.83351  0.44187  0.89256  1.0000
  H   H3000     1.0  0.95977  0.44581  0.95932  1.0000
  H   H3001     1.0  0.97042  0.36674  0.66125  1.0000
  H   H3002     1.0  0.74435  0.33694  0.79182  1.0000
  N   N126      1.0  0.76710  0.35338  0.79715  1.0000
  H   H3003     1.0  0.85186  0.32663  0.81516  1.0000
  H   H3004     1.0  0.83749  0.44277  0.86191  1.0000
  H   H3005     1.0  0.89855  0.42735  0.88403  1.0000
  C   C1762     1.0  0.87525  0.45011  0.88712  1.0000
  C   C1763     1.0  0.76027  0.02525  0.66187  1.0000
  C   C1764     1.0  0.90254  0.32666  0.84416  1.0000
  C   C1765     1.0  0.94640  0.32093  0.71588  1.0000
  H   H3006     1.0  0.86682  0.45736  0.84014  1.0000
  H   H3007     1.0  0.85689  0.33767  0.84785  1.0000
  H   H3008     1.0  0.88815  0.47504  0.95827  1.0000
  H   H3009     1.0  0.85961  0.22977  0.66363  1.0000
  N   N127      1.0  0.86269  0.45271  0.87092  1.0000
  H   H3010     1.0  0.87403  0.32999  0.78637  1.0000
  H   H3011     1.0  0.89659  0.29221  0.80012  1.0000
  H   H3012     1.0  0.85173  0.42471  0.87400  1.0000
  H   H3013     1.0  0.74940  0.09467  0.67575  1.0000
  C   C1766     1.0  0.77297  0.35683  0.77613  1.0000
  C   C1767     1.0  0.88042  0.34871  0.81485  1.0000
  H   H3014     1.0  0.91137  0.35199  0.81078  1.0000
  C   C1768     1.0  0.88452  0.42988  0.89225  1.0000
  H   H3015     1.0  0.89900  0.32761  0.78779  1.0000
  H   H3016     1.0  0.96814  0.37688  0.70359  1.0000
  C   C1769     1.0  0.96408  0.44380  0.98940  1.0000
  H   H3017     1.0  0.86734  0.31365  0.85406  1.0000
  H   H3018     1.0  0.89308  0.19851  0.67481  1.0000
  H   H3019     1.0  0.77944  0.35654  0.82319  1.0000
  H   H3020     1.0  0.75993  0.39452  0.78236  1.0000
  H   H3021     1.0  0.86806  0.35483  0.80698  1.0000
  H   H3022     1.0  0.78912  0.34546  0.75153  1.0000
  H   H3023     1.0  0.87870  0.48883  0.87275  1.0000
  C   C1770     1.0  0.92052  0.47381  0.97963  1.0000
  H   H3024     1.0  0.97223  0.29094  0.67885  1.0000
  C   C1771     1.0  0.87415  0.44950  0.85217  1.0000
  H   H3025     1.0  0.91492  0.33529  0.84140  1.0000
  H   H3026     1.0  0.94020  0.38279  0.72221  1.0000
  H   H3027     1.0  0.97209  0.32863  0.72573  1.0000
  H   H3028     1.0  0.87708  0.35369  0.82922  1.0000
  H   H3029     1.0  0.80103  0.34064  0.77252  1.0000
  C   C1772     1.0  0.87798  0.42879  0.84671  1.0000
  H   H3030     1.0  0.89626  0.37375  0.80917  1.0000
  H   H3031     1.0  0.86472  0.42328  0.84332  1.0000
  C   C1773     1.0  0.98488  0.29728  0.67252  1.0000
  S   S502      1.0  0.88160  0.26211  0.66060  1.0000
  H   H3032     1.0  0.97271  0.36155  0.72374  1.0000
  C   C1774     1.0  0.98832  0.34702  0.69085  1.0000
  H   H3033     1.0  0.87780  0.48549  0.93750  1.0000
  C   C1775     1.0  0.74796  0.36380  0.91727  1.0000
  C   C1776     1.0  0.96377  0.36342  0.71155  1.0000
  H   H3034     1.0  0.74609  0.08256  0.69897  1.0000
  H   H3035     1.0  0.74477  0.37919  0.91942  1.0000
  H   H3036     1.0  0.74355  0.36228  0.90292  1.0000
  C   C1777     1.0  0.86735  0.48869  0.86311  1.0000
  C   C1778     1.0  0.96635  0.32809  0.71175  1.0000
  H   H3037     1.0  0.87369  0.48752  0.84828  1.0000
  H   H3038     1.0  0.86783  0.18639  0.66097  1.0000
  H   H3039     1.0  0.90117  0.49114  0.94232  1.0000
  H   H3040     1.0  0.74980  0.40047  0.80531  1.0000
  C   C1779     1.0  0.95548  0.34807  0.68345  1.0000
  H   H3041     1.0  0.97517  0.31633  0.70488  1.0000
  H   H3042     1.0  0.99121  0.33694  0.67961  1.0000
  H   H3043     1.0  0.75572  0.01106  0.65986  1.0000
  H   H3044     1.0  0.95912  0.33556  0.67497  1.0000
  H   H3045     1.0  0.76062  0.02581  0.67741  1.0000
  H   H3046     1.0  0.75041  0.13581  0.66629  1.0000
  H   H3047     1.0  0.97239  0.46464  0.96522  1.0000
  H   H3048     1.0  0.84673  0.47682  0.88380  1.0000
  H   H3049     1.0  0.99096  0.36128  0.68354  1.0000
  H   H3050     1.0  0.98412  0.44084  0.96362  1.0000
  H   H3051     1.0  0.92288  0.14453  0.66370  1.0000
  H   H3052     1.0  0.74732  0.32844  0.91495  1.0000
  H   H3053     1.0  0.74920  0.36876  0.81834  1.0000
  H   H3054     1.0  0.94587  0.36591  0.65887  1.0000
  C   C1780     1.0  0.74420  0.33089  0.93027  1.0000
  H   H3055     1.0  0.96220  0.42829  0.99078  1.0000
  C   C1781     1.0  0.97778  0.38843  0.99195  1.0000
  H   H3056     1.0  0.98165  0.47626  0.98982  1.0000
  H   H3057     1.0  0.94955  0.45091  0.99190  1.0000
  C   C1782     1.0  0.82417  0.61172  0.30487  1.0000
  H   H3058     1.0  0.87077  0.62346  0.15066  1.0000
  S   S503      1.0  0.91294  0.62397  0.31864  1.0000
  C   C1783     1.0  0.85464  0.52033  0.11681  1.0000
  Fe  Fe252     1.0  0.89539  0.64843  0.30412  1.0000
  S   S504      1.0  0.87603  0.64646  0.27992  1.0000
  S   S505      1.0  0.91772  0.66929  0.30429  1.0000
  Fe  Fe253     1.0  0.80958  0.58927  0.16813  1.0000
  S   S506      1.0  0.83268  0.60927  0.16660  1.0000
  S   S507      1.0  0.77777  0.59980  0.17069  1.0000
  Fe  Fe254     1.0  0.83807  0.55369  0.16864  1.0000
  S   S508      1.0  0.86285  0.57157  0.16670  1.0000
  S   S509      1.0  0.84805  0.52187  0.16968  1.0000
  Fe  Fe255     1.0  0.84620  0.58875  0.18903  1.0000
  S   S510      1.0  0.86431  0.59370  0.21345  1.0000
  Fe  Fe256     1.0  0.84768  0.59042  0.14472  1.0000
  S   S511      1.0  0.86248  0.60417  0.11751  1.0000
  S   S512      1.0  0.82212  0.56974  0.19211  1.0000
  S   S513      1.0  0.82390  0.57164  0.14500  1.0000
  C   C1784     1.0  0.99073  0.59570  0.00029  1.0000
  C   C1785     1.0  0.75490  0.70057  0.14280  1.0000
  C   C1786     1.0  0.93654  0.62318  0.03296  1.0000
  Fe  Fe257     1.0  0.91450  0.56648  0.01983  1.0000
  S   S514      1.0  0.90441  0.55723  0.05066  1.0000
  S   S515      1.0  0.94562  0.55887  0.01172  1.0000
  H   H3059     1.0  0.92631  0.58447  0.07656  1.0000
  C   C1787     1.0  0.76395  0.61150  0.15254  1.0000
  H   H3060     1.0  0.91612  0.63579  0.08495  1.0000
  C   C1788     1.0  0.87294  0.59074  0.09869  1.0000
  C   C1789     1.0  0.87771  0.57108  0.10157  1.0000
  C   C1790     1.0  0.88711  0.56105  0.08660  1.0000
  C   C1791     1.0  0.89162  0.57049  0.06855  1.0000
  C   C1792     1.0  0.88654  0.59009  0.06555  1.0000
  C   C1793     1.0  0.87738  0.60017  0.08061  1.0000
  H   H3061     1.0  0.87445  0.56366  0.11542  1.0000
  H   H3062     1.0  0.89100  0.54590  0.08907  1.0000
  H   H3063     1.0  0.88969  0.59748  0.05168  1.0000
  H   H3064     1.0  0.87360  0.61535  0.07822  1.0000
  N   N128      1.0  0.94804  0.60195  0.06267  1.0000
  H   H3065     1.0  0.96846  0.67494  0.32225  1.0000
  H   H3066     1.0  0.91023  0.64390  0.19937  1.0000
  H   H3067     1.0  0.80770  0.51758  0.16673  1.0000
  C   C1794     1.0  0.98249  0.66743  0.32268  1.0000
  H   H3068     1.0  0.97563  0.59822  0.07387  1.0000
  H   H3069     1.0  0.97809  0.57541  0.02105  1.0000
  C   C1795     1.0  0.87754  0.49676  0.07901  1.0000
  C   C1796     1.0  0.77165  0.61510  0.13373  1.0000
  H   H3070     1.0  0.78650  0.61078  0.12992  1.0000
  C   C1797     1.0  0.87357  0.63198  0.26099  1.0000
  C   C1798     1.0  0.88624  0.61609  0.25698  1.0000
  C   C1799     1.0  0.88300  0.60454  0.24262  1.0000
  C   C1800     1.0  0.86720  0.60870  0.23180  1.0000
  C   C1801     1.0  0.85465  0.62472  0.23564  1.0000
  C   C1802     1.0  0.85780  0.63618  0.25013  1.0000
  H   H3071     1.0  0.89855  0.61265  0.26496  1.0000
  H   H3072     1.0  0.89290  0.59228  0.23980  1.0000
  H   H3073     1.0  0.84244  0.62823  0.22754  1.0000
  H   H3074     1.0  0.84783  0.64836  0.25304  1.0000
  S   S516      1.0  0.90543  0.55168  0.99601  1.0000
  N   N129      1.0  0.88985  0.63238  0.16950  1.0000
  H   H3075     1.0  0.90032  0.65963  0.15887  1.0000
  C   C1803     1.0  0.91978  0.62157  0.07951  1.0000
  H   H3076     1.0  0.94586  0.63378  0.03619  1.0000
  H   H3077     1.0  0.97535  0.61774  0.03289  1.0000
  H   H3078     1.0  0.97490  0.58729  0.05252  1.0000
  H   H3079     1.0  0.90048  0.61328  0.13307  1.0000
  C   C1804     1.0  0.89674  0.62888  0.13330  1.0000
  S   S517      1.0  0.91373  0.59512  0.00283  1.0000
  H   H3080     1.0  0.85833  0.52625  0.10197  1.0000
  H   H3081     1.0  0.89015  0.63362  0.11983  1.0000
  H   H3082     1.0  0.87518  0.64783  0.14635  1.0000
  C   C1805     1.0  0.76014  0.62429  0.11979  1.0000
  H   H3083     1.0  0.91840  0.64099  0.16300  1.0000
  C   C1806     1.0  0.83479  0.50182  0.17053  1.0000
  H   H3084     1.0  0.89555  0.57558  0.28817  1.0000
  H   H3085     1.0  0.93945  0.62179  0.01745  1.0000
  S   S518      1.0  0.96596  0.63514  0.31550  1.0000
  C   C1807     1.0  0.88210  0.63336  0.15028  1.0000
  H   H3086     1.0  0.84711  0.50235  0.08671  1.0000
  C   C1808     1.0  0.94141  0.61872  0.07401  1.0000
  H   H3087     1.0  0.85147  0.65761  0.19365  1.0000
  C   C1809     1.0  0.99106  0.58138  0.01532  1.0000
  H   H3088     1.0  0.92141  0.62898  0.03486  1.0000
  H   H3089     1.0  0.91896  0.66405  0.18549  1.0000
  Fe  Fe258     1.0  0.93440  0.64523  0.32050  1.0000
  C   C1810     1.0  0.88025  0.57750  0.29342  1.0000
  H   H3090     1.0  0.92525  0.59757  0.04587  1.0000
  H   H3091     1.0  0.84289  0.58994  0.29243  1.0000
  C   C1811     1.0  0.84447  0.60303  0.29943  1.0000
  H   H3092     1.0  0.94850  0.61735  0.08750  1.0000
  H   H3093     1.0  0.94675  0.58377  0.08929  1.0000
  N   N130      1.0  0.85734  0.59861  0.31532  1.0000
  H   H3094     1.0  0.76631  0.62696  0.10530  1.0000
  H   H3095     1.0  0.89291  0.81887  0.32029  1.0000
  C   C1812     1.0  0.90902  0.60829  0.19203  1.0000
  C   C1813     1.0  0.93952  0.60315  0.04382  1.0000
  H   H3096     1.0  0.88216  0.60695  0.29743  1.0000
  H   H3097     1.0  0.94133  0.55361  0.07505  1.0000
  C   C1814     1.0  0.74459  0.61727  0.15716  1.0000
  H   H3098     1.0  0.91248  0.59265  0.19467  1.0000
  H   H3099     1.0  0.87448  0.50768  0.06705  1.0000
  C   C1815     1.0  0.94208  0.58430  0.07467  1.0000
  H   H3100     1.0  0.89425  0.66430  0.19290  1.0000
  H   H3101     1.0  0.82417  0.62650  0.30884  1.0000
  H   H3102     1.0  0.87232  0.58053  0.28058  1.0000
  H   H3103     1.0  0.94828  0.59375  0.03397  1.0000
  C   C1816     1.0  0.81530  0.50357  0.16838  1.0000
  H   H3104     1.0  0.85022  0.65262  0.16962  1.0000
  H   H3105     1.0  0.85940  0.53020  0.12627  1.0000
  C   C1817     1.0  0.86479  0.50028  0.12116  1.0000
  H   H3106     1.0  0.90976  0.63634  0.13305  1.0000
  C   C1818     1.0  0.94924  0.56502  0.06687  1.0000
  H   H3107     1.0  0.75573  0.69171  0.15655  1.0000
  H   H3108     1.0  0.91009  0.60847  0.16214  1.0000
  H   H3109     1.0  0.90004  0.61281  0.20471  1.0000
  C   C1819     1.0  0.90687  0.65501  0.18782  1.0000
  H   H3110     1.0  0.86381  0.62396  0.18505  1.0000
  H   H3111     1.0  0.96454  0.56115  0.06869  1.0000
  H   H3112     1.0  0.87776  0.63561  0.19860  1.0000
  H   H3113     1.0  0.88821  0.60186  0.17402  1.0000
  H   H3114     1.0  0.97534  0.63050  0.05403  1.0000
  H   H3115     1.0  0.94661  0.56481  0.05178  1.0000
  C   C1820     1.0  0.90413  0.64696  0.16885  1.0000
  C   C1821     1.0  0.97883  0.61665  0.04789  1.0000
  H   H3116     1.0  0.81594  0.61276  0.29219  1.0000
  C   C1822     1.0  0.86025  0.65437  0.18028  1.0000
  H   H3117     1.0  0.89456  0.78633  0.32337  1.0000
  H   H3118     1.0  0.94565  0.63234  0.06659  1.0000
  H   H3119     1.0  0.92412  0.51605  0.00957  1.0000
  C   C1823     1.0  0.89898  0.61238  0.17360  1.0000
  H   H3120     1.0  0.91142  0.62101  0.06722  1.0000
  H   H3121     1.0  0.81657  0.60276  0.31627  1.0000
  H   H3122     1.0  0.92269  0.61488  0.19065  1.0000
  C   C1824     1.0  0.87318  0.63578  0.18407  1.0000
  H   H3123     1.0  0.85076  0.61314  0.28809  1.0000
  H   H3124     1.0  0.86839  0.66675  0.17530  1.0000
  C   C1825     1.0  0.96949  0.60016  0.05986  1.0000
  C   C1826     1.0  0.87728  0.59414  0.30625  1.0000
  H   H3125     1.0  0.91518  0.61085  0.09112  1.0000
  H   H3126     1.0  0.83900  0.52052  0.11979  1.0000
  H   H3127     1.0  0.88633  0.50354  0.08797  1.0000
  H   H3128     1.0  0.85670  0.62928  0.31596  1.0000
  H   H3129     1.0  0.84961  0.56971  0.31954  1.0000
  H   H3130     1.0  0.86213  0.49681  0.13678  1.0000
  H   H3131     1.0  0.75981  0.69167  0.13093  1.0000
  H   H3132     1.0  0.76523  0.71141  0.14251  1.0000
  H   H3133     1.0  0.87664  0.56381  0.30123  1.0000
  C   C1827     1.0  0.92296  0.50448  0.00100  1.0000
  H   H3134     1.0  0.88037  0.50147  0.11892  1.0000
  H   H3135     1.0  0.88769  0.59102  0.31714  1.0000
  C   C1828     1.0  0.98505  0.64796  0.32017  1.0000
  H   H3136     1.0  0.89953  0.49370  0.01914  1.0000
  Fe  Fe259     1.0  0.94444  0.58632  0.99320  1.0000
  H   H3137     1.0  0.99175  0.52658  0.99385  1.0000
  H   H3138     1.0  0.91723  0.82290  0.32343  1.0000
  Fe  Fe260     1.0  0.90565  0.63428  0.64597  1.0000
  S   S519      1.0  0.89995  0.61059  0.62817  1.0000
  S   S520      1.0  0.91331  0.66377  0.63577  1.0000
  H   H3139     1.0  0.85395  0.81731  0.45251  1.0000
  H   H3140     1.0  0.76987  0.86644  0.60004  1.0000
  Fe  Fe261     1.0  0.89933  0.63415  0.34633  1.0000
  S   S521      1.0  0.88542  0.61544  0.37079  1.0000
  S   S522      1.0  0.92191  0.65327  0.34920  1.0000
  Fe  Fe262     1.0  0.89361  0.55229  0.50247  1.0000
  S   S523      1.0  0.89030  0.58433  0.49545  1.0000
  S   S524      1.0  0.86852  0.53507  0.50237  1.0000
  Fe  Fe263     1.0  0.93511  0.55087  0.50611  1.0000
  S   S525      1.0  0.93556  0.58231  0.49899  1.0000
  S   S526      1.0  0.96152  0.53225  0.51296  1.0000
  Fe  Fe264     1.0  0.90926  0.58521  0.51918  1.0000
  S   S527      1.0  0.90988  0.60995  0.53763  1.0000
  Fe  Fe265     1.0  0.91688  0.57919  0.47595  1.0000
  S   S528      1.0  0.92613  0.59482  0.44735  1.0000
  S   S529      1.0  0.91005  0.55369  0.52783  1.0000
  S   S530      1.0  0.91892  0.54722  0.48144  1.0000
  Fe  Fe266     1.0  0.82364  0.80430  0.42578  1.0000
  S   S531      1.0  0.82835  0.83434  0.41465  1.0000
  S   S532      1.0  0.81890  0.79318  0.45693  1.0000
  Fe  Fe267     1.0  0.83079  0.78954  0.38600  1.0000
  S   S533      1.0  0.83604  0.81878  0.37192  1.0000
  S   S534      1.0  0.83096  0.76348  0.36929  1.0000
  Fe  Fe268     1.0  0.85329  0.82137  0.39653  1.0000
  S   S535      1.0  0.88494  0.82479  0.39649  1.0000
  Fe  Fe269     1.0  0.81038  0.82935  0.39099  1.0000
  S   S536      1.0  0.78740  0.85316  0.38222  1.0000
  S   S537      1.0  0.84942  0.79143  0.40918  1.0000
  S   S538      1.0  0.80416  0.79997  0.40360  1.0000
  Fe  Fe270     1.0  0.80595  0.82529  0.59891  1.0000
  S   S539      1.0  0.81362  0.80419  0.57656  1.0000
  S   S540      1.0  0.77743  0.82716  0.61763  1.0000
  Fe  Fe271     1.0  0.84569  0.83992  0.59300  1.0000
  S   S541      1.0  0.85567  0.82064  0.57024  1.0000
  S   S542      1.0  0.86399  0.85978  0.60482  1.0000
  Fe  Fe272     1.0  0.82713  0.82853  0.55910  1.0000
  S   S543      1.0  0.82521  0.83996  0.52798  1.0000
  Fe  Fe273     1.0  0.84180  0.79770  0.58955  1.0000
  S   S544      1.0  0.86248  0.77062  0.59218  1.0000
  S   S545      1.0  0.81796  0.84983  0.58077  1.0000
  S   S546      1.0  0.83322  0.81681  0.61301  1.0000
  Fe  Fe274     1.0  0.96340  0.89641  0.40209  1.0000
  S   S547      1.0  0.96350  0.90747  0.43071  1.0000
  S   S548      1.0  0.93409  0.89601  0.39151  1.0000
  Fe  Fe275     1.0  0.97035  0.89189  0.57333  1.0000
  S   S549      1.0  0.97310  0.92168  0.55979  1.0000
  S   S550      1.0  0.94684  0.87462  0.56610  1.0000
  H   H3141     1.0  0.85202  0.84817  0.46166  1.0000
  C   C1829     1.0  0.88472  0.50818  0.44677  1.0000
  N   N131      1.0  0.91021  0.80141  0.61167  1.0000
  C   C1830     1.0  0.84563  0.66443  0.61619  1.0000
  H   H3142     1.0  0.91650  0.82973  0.63649  1.0000
  H   H3143     1.0  0.88594  0.85947  0.43321  1.0000
  C   C1831     1.0  0.88705  0.86383  0.59405  1.0000
  C   C1832     1.0  0.89855  0.87482  0.60280  1.0000
  C   C1833     1.0  0.91696  0.87826  0.59456  1.0000
  C   C1834     1.0  0.92404  0.87062  0.57753  1.0000
  C   C1835     1.0  0.91261  0.85942  0.56896  1.0000
  C   C1836     1.0  0.89417  0.85616  0.57706  1.0000
  H   H3144     1.0  0.89317  0.88081  0.61595  1.0000
  H   H3145     1.0  0.92563  0.88687  0.60132  1.0000
  H   H3146     1.0  0.91800  0.85331  0.55587  1.0000
  H   H3147     1.0  0.88547  0.84780  0.57011  1.0000
  C   C1837     1.0  0.76526  0.85366  0.37187  1.0000
  C   C1838     1.0  0.87986  0.54236  0.44885  1.0000
  H   H3148     1.0  0.76077  0.88434  0.37015  1.0000
  C   C1839     1.0  0.75733  0.83707  0.36857  1.0000
  H   H3149     1.0  0.89792  0.83902  0.33158  1.0000
  C   C1840     1.0  0.87075  0.85753  0.43747  1.0000
  H   H3150     1.0  0.76500  0.82331  0.37174  1.0000
  C   C1841     1.0  0.82032  0.80639  0.47661  1.0000
  C   C1842     1.0  0.82067  0.82619  0.47443  1.0000
  C   C1843     1.0  0.82181  0.83626  0.49038  1.0000
  C   C1844     1.0  0.82284  0.82662  0.50863  1.0000
  C   C1845     1.0  0.82245  0.80682  0.51082  1.0000
  C   C1846     1.0  0.82108  0.79678  0.49487  1.0000
  H   H3151     1.0  0.82019  0.83370  0.46043  1.0000
  H   H3152     1.0  0.82208  0.85159  0.48860  1.0000
  H   H3153     1.0  0.82322  0.79924  0.52480  1.0000
  H   H3154     1.0  0.82075  0.78145  0.49670  1.0000
  C   C1847     1.0  0.89795  0.84499  0.39566  1.0000
  C   C1848     1.0  0.89016  0.86341  0.39024  1.0000
  C   C1849     1.0  0.90138  0.87890  0.38921  1.0000
  C   C1850     1.0  0.92037  0.87616  0.39379  1.0000
  C   C1851     1.0  0.92802  0.85776  0.39957  1.0000
  C   C1852     1.0  0.91690  0.84225  0.40033  1.0000
  H   H3155     1.0  0.87563  0.86572  0.38653  1.0000
  H   H3156     1.0  0.89537  0.89308  0.38467  1.0000
  H   H3157     1.0  0.94263  0.85546  0.40305  1.0000
  H   H3158     1.0  0.92309  0.82804  0.40449  1.0000
  H   H3159     1.0  0.90189  0.85727  0.46646  1.0000
  H   H3160     1.0  0.93143  0.78185  0.62494  1.0000
  H   H3161     1.0  0.86290  0.87192  0.43620  1.0000
  H   H3162     1.0  0.92243  0.84657  0.45454  1.0000
  H   H3163     1.0  0.96478  0.55757  0.47898  1.0000
  H   H3164     1.0  0.88457  0.81041  0.48748  1.0000
  H   H3165     1.0  0.89989  0.50384  0.50269  1.0000
  H   H3166     1.0  0.82175  0.88567  0.60732  1.0000
  C   C1853     1.0  0.96838  0.60960  0.52897  1.0000
  C   C1854     1.0  0.74639  0.84324  0.45679  1.0000
  H   H3167     1.0  0.89675  0.73360  0.37231  1.0000
  H   H3168     1.0  0.90521  0.68128  0.59292  1.0000
  C   C1855     1.0  0.87032  0.51072  0.49794  1.0000
  H   H3169     1.0  0.85258  0.53123  0.46039  1.0000
  C   C1856     1.0  0.88141  0.71973  0.35376  1.0000
  C   C1857     1.0  0.86379  0.71910  0.34670  1.0000
  C   C1858     1.0  0.84842  0.73242  0.35182  1.0000
  C   C1859     1.0  0.85041  0.74633  0.36418  1.0000
  C   C1860     1.0  0.86781  0.74643  0.37184  1.0000
  C   C1861     1.0  0.88326  0.73331  0.36651  1.0000
  C   C1862     1.0  0.85401  0.50361  0.49291  1.0000
  H   H3170     1.0  0.83498  0.73214  0.34591  1.0000
  H   H3171     1.0  0.86934  0.75670  0.38177  1.0000
  C   C1863     1.0  0.89695  0.60919  0.39189  1.0000
  C   C1864     1.0  0.88679  0.60105  0.40823  1.0000
  C   C1865     1.0  0.89544  0.59651  0.42539  1.0000
  C   C1866     1.0  0.91444  0.59984  0.42623  1.0000
  C   C1867     1.0  0.92458  0.60784  0.40984  1.0000
  C   C1868     1.0  0.91589  0.61255  0.39278  1.0000
  H   H3172     1.0  0.87207  0.59855  0.40771  1.0000
  H   H3173     1.0  0.88741  0.59070  0.43802  1.0000
  H   H3174     1.0  0.93927  0.61049  0.41035  1.0000
  H   H3175     1.0  0.92392  0.61871  0.38031  1.0000
  C   C1869     1.0  0.86639  0.71806  0.63638  1.0000
  C   C1870     1.0  0.88152  0.72163  0.62267  1.0000
  C   C1871     1.0  0.88003  0.73777  0.60931  1.0000
  C   C1872     1.0  0.86366  0.75082  0.60975  1.0000
  C   C1873     1.0  0.84873  0.74746  0.62371  1.0000
  C   C1874     1.0  0.85004  0.73110  0.63681  1.0000
  H   H3176     1.0  0.89163  0.74013  0.59851  1.0000
  H   H3177     1.0  0.83602  0.75728  0.62422  1.0000
  H   H3178     1.0  0.95285  0.61321  0.52769  1.0000
  C   C1875     1.0  0.90373  0.61038  0.60301  1.0000
  C   C1876     1.0  0.91012  0.62596  0.59128  1.0000
  C   C1877     1.0  0.91189  0.62556  0.57131  1.0000
  C   C1878     1.0  0.90770  0.60948  0.56286  1.0000
  C   C1879     1.0  0.90181  0.59372  0.57460  1.0000
  C   C1880     1.0  0.89971  0.59425  0.59455  1.0000
  H   H3179     1.0  0.91354  0.63835  0.59758  1.0000
  H   H3180     1.0  0.91660  0.63777  0.56235  1.0000
  H   H3181     1.0  0.89855  0.58124  0.56832  1.0000
  H   H3182     1.0  0.89481  0.58210  0.60348  1.0000
  C   C1881     1.0  0.89891  0.82876  0.45664  1.0000
  C   C1882     1.0  0.75856  0.84559  0.62115  1.0000
  H   H3183     1.0  0.76782  0.79648  0.43722  1.0000
  C   C1883     1.0  0.75861  0.86364  0.61110  1.0000
  N   N132      1.0  0.90454  0.79128  0.35037  1.0000
  H   H3184     1.0  0.75359  0.80371  0.45834  1.0000
  C   C1884     1.0  0.76806  0.80296  0.45084  1.0000
  C   C1885     1.0  0.91000  0.84330  0.46477  1.0000
  Fe  Fe276     1.0  0.90368  0.67612  0.33325  1.0000
  H   H3185     1.0  0.87343  0.58503  0.34739  1.0000
  H   H3186     1.0  0.86926  0.50643  0.44939  1.0000
  C   C1886     1.0  0.93107  0.76463  0.34276  1.0000
  N   N133      1.0  0.80692  0.87046  0.64623  1.0000
  C   C1887     1.0  0.87574  0.79417  0.45552  1.0000
  H   H3187     1.0  0.87376  0.81871  0.43548  1.0000
  H   H3188     1.0  0.90614  0.81454  0.46094  1.0000
  H   H3189     1.0  0.90194  0.83012  0.44085  1.0000
  H   H3190     1.0  0.89131  0.79074  0.45303  1.0000
  H   H3191     1.0  0.87061  0.78896  0.47022  1.0000
  H   H3192     1.0  0.86902  0.78590  0.44591  1.0000
  H   H3193     1.0  0.78835  0.82122  0.43621  1.0000
  H   H3194     1.0  0.88606  0.82030  0.60306  1.0000
  H   H3195     1.0  0.76323  0.86841  0.42909  1.0000
  S   S551      1.0  0.98558  0.87190  0.40769  1.0000
  H   H3196     1.0  0.84138  0.63482  0.62719  1.0000
  H   H3197     1.0  0.97295  0.59367  0.50325  1.0000
  H   H3198     1.0  0.89892  0.89508  0.52362  1.0000
  H   H3199     1.0  0.75431  0.82424  0.48203  1.0000
  C   C1888     1.0  0.75332  0.83395  0.42406  1.0000
  C   C1889     1.0  0.75488  0.87138  0.36766  1.0000
  H   H3200     1.0  0.82777  0.85255  0.62995  1.0000
  N   N134      1.0  0.88072  0.66571  0.40876  1.0000
  C   C1890     1.0  0.89161  0.65338  0.42346  1.0000
  C   C1891     1.0  0.89440  0.66882  0.39128  1.0000
  C   C1892     1.0  0.86457  0.65498  0.40427  1.0000
  C   C1893     1.0  0.87329  0.68406  0.41716  1.0000
  C   C1894     1.0  0.87974  0.64536  0.44138  1.0000
  C   C1895     1.0  0.91152  0.67988  0.39376  1.0000
  C   C1896     1.0  0.85623  0.66054  0.38498  1.0000
  C   C1897     1.0  0.86339  0.69982  0.40397  1.0000
  H   H3201     1.0  0.89961  0.64089  0.41706  1.0000
  H   H3202     1.0  0.90253  0.66128  0.42872  1.0000
  H   H3203     1.0  0.88740  0.67658  0.37912  1.0000
  H   H3204     1.0  0.90006  0.65482  0.38609  1.0000
  H   H3205     1.0  0.86920  0.63948  0.40418  1.0000
  H   H3206     1.0  0.85252  0.65612  0.41555  1.0000
  H   H3207     1.0  0.86267  0.68127  0.42949  1.0000
  H   H3208     1.0  0.88465  0.69039  0.42356  1.0000
  H   H3209     1.0  0.87206  0.65678  0.44955  1.0000
  H   H3210     1.0  0.86965  0.63547  0.43796  1.0000
  H   H3211     1.0  0.88955  0.63685  0.45097  1.0000
  H   H3212     1.0  0.92113  0.67205  0.40386  1.0000
  H   H3213     1.0  0.92013  0.68170  0.37985  1.0000
  H   H3214     1.0  0.90695  0.69442  0.39800  1.0000
  H   H3215     1.0  0.85170  0.67589  0.38249  1.0000
  H   H3216     1.0  0.84349  0.65273  0.38453  1.0000
  H   H3217     1.0  0.86647  0.65605  0.37305  1.0000
  H   H3218     1.0  0.84787  0.69851  0.40472  1.0000
  H   H3219     1.0  0.86932  0.70019  0.38898  1.0000
  H   H3220     1.0  0.86555  0.71402  0.40841  1.0000
  H   H3221     1.0  0.91013  0.78840  0.39835  1.0000
  H   H3222     1.0  0.85369  0.55592  0.46193  1.0000
  H   H3223     1.0  0.93673  0.81293  0.60051  1.0000
  H   H3224     1.0  0.91667  0.52158  0.44543  1.0000
  H   H3225     1.0  0.84663  0.60829  0.35546  1.0000
  N   N135      1.0  0.97148  0.59360  0.54442  1.0000
  H   H3226     1.0  0.94743  0.59839  0.56544  1.0000
  H   H3227     1.0  0.76398  0.84692  0.48038  1.0000
  N   N136      1.0  0.94406  0.90429  0.50291  1.0000
  C   C1898     1.0  0.95115  0.92337  0.49565  1.0000
  C   C1899     1.0  0.94243  0.89376  0.48572  1.0000
  C   C1900     1.0  0.95848  0.89356  0.51530  1.0000
  C   C1901     1.0  0.92522  0.90802  0.51435  1.0000
  C   C1902     1.0  0.95766  0.93507  0.51072  1.0000
  C   C1903     1.0  0.92793  0.90305  0.47196  1.0000
  C   C1904     1.0  0.95925  0.87160  0.51753  1.0000
  C   C1905     1.0  0.91440  0.89058  0.52174  1.0000
  H   H3228     1.0  0.96341  0.92155  0.48469  1.0000
  H   H3229     1.0  0.94004  0.93276  0.48837  1.0000
  H   H3230     1.0  0.93863  0.87900  0.48965  1.0000
  H   H3231     1.0  0.95653  0.89200  0.47733  1.0000
  H   H3232     1.0  0.97302  0.89669  0.50960  1.0000
  H   H3233     1.0  0.95665  0.89846  0.52989  1.0000
  H   H3234     1.0  0.92716  0.91506  0.52730  1.0000
  H   H3235     1.0  0.91541  0.91861  0.50657  1.0000
  H   H3236     1.0  0.94633  0.93809  0.52221  1.0000
  H   H3237     1.0  0.97057  0.92802  0.51698  1.0000
  H   H3238     1.0  0.96165  0.94901  0.50366  1.0000
  H   H3239     1.0  0.91330  0.90456  0.47907  1.0000
  H   H3240     1.0  0.93195  0.91701  0.46511  1.0000
  H   H3241     1.0  0.92776  0.89371  0.46027  1.0000
  H   H3242     1.0  0.96475  0.86542  0.50403  1.0000
  H   H3243     1.0  0.94546  0.86624  0.52288  1.0000
  H   H3244     1.0  0.96951  0.86606  0.52809  1.0000
  H   H3245     1.0  0.91906  0.88446  0.53571  1.0000
  H   H3246     1.0  0.91578  0.87932  0.51185  1.0000
  C   C1906     1.0  0.96082  0.55982  0.55468  1.0000
  H   H3247     1.0  0.95149  0.54966  0.55024  1.0000
  H   H3248     1.0  0.92150  0.81342  0.57165  1.0000
  C   C1907     1.0  0.86969  0.78982  0.34323  1.0000
  C   C1908     1.0  0.86975  0.81560  0.45091  1.0000
  H   H3249     1.0  0.81165  0.90409  0.62233  1.0000
  S   S552      1.0  0.88026  0.65738  0.33200  1.0000
  H   H3250     1.0  0.78391  0.85311  0.42331  1.0000
  H   H3251     1.0  0.88581  0.53978  0.46293  1.0000
  H   H3252     1.0  0.89421  0.71178  0.62214  1.0000
  H   H3253     1.0  0.84086  0.51276  0.49253  1.0000
  H   H3254     1.0  0.93620  0.83851  0.62195  1.0000
  H   H3255     1.0  0.86512  0.84915  0.42725  1.0000
  H   H3256     1.0  0.91532  0.83741  0.47857  1.0000
  N   N137      1.0  0.87785  0.82921  0.46245  1.0000
  S   S553      1.0  0.90173  0.70442  0.34675  1.0000
  H   H3257     1.0  0.93502  0.79334  0.34871  1.0000
  S   S554      1.0  0.96183  0.67151  0.65110  1.0000
  C   C1909     1.0  0.83847  0.85301  0.65725  1.0000
  H   H3258     1.0  0.85090  0.54790  0.43933  1.0000
  C   C1910     1.0  0.86761  0.84867  0.45816  1.0000
  S   S555      1.0  0.97689  0.95546  0.59886  1.0000
  C   C1911     1.0  0.87404  0.82245  0.48328  1.0000
  H   H3259     1.0  0.84535  0.67664  0.62505  1.0000
  H   H3260     1.0  0.87985  0.79804  0.61285  1.0000
  S   S556      1.0  0.86669  0.69709  0.65253  1.0000
  C   C1912     1.0  0.91722  0.54762  0.42764  1.0000
  H   H3261     1.0  0.83659  0.58492  0.33525  1.0000
  H   H3262     1.0  0.87151  0.85931  0.46719  1.0000
  H   H3263     1.0  0.88479  0.65954  0.61142  1.0000
  H   H3264     1.0  0.86450  0.52397  0.41997  1.0000
  H   H3265     1.0  0.79164  0.85391  0.45845  1.0000
  H   H3266     1.0  0.74556  0.82098  0.42753  1.0000
  H   H3267     1.0  0.99226  0.99000  0.44182  1.0000
  H   H3268     1.0  0.84797  0.62839  0.57547  1.0000
  H   H3269     1.0  0.90126  0.76731  0.37133  1.0000
  H   H3270     1.0  0.87567  0.68337  0.61367  1.0000
  H   H3271     1.0  0.74555  0.86155  0.40787  1.0000
  H   H3272     1.0  0.88656  0.81685  0.35704  1.0000
  H   H3273     1.0  0.89012  0.50718  0.46105  1.0000
  H   H3274     1.0  0.96655  0.57196  0.52621  1.0000
  H   H3275     1.0  0.85990  0.81663  0.48598  1.0000
  H   H3276     1.0  0.82841  0.61793  0.34028  1.0000
  H   H3277     1.0  0.88771  0.78857  0.37758  1.0000
  H   H3278     1.0  0.86101  0.78145  0.33548  1.0000
  C   C1913     1.0  0.77608  0.82262  0.44721  1.0000
  N   N138      1.0  0.76205  0.83907  0.44128  1.0000
  H   H3279     1.0  0.87771  0.56045  0.41408  1.0000
  C   C1914     1.0  0.85800  0.54420  0.45260  1.0000
  C   C1915     1.0  0.84373  0.64183  0.58233  1.0000
  H   H3280     1.0  0.85597  0.56936  0.35688  1.0000
  S   S557      1.0  0.98985  0.86804  0.46352  1.0000
  N   N139      1.0  0.88830  0.52724  0.43608  1.0000
  H   H3281     1.0  0.81946  0.89470  0.65435  1.0000
  H   H3282     1.0  0.92740  0.77370  0.38556  1.0000
  H   H3283     1.0  0.83574  0.87455  0.63422  1.0000
  C   C1916     1.0  0.96307  0.59963  0.56361  1.0000
  H   H3284     1.0  0.87197  0.61628  0.33159  1.0000
  H   H3285     1.0  0.83073  0.66411  0.61266  1.0000
  H   H3286     1.0  0.77748  0.79311  0.45974  1.0000
  C   C1917     1.0  0.98972  0.97597  0.59465  1.0000
  Fe  Fe277     1.0  0.98602  0.92734  0.58614  1.0000
  H   H3287     1.0  0.79164  0.87558  0.44345  1.0000
  H   H3288     1.0  0.93284  0.54562  0.42400  1.0000
  H   H3289     1.0  0.96903  0.58992  0.57534  1.0000
  H   H3290     1.0  0.83511  0.68055  0.58280  1.0000
  H   H3291     1.0  0.78261  0.82504  0.46024  1.0000
  H   H3292     1.0  0.92620  0.79145  0.32660  1.0000
  C   C1918     1.0  0.82722  0.86287  0.64090  1.0000
  H   H3293     1.0  0.86097  0.84771  0.49717  1.0000
  H   H3294     1.0  0.91115  0.55584  0.41527  1.0000
  H   H3295     1.0  0.83626  0.65177  0.57183  1.0000
  C   C1919     1.0  0.85106  0.58173  0.32814  1.0000
  S   S558      1.0  0.98083  0.89820  0.60084  1.0000
  H   H3296     1.0  0.89600  0.66722  0.57711  1.0000
  C   C1920     1.0  0.88289  0.81802  0.63329  1.0000
  H   H3297     1.0  0.90233  0.78001  0.59462  1.0000
  C   C1921     1.0  0.88959  0.80903  0.61455  1.0000
  H   H3298     1.0  0.94558  0.58246  0.53834  1.0000
  H   H3299     1.0  0.78314  0.88270  0.63028  1.0000
  H   H3300     1.0  0.79735  0.84228  0.64699  1.0000
  C   C1922     1.0  0.78240  0.86466  0.45045  1.0000
  H   H3301     1.0  0.92708  0.78289  0.59246  1.0000
  H   H3302     1.0  0.84036  0.71385  0.58290  1.0000
  C   C1923     1.0  0.84325  0.61877  0.34329  1.0000
  H   H3303     1.0  0.91514  0.55627  0.44002  1.0000
  C   C1924     1.0  0.80842  0.89209  0.61466  1.0000
  H   H3304     1.0  0.86124  0.70849  0.59503  1.0000
  H   H3305     1.0  0.91192  0.79382  0.56315  1.0000
  C   C1925     1.0  0.90086  0.81268  0.34993  1.0000
  C   C1926     1.0  0.90171  0.78299  0.37077  1.0000
  C   C1927     1.0  0.87372  0.83727  0.49791  1.0000
  C   C1928     1.0  0.86180  0.64971  0.58764  1.0000
  H   H3306     1.0  0.84732  0.64927  0.64430  1.0000
  C   C1929     1.0  0.87755  0.67210  0.60358  1.0000
  C   C1930     1.0  0.77274  0.85634  0.43505  1.0000
  C   C1931     1.0  0.89197  0.67845  0.58696  1.0000
  H   H3307     1.0  0.76460  0.83036  0.41252  1.0000
  C   C1932     1.0  0.84966  0.68349  0.58552  1.0000
  C   C1933     1.0  0.91042  0.80329  0.57492  1.0000
  H   H3308     1.0  0.89617  0.81116  0.57464  1.0000
  H   H3309     1.0  0.88671  0.84484  0.49648  1.0000
  H   H3310     1.0  0.87249  0.82982  0.51248  1.0000
  H   H3311     1.0  0.86490  0.55012  0.39842  1.0000
  C   C1934     1.0  0.99117  0.97651  0.41604  1.0000
  H   H3312     1.0  0.97518  0.55210  0.55514  1.0000
  H   H3313     1.0  0.92470  0.79925  0.37932  1.0000
  H   H3314     1.0  0.91548  0.51903  0.42085  1.0000
  C   C1935     1.0  0.98067  0.54394  0.50175  1.0000
  C   C1936     1.0  0.91706  0.78646  0.38382  1.0000
  C   C1937     1.0  0.87823  0.54807  0.40567  1.0000
  C   C1938     1.0  0.92875  0.82549  0.62648  1.0000
  H   H3315     1.0  0.88946  0.81082  0.64587  1.0000
  C   C1939     1.0  0.87918  0.52858  0.41762  1.0000
  H   H3316     1.0  0.84410  0.63309  0.34814  1.0000
  H   H3317     1.0  0.97721  0.50714  0.48441  1.0000
  H   H3318     1.0  0.87075  0.65230  0.57401  1.0000
  C   C1940     1.0  0.91623  0.78733  0.62785  1.0000
  H   H3319     1.0  0.83825  0.72850  0.64734  1.0000
  C   C1941     1.0  0.90460  0.76989  0.63220  1.0000
  C   C1942     1.0  0.88723  0.49854  0.49867  1.0000
  H   H3320     1.0  0.95496  0.56338  0.56910  1.0000
  H   H3321     1.0  0.91647  0.82976  0.59976  1.0000
  C   C1943     1.0  0.97804  0.55642  0.48551  1.0000
  C   C1944     1.0  0.92302  0.81748  0.60863  1.0000
  H   H3322     1.0  0.88374  0.55675  0.44334  1.0000
  H   H3323     1.0  0.79915  0.89799  0.60333  1.0000
  H   H3324     1.0  0.88680  0.51822  0.40804  1.0000
  H   H3325     1.0  0.77172  0.87212  0.46033  1.0000
  H   H3326     1.0  0.85771  0.68478  0.57121  1.0000
  H   H3327     1.0  0.87375  0.56147  0.33919  1.0000
  H   H3328     1.0  0.88911  0.77397  0.63466  1.0000
  H   H3329     1.0  0.88684  0.69187  0.57890  1.0000
  H   H3330     1.0  0.85377  0.85110  0.65201  1.0000
  H   H3331     1.0  0.86215  0.70873  0.33689  1.0000
  H   H3332     1.0  0.91090  0.81871  0.35828  1.0000
  H   H3333     1.0  0.86993  0.63794  0.59581  1.0000
  H   H3334     1.0  0.79768  0.86451  0.61945  1.0000
  S   S559      1.0  0.98469  0.91642  0.38792  1.0000
  H   H3335     1.0  0.98393  0.96836  0.55436  1.0000
  H   H3336     1.0  0.89043  0.54870  0.39458  1.0000
  H   H3337     1.0  0.83831  0.70355  0.60692  1.0000
  H   H3338     1.0  0.86569  0.64040  0.62766  1.0000
  H   H3339     1.0  0.91581  0.79404  0.64137  1.0000
  N   N140      1.0  0.85864  0.66743  0.59820  1.0000
  C   C1945     1.0  0.86453  0.57419  0.34362  1.0000
  C   C1946     1.0  0.85059  0.64611  0.62922  1.0000
  C   C1947     1.0  0.84739  0.70331  0.59327  1.0000
  C   C1948     1.0  0.75159  0.83967  0.47761  1.0000
  H   H3340     1.0  0.97453  0.61859  0.49893  1.0000
  C   C1949     1.0  0.79816  0.87694  0.62787  1.0000
  C   C1950     1.0  0.96079  0.57742  0.53995  1.0000
  C   C1951     1.0  0.97804  0.60598  0.50900  1.0000
  C   C1952     1.0  0.91272  0.79090  0.59389  1.0000
  H   H3341     1.0  0.83378  0.63825  0.59492  1.0000
  H   H3342     1.0  0.98539  0.95967  0.53091  1.0000
  H   H3343     1.0  0.86743  0.81666  0.63661  1.0000
  H   H3344     1.0  0.90735  0.76012  0.62074  1.0000
  H   H3345     1.0  0.93896  0.81521  0.63401  1.0000
  C   C1953     1.0  0.90960  0.52789  0.43258  1.0000
  H   H3346     1.0  0.88514  0.83341  0.63193  1.0000
  H   H3347     1.0  0.89202  0.76734  0.34125  1.0000
  H   H3348     1.0  0.86492  0.78733  0.35854  1.0000
  H   H3349     1.0  0.93074  0.75774  0.35749  1.0000
  H   H3350     1.0  0.97345  0.99040  0.51533  1.0000
  H   H3351     1.0  0.98016  0.62383  0.56579  1.0000
  Fe  Fe278     1.0  0.98620  0.92565  0.41714  1.0000
  H   H3352     1.0  0.98999  0.57805  0.46577  1.0000
  H   H3353     1.0  0.98893  0.49719  0.51401  1.0000
  H   H3354     1.0  0.96036  0.62168  0.58324  1.0000
  H   H3355     1.0  0.79233  0.91425  0.65019  1.0000
  H   H3356     1.0  0.99294  0.90853  0.46055  1.0000
  C   C1954     1.0  0.74427  0.87827  0.61563  1.0000
  H   H3357     1.0  0.86635  0.80504  0.33833  1.0000
  H   H3358     1.0  0.95605  0.63066  0.55957  1.0000
  H   H3359     1.0  0.97357  0.62301  0.53232  1.0000
  C   C1955     1.0  0.98819  0.49750  0.47696  1.0000
  C   C1956     1.0  0.96529  0.62015  0.56804  1.0000
  S   S560      1.0  0.98633  0.95449  0.42877  1.0000
  Fe  Fe279     1.0  0.98712  0.88464  0.43520  1.0000
  C   C1957     1.0  0.92453  0.78617  0.34193  1.0000
  H   H3360     1.0  0.76692  0.86562  0.65217  1.0000
  C   C1958     1.0  0.79665  0.85417  0.65635  1.0000
  H   H3361     1.0  0.74476  0.89226  0.60803  1.0000
  C   C1959     1.0  0.89091  0.78318  0.33893  1.0000
  H   H3362     1.0  0.77600  0.89615  0.65649  1.0000
  H   H3363     1.0  0.90908  0.76157  0.64539  1.0000
  C   C1960     1.0  0.98827  0.99324  0.50994  1.0000
  C   C1961     1.0  0.90237  0.82369  0.33003  1.0000
  H   H3364     1.0  0.94605  0.76271  0.33651  1.0000
  C   C1962     1.0  0.99268  0.97915  0.39614  1.0000
  H   H3365     1.0  0.92258  0.75689  0.33424  1.0000
  H   H3366     1.0  0.99080  0.96745  0.38798  1.0000
  C   C1963     1.0  0.99330  0.99193  0.42643  1.0000
  Fe  Fe280     1.0  0.89089  0.67380  0.65809  1.0000
  C   C1964     1.0  0.99216  0.58636  0.54494  1.0000
  H   H3367     1.0  0.99342  0.60385  0.43162  1.0000
  C   C1965     1.0  0.99236  0.56790  0.47795  1.0000
  C   C1966     1.0  0.85791  0.61609  0.32591  1.0000
  N   N141      1.0  0.74516  0.62110  0.94189  1.0000
  C   C1967     1.0  0.87787  0.63516  0.82668  1.0000
  H   H3368     1.0  0.84757  0.52238  0.98409  1.0000
  H   H3369     1.0  0.75910  0.64389  0.88511  1.0000
  C   C1968     1.0  0.88876  0.52974  0.93597  1.0000
  H   H3370     1.0  0.87116  0.54968  0.72669  1.0000
  Fe  Fe281     1.0  0.90348  0.64166  0.68864  1.0000
  S   S561      1.0  0.90159  0.62499  0.71848  1.0000
  S   S562      1.0  0.91093  0.67204  0.68124  1.0000
  Fe  Fe282     1.0  0.83487  0.58918  0.81810  1.0000
  S   S563      1.0  0.80585  0.57956  0.82889  1.0000
  S   S564      1.0  0.83907  0.60453  0.78774  1.0000
  Fe  Fe283     1.0  0.85002  0.57874  0.85751  1.0000
  S   S565      1.0  0.82249  0.56855  0.87085  1.0000
  S   S566      1.0  0.87746  0.57767  0.87221  1.0000
  Fe  Fe284     1.0  0.82201  0.55416  0.84386  1.0000
  S   S567      1.0  0.81122  0.52451  0.84877  1.0000
  Fe  Fe285     1.0  0.80808  0.59439  0.85514  1.0000
  S   S568      1.0  0.78661  0.61542  0.87059  1.0000
  S   S569      1.0  0.85072  0.56264  0.83135  1.0000
  S   S570      1.0  0.83594  0.60570  0.84357  1.0000
  H   H3371     1.0  0.87454  0.60423  0.80881  1.0000
  H   H3372     1.0  0.92904  0.60392  0.80816  1.0000
  H   H3373     1.0  0.76301  0.63200  0.96072  1.0000
  Fe  Fe286     1.0  0.90678  0.57965  0.97817  1.0000
  S   S571      1.0  0.88187  0.58866  0.96015  1.0000
  S   S572      1.0  0.93732  0.57363  0.96718  1.0000
  H   H3374     1.0  0.88951  0.57222  0.81445  1.0000
  H   H3375     1.0  0.78686  0.90598  0.67426  1.0000
  C   C1969     1.0  0.88114  0.58576  0.93558  1.0000
  C   C1970     1.0  0.89742  0.58018  0.92391  1.0000
  C   C1971     1.0  0.89606  0.57779  0.90455  1.0000
  C   C1972     1.0  0.87843  0.58081  0.89668  1.0000
  C   C1973     1.0  0.86216  0.58632  0.90838  1.0000
  C   C1974     1.0  0.86356  0.58888  0.92767  1.0000
  H   H3376     1.0  0.91107  0.57783  0.92974  1.0000
  H   H3377     1.0  0.90875  0.57360  0.89563  1.0000
  H   H3378     1.0  0.84852  0.58879  0.90252  1.0000
  H   H3379     1.0  0.85090  0.59329  0.93653  1.0000
  C   C1975     1.0  0.91500  0.63404  0.84351  1.0000
  C   C1976     1.0  0.75128  0.63334  0.88005  1.0000
  N   N142      1.0  0.87235  0.52350  0.94948  1.0000
  H   H3380     1.0  0.84300  0.51470  0.82065  1.0000
  H   H3381     1.0  0.77998  0.63142  0.91865  1.0000
  H   H3382     1.0  0.83730  0.86156  0.66965  1.0000
  H   H3383     1.0  0.83292  0.53820  0.92427  1.0000
  C   C1977     1.0  0.98663  0.55815  0.96577  1.0000
  C   C1978     1.0  0.76136  0.61776  0.87153  1.0000
  H   H3384     1.0  0.86981  0.61390  0.70112  1.0000
  H   H3385     1.0  0.80903  0.88034  0.67384  1.0000
  H   H3386     1.0  0.75864  0.59239  0.85802  1.0000
  C   C1979     1.0  0.81924  0.50337  0.83770  1.0000
  C   C1980     1.0  0.88410  0.62014  0.73789  1.0000
  C   C1981     1.0  0.86563  0.62928  0.73883  1.0000
  C   C1982     1.0  0.85219  0.62437  0.75420  1.0000
  C   C1983     1.0  0.85693  0.61032  0.76893  1.0000
  C   C1984     1.0  0.87537  0.60112  0.76792  1.0000
  C   C1985     1.0  0.88884  0.60610  0.75262  1.0000
  H   H3387     1.0  0.86168  0.64014  0.72771  1.0000
  H   H3388     1.0  0.83798  0.63157  0.75471  1.0000
  H   H3389     1.0  0.87913  0.58987  0.77869  1.0000
  H   H3390     1.0  0.90300  0.59878  0.75201  1.0000
  C   C1986     1.0  0.77565  0.85878  0.66347  1.0000
  H   H3391     1.0  0.86257  0.56129  0.74751  1.0000
  H   H3392     1.0  0.84784  0.55250  0.93379  1.0000
  H   H3393     1.0  0.86661  0.55294  0.95629  1.0000
  S   S573      1.0  0.88188  0.64428  0.66713  1.0000
  H   H3394     1.0  0.86385  0.60756  0.67898  1.0000
  H   H3395     1.0  0.90475  0.54455  0.95422  1.0000
  C   C1987     1.0  0.90472  0.62656  0.80355  1.0000
  H   H3396     1.0  0.85622  0.54159  0.91230  1.0000
  H   H3397     1.0  0.90563  0.64225  0.80276  1.0000
  C   C1988     1.0  0.92543  0.61759  0.79984  1.0000
  C   C1989     1.0  0.89811  0.58440  0.81491  1.0000
  C   C1990     1.0  0.98376  0.66371  0.66070  1.0000
  H   H3398     1.0  0.89696  0.62423  0.79115  1.0000
  C   C1991     1.0  0.88800  0.58072  0.69797  1.0000
  H   H3399     1.0  0.85404  0.65335  0.81576  1.0000
  H   H3400     1.0  0.90453  0.64416  0.85093  1.0000
  H   H3401     1.0  0.90827  0.57984  0.82573  1.0000
  H   H3402     1.0  0.86082  0.59264  0.72933  1.0000
  H   H3403     1.0  0.89499  0.60029  0.67251  1.0000
  H   H3404     1.0  0.92808  0.61480  0.78459  1.0000
  H   H3405     1.0  0.83609  0.61128  0.71512  1.0000
  C   C1992     1.0  0.90697  0.53241  0.94523  1.0000
  H   H3406     1.0  0.74567  0.62623  0.99088  1.0000
  Fe  Fe287     1.0  0.93650  0.54680  0.98661  1.0000
  C   C1993     1.0  0.86103  0.60451  0.69466  1.0000
  C   C1994     1.0  0.87031  0.56335  0.73314  1.0000
  H   H3407     1.0  0.75539  0.61027  0.91465  1.0000
  H   H3408     1.0  0.89343  0.56597  0.70268  1.0000
  C   C1995     1.0  0.77993  0.61709  0.92654  1.0000
  C   C1996     1.0  0.84003  0.61187  0.69954  1.0000
  C   C1997     1.0  0.84803  0.53943  0.92643  1.0000
  C   C1998     1.0  0.85972  0.57997  0.72153  1.0000
  H   H3409     1.0  0.91694  0.60491  0.83705  1.0000
  C   C1999     1.0  0.75110  0.60439  0.86472  1.0000
  S   S574      1.0  0.96915  0.60467  0.99074  1.0000
  H   H3410     1.0  0.89440  0.58971  0.70719  1.0000
  C   C2000     1.0  0.86190  0.55012  0.69118  1.0000
  H   H3411     1.0  0.97345  0.64015  0.67896  1.0000
  H   H3412     1.0  0.93570  0.62786  0.80200  1.0000
  C   C2001     1.0  0.86335  0.64054  0.81171  1.0000
  H   H3413     1.0  0.88481  0.56677  0.73541  1.0000
  C   C2002     1.0  0.85715  0.57190  0.68856  1.0000
  H   H3414     1.0  0.90560  0.58669  0.80051  1.0000
  H   H3415     1.0  0.83798  0.62714  0.69409  1.0000
  H   H3416     1.0  0.76148  0.59471  0.93475  1.0000
  N   N143      1.0  0.86658  0.58379  0.70073  1.0000
  H   H3417     1.0  0.85376  0.62923  0.81134  1.0000
  H   H3418     1.0  0.86050  0.51085  0.92728  1.0000
  H   H3419     1.0  0.88374  0.64876  0.82862  1.0000
  C   C2003     1.0  0.98569  0.64779  0.67394  1.0000
  H   H3420     1.0  0.88465  0.54363  0.92800  1.0000
  C   C2004     1.0  0.88462  0.60195  0.82000  1.0000
  H   H3421     1.0  0.89258  0.51968  0.92479  1.0000
  H   H3422     1.0  0.98271  0.54808  0.95610  1.0000
  H   H3423     1.0  0.77423  0.86766  0.67567  1.0000
  C   C2005     1.0  0.85607  0.52124  0.93800  1.0000
  H   H3424     1.0  0.85260  0.54360  0.70308  1.0000
  H   H3425     1.0  0.89665  0.61162  0.85182  1.0000
  H   H3426     1.0  0.84142  0.57413  0.69135  1.0000
  H   H3427     1.0  0.92211  0.64162  0.83077  1.0000
  H   H3428     1.0  0.87015  0.64411  0.79721  1.0000
  H   H3429     1.0  0.83566  0.53915  0.96701  1.0000
  C   C2006     1.0  0.86698  0.53827  0.96349  1.0000
  H   H3430     1.0  0.84415  0.51473  0.94690  1.0000
  N   N144      1.0  0.89369  0.61994  0.82194  1.0000
  H   H3431     1.0  0.87605  0.59765  0.83346  1.0000
  C   C2007     1.0  0.90553  0.61661  0.83873  1.0000
  H   H3432     1.0  0.86971  0.63096  0.84048  1.0000
  H   H3433     1.0  0.78641  0.61699  0.94015  1.0000
  H   H3434     1.0  0.92597  0.62917  0.85352  1.0000
  H   H3435     1.0  0.88753  0.50633  0.97136  1.0000
  H   H3436     1.0  0.78938  0.60734  0.91760  1.0000
  H   H3437     1.0  0.83006  0.60424  0.69267  1.0000
  C   C2008     1.0  0.93512  0.50226  0.98448  1.0000
  H   H3438     1.0  0.91238  0.51938  0.95369  1.0000
  H   H3439     1.0  0.87696  0.54571  0.69333  1.0000
  H   H3440     1.0  0.84433  0.57759  0.72324  1.0000
  C   C2009     1.0  0.89703  0.58494  0.67746  1.0000
  C   C2010     1.0  0.83536  0.50223  0.82466  1.0000
  H   H3441     1.0  0.91834  0.53594  0.93386  1.0000
  H   H3442     1.0  0.85896  0.50284  0.86312  1.0000
  S   S575      1.0  0.95088  0.51939  0.97668  1.0000
  H   H3443     1.0  0.80354  0.84809  0.66929  1.0000
  H   H3444     1.0  0.97805  0.55636  0.97965  1.0000
  C   C2011     1.0  0.75276  0.62101  0.96110  1.0000
  H   H3445     1.0  0.87803  0.53785  0.97364  1.0000
  C   C2012     1.0  0.87760  0.50467  0.96053  1.0000
  S   S576      1.0  0.92693  0.62957  0.66790  1.0000
  H   H3446     1.0  0.85963  0.57665  0.67314  1.0000
  H   H3447     1.0  0.91265  0.58129  0.67715  1.0000
  H   H3448     1.0  0.83406  0.83851  0.66172  1.0000
  H   H3449     1.0  0.85957  0.54394  0.67787  1.0000
  H   H3450     1.0  0.75533  0.64859  0.93249  1.0000
  C   C2013     1.0  0.84795  0.53644  0.97573  1.0000
  H   H3451     1.0  0.89171  0.57631  0.66724  1.0000
  H   H3452     1.0  0.98243  0.57278  0.95943  1.0000
  H   H3453     1.0  0.86486  0.49922  0.96893  1.0000
  C   C2014     1.0  0.75985  0.61005  0.92926  1.0000
  H   H3454     1.0  0.76941  0.84524  0.66872  1.0000
  H   H3455     1.0  0.76099  0.60711  0.96487  1.0000
  H   H3456     1.0  0.84622  0.54745  0.98608  1.0000
  Fe  Fe288     1.0  0.93299  0.65994  0.65934  1.0000
  C   C2015     1.0  0.78946  0.90121  0.65968  1.0000
  C   C2016     1.0  0.80705  0.88634  0.65896  1.0000
