data_image0
_chemical_formula_structural       FeS2FeS2FeSFeS3CFeS2FeSFeSFeS3CHCH4C2H3CHCH2CHC2H5C6HCH2C6H4CHCH7CHC3H2CH2C2H6CHCHCHNHC3HC3HC2H13CNCH3C2HC3H2SHCNCH3NCH2C2H3C4H4CH2CH2CHCH3C2HCH25SCHCHFeSFeS2FeSFeS3FeS2FeSHFe2S3C2HSHC6H5C2H2CHCH2C2HC2H3CH3CH3NCNC5HC2H12CH6NC8H20C2NHCHCHCH5CH3CH5CHSH6CHCHC4HSH4CHC2H2CH3C2H2FeS2FeHFeSFeHS2FeS2FeSFe2SHSHC6H4CH2CSNC8H20CHCHSCSHC2H2C2H2NH4CSH2CH3SC2H2CH2FeS2FeSHFeSFeS3FeS2FeS2FeSFeS3CH3C6H4C3H3C3HC6H5C6H4CH3CH7C2H2CHCH3NC8H8CH7CH3NC6HCH15C2H3CH4CHNCH2NH2C3HSHC2H2C2HCH5CH2CH6SHCHFeS2FeS2FeSFeS3FeS2FeS2Fe2SHSH4CHCHCH3CH2C2HCH3C6H4C6H4C3H2CHCH3CH3C2H2CNH7CHC2NCNCH4C2NC8H12CH2SH6CH5CHC4HCNC2H10CHCH2CH5CH5C2H2CH2CHC2H4NH2CHCHCH3CHCH2C2SH3C2H2CHCHFeSFeS2FeSFeS3FeSHFeS2Fe2SHSC3H2C6H4C3H7CH2NC2H3CH7CH8CHCH3CH3CNHC3HCHC2H11CH2CH4C3H2C2HCH3CHSHCSH3CHC2HCH2NC4H6CHCH2CNH2SHC3H3C2H3CHFeS2FeS2FeSFeS3HFeS2FeS2Fe2S3C3H4CHCH3CHC5H2CHC6H4C6H5CH2C3H2NCHC4HCH3C3H2CH10C2H10CH6CHCH6CH2NC3HCHCHNCH2CH9CH2CH2NC4HCH5C2H5NSHCH2SCH2CHCHCH2CHCH3CH2CH2CFeCFeS2FeCFeS3FeS2FeS2Fe2S3C3H2C6H5CHSHCH2C3HSH2NH3CH4CH3CHCHCH8NHCHCH8CH4C2H4CHCH4CH3CHCSH3SC2HC4H3FeHFeS2FeSFeHSCFeSFeS2Fe2HCSH3C6H4NCH8CH2C5H3CHNH2CH3NC3H3CSCH2C3H8CH2C2HSHSC3SH5CHCHCSHCH2CH4CH3CH6CH3CNH3CH2CH3FeS2FeS2FeCFeS3FeS2FeS2FeSFeS3H3C2H3C6H4C3H3C7H4C6H4C4H6SC2H2NH2C2HNH3CH2NC8H22CH6CH5NH6CH2CHCHC2HCHCH2CHC4HC2H3SC2H2C2HCHCH5SC2H2CHNH4CH2CH7C2HCH2FeS2FeS2FeSFeS3FeSFeS2FeSFeS3H3CHNHCHCH3CH3C3H2C6H4C7H4C3H2CH2CNC8H20NC5H5CH8CHC3H2C2H2C3HCH2NCH2CH4CH2NH9CH4CH2C3H2C2SHCHCH2C2H4CH2CH5CH2CH2CH6FeCFeS2FeSFeS3FeS2FeSFeSFeS3CH2SC7H4CHNC2H2CH2CH2SH5NC8H14CHCH6CH3CHC4H3C2H3NH3CHCH7SCHC2H2CH3CHC
_chemical_formula_sum              "Fe96 S192 C672 H1152 N48"
_cell_length_a       59.1098
_cell_length_b       59.052
_cell_length_c       33.9865
_cell_angle_alpha    90.1078
_cell_angle_beta     89.8199
_cell_angle_gamma    89.5518

_space_group_name_H-M_alt    "P 1"
_space_group_IT_number       1

loop_
  _space_group_symop_operation_xyz
  'x, y, z'

loop_
  _atom_site_type_symbol
  _atom_site_label
  _atom_site_symmetry_multiplicity
  _atom_site_fract_x
  _atom_site_fract_y
  _atom_site_fract_z
  _atom_site_occupancy
  Fe  Fe1       1.0  0.36240  0.06909  0.22788  1.0000
  S   S1        1.0  0.38195  0.07032  0.28413  1.0000
  S   S2        1.0  0.33609  0.04175  0.22941  1.0000
  Fe  Fe2       1.0  0.38638  0.10999  0.19314  1.0000
  S   S3        1.0  0.40751  0.11430  0.24769  1.0000
  S   S4        1.0  0.39609  0.13575  0.14640  1.0000
  Fe  Fe3       1.0  0.41192  0.07668  0.24542  1.0000
  S   S5        1.0  0.44400  0.05637  0.25446  1.0000
  Fe  Fe4       1.0  0.37552  0.10767  0.28167  1.0000
  S   S6        1.0  0.36603  0.12943  0.33452  1.0000
  S   S7        1.0  0.39298  0.07238  0.18885  1.0000
  S   S8        1.0  0.35389  0.10642  0.22753  1.0000
  C   C1        1.0  0.28121  0.30546  0.01098  1.0000
  Fe  Fe5       1.0  0.12690  0.27420  0.35944  1.0000
  S   S9        1.0  0.10585  0.24345  0.37561  1.0000
  S   S10       1.0  0.13607  0.27837  0.29362  1.0000
  Fe  Fe6       1.0  0.12549  0.29122  0.44453  1.0000
  S   S11       1.0  0.10441  0.26222  0.46521  1.0000
  Fe  Fe7       1.0  0.12849  0.24032  0.42938  1.0000
  S   S12       1.0  0.14112  0.20668  0.45778  1.0000
  Fe  Fe8       1.0  0.08356  0.26775  0.41026  1.0000
  S   S13       1.0  0.04457  0.27375  0.41446  1.0000
  S   S14       1.0  0.15055  0.26939  0.41105  1.0000
  S   S15       1.0  0.10376  0.29833  0.39183  1.0000
  C   C2        1.0  0.07957  0.28489  0.24048  1.0000
  H   H1        1.0  0.42869  0.12914  0.38302  1.0000
  C   C3        1.0  0.35144  0.23137  0.06628  1.0000
  H   H2        1.0  0.28719  0.08749  0.42529  1.0000
  H   H3        1.0  0.47786  0.12979  0.19796  1.0000
  H   H4        1.0  0.47026  0.04776  0.39483  1.0000
  H   H5        1.0  0.44126  0.00265  0.15260  1.0000
  C   C4        1.0  0.00903  0.25218  0.37438  1.0000
  C   C5        1.0  0.01542  0.26864  0.40188  1.0000
  H   H6        1.0  0.40261  0.09664  0.35709  1.0000
  H   H7        1.0  0.02191  0.24192  0.36022  1.0000
  H   H8        1.0  0.00267  0.29444  0.44126  1.0000
  C   C6        1.0  0.18856  0.20198  0.46410  1.0000
  H   H9        1.0  0.27358  0.22679  0.06990  1.0000
  C   C7        1.0  0.29046  0.23424  0.07560  1.0000
  H   H10       1.0  0.08752  0.27219  0.31463  1.0000
  H   H11       1.0  0.34172  0.24495  0.08145  1.0000
  C   C8        1.0  0.35595  0.01389  0.17393  1.0000
  H   H12       1.0  0.46047  0.07549  0.34417  1.0000
  C   C9        1.0  0.15283  0.29423  0.22257  1.0000
  C   C10       1.0  0.14969  0.29900  0.26294  1.0000
  H   H13       1.0  0.31581  0.15762  0.11674  1.0000
  H   H14       1.0  0.41172  0.01918  0.22205  1.0000
  H   H15       1.0  0.09714  0.27997  0.24867  1.0000
  H   H16       1.0  0.14722  0.27817  0.21096  1.0000
  H   H17       1.0  0.43354  0.00776  0.27520  1.0000
  C   C11       1.0  0.35330  0.11755  0.37669  1.0000
  C   C12       1.0  0.34792  0.13157  0.40889  1.0000
  C   C13       1.0  0.33831  0.12249  0.44334  1.0000
  C   C14       1.0  0.33440  0.09921  0.44601  1.0000
  C   C15       1.0  0.33984  0.08520  0.41383  1.0000
  C   C16       1.0  0.34882  0.09438  0.37902  1.0000
  H   H18       1.0  0.35137  0.14952  0.40729  1.0000
  C   C17       1.0  0.20846  0.19073  0.47713  1.0000
  H   H19       1.0  0.33690  0.06718  0.41573  1.0000
  H   H20       1.0  0.35243  0.08351  0.35413  1.0000
  C   C18       1.0  0.38251  0.14037  0.10075  1.0000
  C   C19       1.0  0.36277  0.12898  0.09022  1.0000
  C   C20       1.0  0.35214  0.13382  0.05409  1.0000
  C   C21       1.0  0.36113  0.15004  0.02829  1.0000
  C   C22       1.0  0.38099  0.16126  0.03865  1.0000
  C   C23       1.0  0.39159  0.15645  0.07476  1.0000
  H   H21       1.0  0.35566  0.11655  0.10996  1.0000
  H   H22       1.0  0.33680  0.12504  0.04625  1.0000
  H   H23       1.0  0.38809  0.17377  0.01906  1.0000
  H   H24       1.0  0.40687  0.16531  0.08268  1.0000
  C   C24       1.0  0.46941  0.07121  0.26081  1.0000
  H   H25       1.0  0.42755  0.05134  0.34890  1.0000
  C   C25       1.0  0.46925  0.09373  0.27356  1.0000
  H   H26       1.0  0.42421  0.08934  0.32393  1.0000
  H   H27       1.0  0.45341  0.10269  0.27720  1.0000
  H   H28       1.0  0.07365  0.24187  0.27352  1.0000
  H   H29       1.0  0.36412  0.22379  0.08643  1.0000
  H   H30       1.0  0.48937  0.12143  0.29499  1.0000
  H   H31       1.0  0.36135  0.02920  0.15933  1.0000
  H   H32       1.0  0.26164  0.07192  0.42430  1.0000
  C   C26       1.0  0.45751  0.08114  0.37503  1.0000
  H   H33       1.0  0.34685  0.20062  0.03293  1.0000
  C   C27       1.0  0.46347  0.10882  0.15374  1.0000
  C   C28       1.0  0.48412  0.11590  0.17856  1.0000
  C   C29       1.0  0.99812  0.28164  0.41995  1.0000
  H   H34       1.0  0.07222  0.26950  0.22673  1.0000
  H   H35       1.0  0.39146  0.09457  0.41730  1.0000
  C   C30       1.0  0.08158  0.30254  0.20723  1.0000
  H   H36       1.0  0.22474  0.19840  0.47184  1.0000
  H   H37       1.0  0.40071  0.09442  0.46674  1.0000
  C   C31       1.0  0.06150  0.24979  0.29449  1.0000
  C   C32       1.0  0.41765  0.00487  0.20318  1.0000
  H   H38       1.0  0.33454  0.13335  0.46822  1.0000
  H   H39       1.0  0.30326  0.15868  0.42654  1.0000
  H   H40       1.0  0.43273  0.07603  0.44731  1.0000
  H   H41       1.0  0.28635  0.20657  0.01522  1.0000
  H   H42       1.0  0.28127  0.09958  0.32628  1.0000
  H   H43       1.0  0.38757  0.06389  0.37004  1.0000
  C   C33       1.0  0.30617  0.18418  0.05517  1.0000
  H   H44       1.0  0.30043  0.14153  0.36876  1.0000
  C   C34       1.0  0.29662  0.19090  0.01455  1.0000
  H   H45       1.0  0.28548  0.17712  0.00395  1.0000
  C   C35       1.0  0.16719  0.19254  0.47086  1.0000
  H   H46       1.0  0.32660  0.99648  0.25440  1.0000
  N   N1        1.0  0.06608  0.29198  0.27641  1.0000
  H   H47       1.0  0.39494  0.03545  0.38094  1.0000
  C   C36       1.0  0.27224  0.08378  0.40699  1.0000
  C   C37       1.0  0.06931  0.27364  0.30674  1.0000
  C   C38       1.0  0.32307  0.17204  0.13328  1.0000
  H   H48       1.0  0.29358  0.20837  0.11878  1.0000
  C   C39       1.0  0.25510  0.14449  0.37521  1.0000
  C   C40       1.0  0.39893  0.05333  0.38821  1.0000
  C   C41       1.0  0.42904  0.08984  0.42593  1.0000
  H   H49       1.0  0.16589  0.30575  0.16629  1.0000
  C   C42       1.0  0.23350  0.15112  0.39833  1.0000
  C   C43       1.0  0.40544  0.09981  0.43652  1.0000
  H   H50       1.0  0.31029  0.19246  0.99226  1.0000
  H   H51       1.0  0.26460  0.16030  0.36892  1.0000
  H   H52       1.0  0.24921  0.13841  0.34600  1.0000
  H   H53       1.0  0.03691  0.28255  0.24204  1.0000
  H   H54       1.0  0.48976  0.13737  0.10402  1.0000
  H   H55       1.0  0.09401  0.31585  0.21487  1.0000
  H   H56       1.0  0.27972  0.12874  0.30962  1.0000
  H   H57       1.0  0.22249  0.13641  0.40425  1.0000
  H   H58       1.0  0.23745  0.15975  0.42639  1.0000
  H   H59       1.0  0.22342  0.16335  0.38065  1.0000
  H   H60       1.0  0.29800  0.23968  0.04749  1.0000
  H   H61       1.0  0.36113  0.23959  0.04223  1.0000
  H   H62       1.0  0.31545  0.22797  0.12075  1.0000
  C   C44       1.0  0.25779  0.10478  0.39576  1.0000
  N   N2        1.0  0.43247  0.08141  0.38433  1.0000
  C   C45       1.0  0.42890  0.12127  0.35345  1.0000
  H   H63       1.0  0.43327  0.04571  0.39940  1.0000
  H   H64       1.0  0.44593  0.12307  0.34009  1.0000
  H   H65       1.0  0.41710  0.13125  0.33476  1.0000
  C   C46       1.0  0.42123  0.09633  0.35401  1.0000
  C   C47       1.0  0.42412  0.05748  0.37948  1.0000
  H   H66       1.0  0.44141  0.10349  0.43246  1.0000
  C   C48       1.0  0.33507  0.18906  0.10591  1.0000
  C   C49       1.0  0.29172  0.12495  0.37077  1.0000
  C   C50       1.0  0.15715  0.31991  0.27725  1.0000
  H   H67       1.0  0.25001  0.10114  0.36664  1.0000
  H   H68       1.0  0.27753  0.07420  0.38033  1.0000
  S   S16       1.0  0.34623  0.15697  0.98481  1.0000
  H   H69       1.0  0.32655  0.22187  0.02415  1.0000
  C   C51       1.0  0.28652  0.15746  0.44110  1.0000
  N   N3        1.0  0.32027  0.20149  0.07667  1.0000
  C   C52       1.0  0.30544  0.21779  0.09947  1.0000
  H   H70       1.0  0.29158  0.17879  0.07363  1.0000
  H   H71       1.0  0.18975  0.21809  0.44915  1.0000
  H   H72       1.0  0.28796  0.25017  0.09261  1.0000
  N   N4        1.0  0.27017  0.12702  0.39438  1.0000
  C   C53       1.0  0.47261  0.06601  0.40126  1.0000
  H   H73       1.0  0.28815  0.12165  0.44925  1.0000
  H   H74       1.0  0.06114  0.23877  0.32096  1.0000
  C   C54       1.0  0.33585  0.21332  0.04823  1.0000
  C   C55       1.0  0.29831  0.29060  0.02460  1.0000
  H   H75       1.0  0.26079  0.13308  0.45527  1.0000
  H   H76       1.0  0.30131  0.28934  0.05589  1.0000
  H   H77       1.0  0.24348  0.10569  0.41714  1.0000
  C   C56       1.0  0.16348  0.30987  0.19704  1.0000
  C   C57       1.0  0.27597  0.13381  0.43594  1.0000
  C   C58       1.0  0.28920  0.11647  0.32806  1.0000
  C   C59       1.0  0.04165  0.29532  0.26468  1.0000
  H   H78       1.0  0.30987  0.18021  0.15177  1.0000
  H   H79       1.0  0.30637  0.11473  0.31481  1.0000
  H   H80       1.0  0.42939  0.03004  0.16152  1.0000
  H   H81       1.0  0.32488  0.26647  0.00940  1.0000
  C   C60       1.0  0.34363  0.01533  0.20906  1.0000
  H   H82       1.0  0.04430  0.24985  0.28172  1.0000
  H   H83       1.0  0.39498  0.05564  0.41990  1.0000
  C   C61       1.0  0.49014  0.05986  0.25553  1.0000
  H   H84       1.0  0.08831  0.29404  0.18038  1.0000
  H   H85       1.0  0.30394  0.11351  0.38553  1.0000
  C   C62       1.0  0.31172  0.27749  0.99823  1.0000
  H   H86       1.0  0.31628  0.16849  0.04962  1.0000
  C   C63       1.0  0.43621  0.01465  0.17622  1.0000
  H   H87       1.0  0.34865  0.17940  0.09046  1.0000
  H   H88       1.0  0.06507  0.31033  0.19954  1.0000
  H   H89       1.0  0.44878  0.10635  0.17378  1.0000
  C   C64       1.0  0.48963  0.10433  0.28347  1.0000
  C   C65       1.0  0.07611  0.31366  0.29192  1.0000
  H   H90       1.0  0.34402  0.20110  0.12557  1.0000
  C   C66       1.0  0.02354  0.29335  0.29763  1.0000
  H   H91       1.0  0.38503  0.00620  0.26216  1.0000
  H   H92       1.0  0.28932  0.16047  0.47300  1.0000
  H   H93       1.0  0.46626  0.09235  0.13870  1.0000
  H   H94       1.0  0.49063  0.06966  0.39440  1.0000
  H   H95       1.0  0.33584  0.16460  0.15358  1.0000
  H   H96       1.0  0.45831  0.12197  0.13226  1.0000
  H   H97       1.0  0.45134  0.01999  0.19287  1.0000
  H   H98       1.0  0.07595  0.32711  0.26914  1.0000
  H   H99       1.0  0.09427  0.31095  0.29971  1.0000
  H   H100      1.0  0.46475  0.09842  0.37726  1.0000
  H   H101      1.0  0.40293  0.00078  0.18431  1.0000
  H   H102      1.0  0.01004  0.30619  0.29259  1.0000
  H   H103      1.0  0.27526  0.17128  0.43078  1.0000
  H   H104      1.0  0.01491  0.27673  0.29610  1.0000
  H   H105      1.0  0.47012  0.06942  0.43306  1.0000
  H   H106      1.0  0.06083  0.27768  0.33490  1.0000
  H   H107      1.0  0.49038  0.04244  0.24557  1.0000
  H   H108      1.0  0.02957  0.29609  0.32797  1.0000
  H   H109      1.0  0.45658  0.99895  0.24568  1.0000
  H   H110      1.0  0.06251  0.31300  0.35302  1.0000
  H   H111      1.0  0.40591  0.11860  0.43757  1.0000
  H   H112      1.0  0.15494  0.32398  0.30806  1.0000
  H   H113      1.0  0.03932  0.31212  0.25035  1.0000
  H   H114      1.0  0.48718  0.15459  0.14659  1.0000
  H   H115      1.0  0.48815  0.10140  0.19832  1.0000
  S   S17       1.0  0.26552  0.32233  0.04610  1.0000
  C   C67       1.0  0.06416  0.32459  0.32765  1.0000
  H   H116      1.0  0.09366  0.32746  0.99080  1.0000
  C   C68       1.0  0.33633  0.99542  0.22744  1.0000
  H   H117      1.0  0.29492  0.06425  0.75906  1.0000
  Fe  Fe9       1.0  0.35893  0.18391  0.94285  1.0000
  S   S18       1.0  0.37424  0.21687  0.96177  1.0000
  Fe  Fe10      1.0  0.35972  0.19563  0.85457  1.0000
  S   S19       1.0  0.37577  0.22951  0.86819  1.0000
  S   S20       1.0  0.35336  0.18759  0.78863  1.0000
  Fe  Fe11      1.0  0.39870  0.21096  0.91090  1.0000
  S   S21       1.0  0.43773  0.20982  0.92028  1.0000
  Fe  Fe12      1.0  0.35013  0.23288  0.91806  1.0000
  S   S22       1.0  0.32554  0.26377  0.92225  1.0000
  S   S23       1.0  0.38397  0.17699  0.89438  1.0000
  S   S24       1.0  0.33347  0.19993  0.90208  1.0000
  Fe  Fe13      1.0  0.25792  0.07567  0.57099  1.0000
  S   S25       1.0  0.29404  0.08145  0.58788  1.0000
  S   S26       1.0  0.24036  0.04098  0.58007  1.0000
  Fe  Fe14      1.0  0.25210  0.12620  0.54306  1.0000
  S   S27       1.0  0.28869  0.13395  0.55827  1.0000
  H   H118      1.0  0.21523  0.99946  0.58788  1.0000
  Fe  Fe15      1.0  0.29670  0.10009  0.53037  1.0000
  Fe  Fe16      1.0  0.28289  0.11475  0.61496  1.0000
  S   S28       1.0  0.29145  0.12243  0.68053  1.0000
  S   S29       1.0  0.26086  0.09321  0.51227  1.0000
  S   S30       1.0  0.24600  0.10820  0.60092  1.0000
  C   C69       1.0  0.10046  0.31829  0.53407  1.0000
  C   C70       1.0  0.24863  0.01168  0.57433  1.0000
  H   H119      1.0  0.27480  0.08414  0.73871  1.0000
  S   S31       1.0  0.23350  0.15644  0.51280  1.0000
  H   H120      1.0  0.15000  0.16392  0.49602  1.0000
  C   C71       1.0  0.33594  0.16918  0.75938  1.0000
  C   C72       1.0  0.32160  0.15292  0.77583  1.0000
  C   C73       1.0  0.30821  0.13893  0.75131  1.0000
  C   C74       1.0  0.30881  0.14086  0.70988  1.0000
  C   C75       1.0  0.32305  0.15724  0.69350  1.0000
  C   C76       1.0  0.33644  0.17121  0.71801  1.0000
  H   H121      1.0  0.32089  0.15100  0.80746  1.0000
  H   H122      1.0  0.29736  0.12641  0.76460  1.0000
  H   H123      1.0  0.32383  0.15908  0.66187  1.0000
  H   H124      1.0  0.34738  0.18365  0.70468  1.0000
  H   H125      1.0  0.41352  0.19364  0.76534  1.0000
  C   C77       1.0  0.46673  0.21795  0.91228  1.0000
  C   C78       1.0  0.47276  0.23545  0.88656  1.0000
  H   H126      1.0  0.18500  0.14412  0.51831  1.0000
  H   H127      1.0  0.45964  0.24527  0.87229  1.0000
  C   C79       1.0  0.25265  0.02236  0.68868  1.0000
  H   H128      1.0  0.25000  0.02070  0.65637  1.0000
  C   C80       1.0  0.23558  0.08546  0.70070  1.0000
  H   H129      1.0  0.47455  0.18693  0.85731  1.0000
  H   H130      1.0  0.18724  0.23698  0.56034  1.0000
  C   C81       1.0  0.30847  0.27913  0.95750  1.0000
  C   C82       1.0  0.43750  0.16313  0.83993  1.0000
  H   H131      1.0  0.11021  0.31902  0.82123  1.0000
  C   C83       1.0  0.46363  0.14166  0.76786  1.0000
  C   C84       1.0  0.47554  0.17904  0.82772  1.0000
  H   H132      1.0  0.43083  0.17459  0.86338  1.0000
  H   H133      1.0  0.27935  0.07325  0.67856  1.0000
  H   H134      1.0  0.27314  0.03279  0.75119  1.0000
  C   C85       1.0  0.29148  0.29409  0.94386  1.0000
  H   H135      1.0  0.30339  0.03859  0.70583  1.0000
  H   H136      1.0  0.26968  0.05470  0.64221  1.0000
  H   H137      1.0  0.40541  0.19197  0.81667  1.0000
  C   C86       1.0  0.17947  0.27868  0.53573  1.0000
  H   H138      1.0  0.26837  0.19775  0.79983  1.0000
  H   H139      1.0  0.45090  0.20959  0.78428  1.0000
  H   H140      1.0  0.09290  0.30453  0.85571  1.0000
  N   N5        1.0  0.25677  0.04678  0.69986  1.0000
  C   C87       1.0  0.29793  0.04197  0.67527  1.0000
  N   N6        1.0  0.15248  0.24906  0.56549  1.0000
  C   C88       1.0  0.16972  0.23103  0.55476  1.0000
  C   C89       1.0  0.15563  0.26822  0.53676  1.0000
  C   C90       1.0  0.12929  0.23907  0.55988  1.0000
  C   C91       1.0  0.15613  0.25610  0.60774  1.0000
  C   C92       1.0  0.16771  0.20817  0.57634  1.0000
  H   H141      1.0  0.21950  0.09318  0.69021  1.0000
  C   C93       1.0  0.10889  0.25465  0.56878  1.0000
  C   C94       1.0  0.14737  0.27993  0.61997  1.0000
  H   H142      1.0  0.16903  0.22740  0.52270  1.0000
  H   H143      1.0  0.45954  0.17640  0.74847  1.0000
  H   H144      1.0  0.14358  0.28222  0.54219  1.0000
  H   H145      1.0  0.48697  0.21147  0.80243  1.0000
  H   H146      1.0  0.12741  0.23271  0.52915  1.0000
  H   H147      1.0  0.12682  0.22414  0.57921  1.0000
  H   H148      1.0  0.14844  0.24353  0.62808  1.0000
  H   H149      1.0  0.17457  0.25602  0.61450  1.0000
  H   H150      1.0  0.15330  0.19817  0.56493  1.0000
  H   H151      1.0  0.18317  0.19786  0.57026  1.0000
  H   H152      1.0  0.16629  0.21025  0.60865  1.0000
  H   H153      1.0  0.48009  0.19184  0.95014  1.0000
  C   C95       1.0  0.44884  0.14348  0.86256  1.0000
  H   H154      1.0  0.10914  0.27062  0.55184  1.0000
  H   H155      1.0  0.10736  0.25822  0.60073  1.0000
  H   H156      1.0  0.09317  0.24576  0.56009  1.0000
  H   H157      1.0  0.14130  0.27927  0.65092  1.0000
  H   H158      1.0  0.13316  0.28678  0.60254  1.0000
  H   H159      1.0  0.16139  0.29235  0.61998  1.0000
  N   N7        1.0  0.29476  0.23965  0.80334  1.0000
  C   C96       1.0  0.28746  0.25420  0.76917  1.0000
  C   C97       1.0  0.30003  0.21620  0.78795  1.0000
  C   C98       1.0  0.31562  0.24890  0.82275  1.0000
  C   C99       1.0  0.27593  0.23937  0.83333  1.0000
  C   C100      1.0  0.28428  0.27970  0.77802  1.0000
  C   C101      1.0  0.27949  0.20218  0.77470  1.0000
  C   C102      1.0  0.33610  0.25271  0.79537  1.0000
  C   C103      1.0  0.27971  0.22412  0.86964  1.0000
  H   H160      1.0  0.29957  0.25260  0.74412  1.0000
  H   H161      1.0  0.27102  0.24830  0.75723  1.0000
  H   H162      1.0  0.30951  0.20597  0.80995  1.0000
  H   H163      1.0  0.31168  0.21699  0.76217  1.0000
  H   H164      1.0  0.31186  0.26513  0.83825  1.0000
  H   H165      1.0  0.32154  0.23727  0.84636  1.0000
  H   H166      1.0  0.27308  0.25663  0.84564  1.0000
  H   H167      1.0  0.25935  0.23511  0.81984  1.0000
  H   H168      1.0  0.27053  0.28290  0.79962  1.0000
  H   H169      1.0  0.30007  0.28778  0.78826  1.0000
  H   H170      1.0  0.27930  0.28848  0.75044  1.0000
  H   H171      1.0  0.28566  0.18595  0.76182  1.0000
  H   H172      1.0  0.26953  0.21081  0.75153  1.0000
  H   H173      1.0  0.34254  0.23657  0.78277  1.0000
  H   H174      1.0  0.35006  0.26009  0.81290  1.0000
  H   H175      1.0  0.33240  0.26485  0.77141  1.0000
  H   H176      1.0  0.28936  0.23320  0.89273  1.0000
  H   H177      1.0  0.28854  0.20803  0.86273  1.0000
  H   H178      1.0  0.26307  0.21906  0.88193  1.0000
  H   H179      1.0  0.23251  0.01303  0.74129  1.0000
  C   C104      1.0  0.27080  0.00488  0.56502  1.0000
  C   C105      1.0  0.27536  0.05523  0.67334  1.0000
  N   N8        1.0  0.45203  0.17622  0.81132  1.0000
  H   H180      1.0  0.11205  0.32375  0.93102  1.0000
  C   C106      1.0  0.23533  0.05994  0.69147  1.0000
  H   H181      1.0  0.07598  0.30889  0.91466  1.0000
  C   C107      1.0  0.27668  0.06868  0.75669  1.0000
  H   H182      1.0  0.44335  0.20932  0.83489  1.0000
  C   C108      1.0  0.06796  0.32599  0.91332  1.0000
  H   H183      1.0  0.41091  0.21859  0.79451  1.0000
  H   H184      1.0  0.24726  0.04719  0.76145  1.0000
  H   H185      1.0  0.28879  0.29576  0.91254  1.0000
  H   H186      1.0  0.29682  0.02578  0.65871  1.0000
  H   H187      1.0  0.28360  0.01759  0.56039  1.0000
  C   C109      1.0  0.26283  0.04793  0.74296  1.0000
  H   H188      1.0  0.19165  0.26743  0.52005  1.0000
  H   H189      1.0  0.23052  0.05801  0.65992  1.0000
  H   H190      1.0  0.01882  0.32802  0.70611  1.0000
  C   C110      1.0  0.44176  0.19960  0.80693  1.0000
  H   H191      1.0  0.27129  0.07341  0.78697  1.0000
  H   H192      1.0  0.22090  0.05328  0.70883  1.0000
  H   H193      1.0  0.31138  0.05209  0.66082  1.0000
  H   H194      1.0  0.15174  0.26250  0.50623  1.0000
  H   H195      1.0  0.17883  0.29478  0.51888  1.0000
  C   C111      1.0  0.48434  0.20551  0.93036  1.0000
  H   H196      1.0  0.03624  0.31139  0.89363  1.0000
  S   S32       1.0  0.32442  0.08665  0.48977  1.0000
  H   H197      1.0  0.09194  0.30983  0.51011  1.0000
  H   H198      1.0  0.26771  0.01162  0.69535  1.0000
  H   H199      1.0  0.43562  0.13420  0.87920  1.0000
  H   H200      1.0  0.43456  0.16253  0.76097  1.0000
  H   H201      1.0  0.05372  0.32042  0.85388  1.0000
  H   H202      1.0  0.45165  0.12801  0.77589  1.0000
  C   C112      1.0  0.45219  0.16513  0.77135  1.0000
  H   H203      1.0  0.42231  0.15616  0.82498  1.0000
  C   C113      1.0  0.04806  0.32486  0.88409  1.0000
  H   H204      1.0  0.45746  0.13111  0.84316  1.0000
  C   C114      1.0  0.27789  0.30700  0.97025  1.0000
  C   C115      1.0  0.41651  0.20059  0.79517  1.0000
  C   C116      1.0  0.08852  0.32384  0.56865  1.0000
  C   C117      1.0  0.12321  0.32414  0.53022  1.0000
  H   H205      1.0  0.46094  0.15000  0.88476  1.0000
  S   S33       1.0  0.13850  0.31804  0.48670  1.0000
  H   H206      1.0  0.24934  0.09451  0.68538  1.0000
  H   H207      1.0  0.07080  0.31959  0.57107  1.0000
  H   H208      1.0  0.23636  0.08864  0.73283  1.0000
  H   H209      1.0  0.48415  0.16262  0.83302  1.0000
  C   C118      1.0  0.23245  0.01071  0.70893  1.0000
  H   H210      1.0  0.18591  0.28264  0.56548  1.0000
  C   C119      1.0  0.10500  0.31863  0.85264  1.0000
  C   C120      1.0  0.20754  0.16975  0.49692  1.0000
  H   H211      1.0  0.12065  0.31506  0.86952  1.0000
  H   H212      1.0  0.47927  0.13989  0.78529  1.0000
  C   C121      1.0  0.18621  0.16021  0.50331  1.0000
  H   H213      1.0  0.26500  0.31836  0.95901  1.0000
  H   H214      1.0  0.46920  0.13899  0.73693  1.0000
  H   H215      1.0  0.21610  0.01661  0.69644  1.0000
  C   C122      1.0  0.16630  0.17151  0.49047  1.0000
  C   C123      1.0  0.49200  0.19334  0.80296  1.0000
  H   H216      1.0  0.49400  0.18668  0.77263  1.0000
  H   H217      1.0  0.17555  0.32734  0.86790  1.0000
  Fe  Fe17      1.0  0.19496  0.61911  0.11295  1.0000
  S   S34       1.0  0.22763  0.60016  0.09846  1.0000
  S   S35       1.0  0.18690  0.62556  0.17926  1.0000
  Fe  Fe18      1.0  0.18123  0.61790  0.02540  1.0000
  H   H218      1.0  0.31497  0.34097  0.03311  1.0000
  Fe  Fe19      1.0  0.20675  0.57694  0.06003  1.0000
  S   S36       1.0  0.20301  0.53768  0.05521  1.0000
  Fe  Fe20      1.0  0.23078  0.62373  0.04574  1.0000
  H   H219      1.0  0.33399  0.35963  0.00660  1.0000
  S   S37       1.0  0.17417  0.59502  0.07663  1.0000
  S   S38       1.0  0.19959  0.64371  0.06261  1.0000
  Fe  Fe21      1.0  0.19800  0.35778  0.11732  1.0000
  S   S39       1.0  0.23439  0.36843  0.10951  1.0000
  S   S40       1.0  0.18474  0.35141  0.18077  1.0000
  Fe  Fe22      1.0  0.18929  0.36724  0.02946  1.0000
  S   S41       1.0  0.22513  0.37783  0.01678  1.0000
  Fe  Fe23      1.0  0.23495  0.34732  0.05360  1.0000
  Fe  Fe24      1.0  0.22173  0.39811  0.07323  1.0000
  S   S42       1.0  0.23655  0.43418  0.08237  1.0000
  H   H220      1.0  0.26336  0.42929  0.00114  1.0000
  S   S43       1.0  0.18562  0.38864  0.08422  1.0000
  H   H221      1.0  0.99980  0.65171  0.46914  1.0000
  C   C124      1.0  0.21271  0.50903  0.06316  1.0000
  C   C125      1.0  0.19856  0.49082  0.05287  1.0000
  C   C126      1.0  0.20537  0.46796  0.05869  1.0000
  C   C127      1.0  0.22657  0.46281  0.07494  1.0000
  C   C128      1.0  0.24063  0.48105  0.08553  1.0000
  C   C129      1.0  0.23380  0.50389  0.07980  1.0000
  H   H222      1.0  0.28491  0.42068  0.05831  1.0000
  H   H223      1.0  0.19425  0.45432  0.05034  1.0000
  H   H224      1.0  0.07441  0.33912  0.33795  1.0000
  H   H225      1.0  0.24498  0.51752  0.08798  1.0000
  C   C130      1.0  0.16817  0.64258  0.20933  1.0000
  H   H226      1.0  0.02130  0.65598  0.40940  1.0000
  H   H227      1.0  0.27853  0.40082  0.11692  1.0000
  C   C131      1.0  0.29327  0.38907  0.11794  1.0000
  S   S44       1.0  0.26460  0.63896  0.02329  1.0000
  N   N9        1.0  0.17930  0.54303  0.17875  1.0000
  C   C132      1.0  0.15540  0.54822  0.16536  1.0000
  C   C133      1.0  0.17913  0.54430  0.22310  1.0000
  C   C134      1.0  0.18513  0.51924  0.16559  1.0000
  C   C135      1.0  0.19492  0.56008  0.16027  1.0000
  C   C136      1.0  0.15002  0.54322  0.12179  1.0000
  C   C137      1.0  0.17332  0.56782  0.24057  1.0000
  C   C138      1.0  0.20834  0.50959  0.17776  1.0000
  C   C139      1.0  0.21886  0.56259  0.17815  1.0000
  H   H228      1.0  0.14284  0.53856  0.18305  1.0000
  H   H229      1.0  0.15112  0.56644  0.17010  1.0000
  H   H230      1.0  0.19542  0.53904  0.23616  1.0000
  H   H231      1.0  0.16679  0.53199  0.23541  1.0000
  H   H232      1.0  0.17205  0.50719  0.17623  1.0000
  H   H233      1.0  0.18509  0.51799  0.13292  1.0000
  H   H234      1.0  0.19721  0.55636  0.12856  1.0000
  H   H235      1.0  0.18706  0.57728  0.16077  1.0000
  H   H236      1.0  0.13367  0.55140  0.11389  1.0000
  H   H237      1.0  0.16302  0.54991  0.10157  1.0000
  H   H238      1.0  0.14811  0.52477  0.11648  1.0000
  H   H239      1.0  0.15554  0.57286  0.23474  1.0000
  H   H240      1.0  0.17528  0.56720  0.27305  1.0000
  H   H241      1.0  0.18479  0.58119  0.22961  1.0000
  H   H242      1.0  0.22237  0.51862  0.16304  1.0000
  H   H243      1.0  0.20958  0.49177  0.16722  1.0000
  H   H244      1.0  0.21079  0.50906  0.21001  1.0000
  H   H245      1.0  0.23182  0.55944  0.15495  1.0000
  H   H246      1.0  0.22298  0.55119  0.20276  1.0000
  H   H247      1.0  0.22131  0.58029  0.18847  1.0000
  C   C140      1.0  0.32269  0.39909  0.04533  1.0000
  H   H248      1.0  0.17346  0.35159  0.26330  1.0000
  C   C141      1.0  0.33159  0.41141  0.00850  1.0000
  H   H249      1.0  0.25705  0.47747  0.09814  1.0000
  S   S45       1.0  0.19888  0.33552  0.06307  1.0000
  C   C142      1.0  0.28128  0.40580  0.03918  1.0000
  S   S46       1.0  0.21240  0.59895  0.00654  1.0000
  H   H250      1.0  0.29008  0.37735  0.14287  1.0000
  C   C143      1.0  0.27574  0.41511  0.99791  1.0000
  C   C144      1.0  0.16770  0.33558  0.25168  1.0000
  H   H251      1.0  0.18219  0.49438  0.04008  1.0000
  H   H252      1.0  0.32588  0.42938  0.00834  1.0000
  C   C145      1.0  0.29840  0.37155  0.00861  1.0000
  C   C146      1.0  0.29586  0.37494  0.07981  1.0000
  H   H253      1.0  0.30882  0.39856  0.12512  1.0000
  H   H254      1.0  0.30947  0.64901  0.99537  1.0000
  N   N10       1.0  0.29982  0.38813  0.04236  1.0000
  H   H255      1.0  0.28152  0.36324  0.00853  1.0000
  H   H256      1.0  0.32259  0.41207  0.06910  1.0000
  H   H257      1.0  0.33590  0.38680  0.05513  1.0000
  H   H258      1.0  0.28032  0.36454  0.07724  1.0000
  C   C147      1.0  0.17110  0.33073  0.21138  1.0000
  S   S47       1.0  0.16041  0.37291  0.98633  1.0000
  H   H259      1.0  0.30986  0.36267  0.08535  1.0000
  H   H260      1.0  0.26502  0.39888  0.05034  1.0000
  C   C148      1.0  0.15426  0.65287  0.27574  1.0000
  H   H261      1.0  0.04732  0.33150  0.31951  1.0000
  H   H262      1.0  0.18001  0.62755  0.26333  1.0000
  H   H263      1.0  0.04194  0.64905  0.44588  1.0000
  S   S48       1.0  0.10545  0.64670  0.47831  1.0000
  C   C149      1.0  0.16857  0.63989  0.25062  1.0000
  C   C150      1.0  0.31663  0.35271  0.00786  1.0000
  H   H264      1.0  0.11354  0.35054  0.99341  1.0000
  H   H265      1.0  0.15481  0.65032  0.30722  1.0000
  C   C151      1.0  0.15317  0.65868  0.19369  1.0000
  H   H266      1.0  0.35039  0.41101  0.00874  1.0000
  H   H267      1.0  0.15250  0.66110  0.16217  1.0000
  Fe  Fe25      1.0  0.10566  0.40892  0.73005  1.0000
  S   S49       1.0  0.10311  0.39675  0.79265  1.0000
  S   S50       1.0  0.11868  0.44349  0.71311  1.0000
  Fe  Fe26      1.0  0.09499  0.36275  0.69453  1.0000
  S   S51       1.0  0.09225  0.34678  0.75402  1.0000
  H   H268      1.0  0.11401  0.38994  0.49296  1.0000
  Fe  Fe27      1.0  0.07268  0.37781  0.77120  1.0000
  S   S52       1.0  0.04161  0.37017  0.80711  1.0000
  Fe  Fe28      1.0  0.12294  0.36667  0.77101  1.0000
  S   S53       1.0  0.15088  0.34928  0.80562  1.0000
  S   S54       1.0  0.07323  0.39281  0.71065  1.0000
  S   S55       1.0  0.12766  0.37986  0.70944  1.0000
  Fe  Fe29      1.0  0.07133  0.56568  0.72380  1.0000
  S   S56       1.0  0.07226  0.57205  0.78855  1.0000
  S   S57       1.0  0.05661  0.53152  0.70783  1.0000
  Fe  Fe30      1.0  0.08315  0.61502  0.70474  1.0000
  S   S58       1.0  0.08453  0.62466  0.76920  1.0000
  S   S59       1.0  0.08706  0.64507  0.66294  1.0000
  Fe  Fe31      1.0  0.10367  0.59200  0.77728  1.0000
  S   S60       1.0  0.13474  0.58465  0.81510  1.0000
  Fe  Fe32      1.0  0.05302  0.60384  0.77485  1.0000
  S   S61       1.0  0.02219  0.60991  0.81277  1.0000
  S   S62       1.0  0.10446  0.58334  0.71236  1.0000
  S   S63       1.0  0.05012  0.59649  0.71057  1.0000
  C   C152      1.0  0.00575  0.36068  0.68358  1.0000
  H   H269      1.0  0.10823  0.41928  0.50072  1.0000
  H   H270      1.0  0.15194  0.53803  0.79536  1.0000
  H   H271      1.0  0.11390  0.52708  0.92489  1.0000
  C   C153      1.0  0.13893  0.59656  0.86248  1.0000
  C   C154      1.0  0.12656  0.61540  0.87556  1.0000
  C   C155      1.0  0.13120  0.62509  0.91258  1.0000
  C   C156      1.0  0.14798  0.61588  0.93717  1.0000
  C   C157      1.0  0.15995  0.59664  0.92454  1.0000
  C   C158      1.0  0.15562  0.58722  0.88718  1.0000
  H   H272      1.0  0.11367  0.62277  0.85689  1.0000
  H   H273      1.0  0.12180  0.63994  0.92210  1.0000
  H   H274      1.0  0.17278  0.58927  0.94329  1.0000
  H   H275      1.0  0.16534  0.57268  0.87733  1.0000
  C   C159      1.0  0.09186  0.64482  0.61155  1.0000
  C   C160      1.0  0.10145  0.62582  0.55013  1.0000
  C   C161      1.0  0.09734  0.62499  0.59098  1.0000
  H   H276      1.0  0.10586  0.61043  0.53445  1.0000
  H   H277      1.0  0.09860  0.60908  0.60659  1.0000
  H   H278      1.0  0.14970  0.51051  0.77196  1.0000
  C   C162      1.0  0.09450  0.34181  0.86369  1.0000
  C   C163      1.0  0.14056  0.52644  0.77927  1.0000
  C   C164      1.0  0.10832  0.40250  0.51540  1.0000
  H   H279      1.0  0.21198  0.60082  0.92031  1.0000
  C   C165      1.0  0.15661  0.35769  0.85460  1.0000
  C   C166      1.0  0.16889  0.34313  0.87942  1.0000
  C   C167      1.0  0.17180  0.34845  0.91953  1.0000
  C   C168      1.0  0.16241  0.36839  0.93504  1.0000
  C   C169      1.0  0.15099  0.38338  0.90981  1.0000
  C   C170      1.0  0.14824  0.37814  0.86973  1.0000
  H   H280      1.0  0.01442  0.63155  0.73719  1.0000
  H   H281      1.0  0.04797  0.63494  0.57295  1.0000
  H   H282      1.0  0.14366  0.39880  0.92162  1.0000
  H   H283      1.0  0.13927  0.38974  0.85074  1.0000
  H   H284      1.0  0.23413  0.62650  0.85086  1.0000
  C   C171      1.0  0.10107  0.46771  0.71256  1.0000
  C   C172      1.0  0.11083  0.48892  0.70557  1.0000
  C   C173      1.0  0.09739  0.50864  0.70469  1.0000
  C   C174      1.0  0.07401  0.50721  0.71024  1.0000
  C   C175      1.0  0.06418  0.48595  0.71675  1.0000
  C   C176      1.0  0.07769  0.46625  0.71829  1.0000
  H   H285      1.0  0.12890  0.49013  0.70088  1.0000
  H   H286      1.0  0.10503  0.52492  0.69912  1.0000
  H   H287      1.0  0.04607  0.48473  0.72077  1.0000
  H   H288      1.0  0.07001  0.44995  0.72353  1.0000
  C   C177      1.0  0.03469  0.64792  0.56711  1.0000
  H   H289      1.0  0.08004  0.40314  0.91265  1.0000
  H   H290      1.0  0.14124  0.45842  0.81584  1.0000
  H   H291      1.0  0.03450  0.41094  0.76177  1.0000
  C   C178      1.0  0.22877  0.62590  0.88227  1.0000
  H   H292      1.0  0.13637  0.53484  0.75096  1.0000
  H   H293      1.0  0.20238  0.60055  0.86984  1.0000
  H   H294      1.0  0.24489  0.62541  0.89921  1.0000
  H   H295      1.0  0.00256  0.50746  0.77629  1.0000
  H   H296      1.0  0.11209  0.46487  0.82316  1.0000
  H   H297      1.0  0.11888  0.35217  0.92623  1.0000
  H   H298      1.0  0.00301  0.36755  0.71368  1.0000
  C   C179      1.0  0.01691  0.38384  0.79075  1.0000
  C   C180      1.0  0.99570  0.37477  0.79999  1.0000
  H   H299      1.0  0.02712  0.55910  0.82139  1.0000
  H   H300      1.0  0.01627  0.55605  0.75046  1.0000
  C   C181      1.0  0.03436  0.65317  0.52257  1.0000
  H   H301      1.0  0.13076  0.34840  0.62074  1.0000
  C   C182      1.0  0.21172  0.64693  0.93734  1.0000
  H   H302      1.0  0.18036  0.33663  0.93882  1.0000
  H   H303      1.0  0.12779  0.47786  0.78348  1.0000
  H   H304      1.0  0.02925  0.63688  0.50866  1.0000
  N   N11       1.0  0.12111  0.51254  0.84285  1.0000
  C   C183      1.0  0.13582  0.49155  0.84264  1.0000
  C   C184      1.0  0.13225  0.53009  0.86852  1.0000
  C   C185      1.0  0.11841  0.52209  0.80205  1.0000
  C   C186      1.0  0.09801  0.50643  0.85820  1.0000
  C   C187      1.0  0.12851  0.47236  0.81455  1.0000
  C   C188      1.0  0.13141  0.52571  0.91322  1.0000
  C   C189      1.0  0.99738  0.61870  0.78847  1.0000
  C   C190      1.0  0.08070  0.52614  0.86131  1.0000
  H   H305      1.0  0.15367  0.49578  0.83529  1.0000
  H   H306      1.0  0.13656  0.48391  0.87251  1.0000
  H   H307      1.0  0.12491  0.54721  0.86361  1.0000
  H   H308      1.0  0.15043  0.53192  0.86059  1.0000
  H   H309      1.0  0.10759  0.51099  0.78370  1.0000
  H   H310      1.0  0.10920  0.53859  0.80312  1.0000
  H   H311      1.0  0.08995  0.49377  0.83856  1.0000
  H   H312      1.0  0.09901  0.49755  0.88703  1.0000
  C   C191      1.0  0.13409  0.33507  0.56161  1.0000
  H   H313      1.0  0.14143  0.40772  0.53738  1.0000
  H   H314      1.0  0.01365  0.37494  0.66731  1.0000
  H   H315      1.0  0.18143  0.63246  0.88687  1.0000
  H   H316      1.0  0.13893  0.50912  0.92125  1.0000
  H   H317      1.0  0.14142  0.53898  0.92841  1.0000
  H   H318      1.0  0.99678  0.36619  0.60884  1.0000
  H   H319      1.0  0.09092  0.39783  0.52370  1.0000
  C   C192      1.0  0.99530  0.51552  0.74956  1.0000
  H   H320      1.0  0.07031  0.52717  0.83416  1.0000
  H   H321      1.0  0.08846  0.54288  0.86620  1.0000
  H   H322      1.0  0.06933  0.52333  0.88691  1.0000
  N   N12       1.0  0.11909  0.41568  0.58635  1.0000
  C   C193      1.0  0.14072  0.42019  0.60862  1.0000
  C   C194      1.0  0.10926  0.43835  0.57476  1.0000
  C   C195      1.0  0.12506  0.40192  0.55014  1.0000
  C   C196      1.0  0.10353  0.40274  0.61325  1.0000
  C   C197      1.0  0.15633  0.39949  0.61590  1.0000
  C   C198      1.0  0.10278  0.45430  0.60911  1.0000
  H   H323      1.0  0.22748  0.64215  0.95327  1.0000
  C   C199      1.0  0.07949  0.39782  0.59818  1.0000
  H   H324      1.0  0.15119  0.43300  0.59300  1.0000
  H   H325      1.0  0.13705  0.42758  0.63814  1.0000
  H   H326      1.0  0.09387  0.43664  0.55654  1.0000
  H   H327      1.0  0.12144  0.44759  0.55561  1.0000
  H   H328      1.0  0.02738  0.53064  0.80419  1.0000
  H   H329      1.0  0.12771  0.38379  0.55795  1.0000
  H   H330      1.0  0.11090  0.38590  0.62031  1.0000
  H   H331      1.0  0.10205  0.41092  0.64271  1.0000
  H   H332      1.0  0.17044  0.40470  0.63538  1.0000
  H   H333      1.0  0.14751  0.38553  0.63096  1.0000
  H   H334      1.0  0.16409  0.39303  0.58827  1.0000
  H   H335      1.0  0.09017  0.44662  0.62919  1.0000
  H   H336      1.0  0.11778  0.45972  0.62614  1.0000
  H   H337      1.0  0.09492  0.46997  0.59711  1.0000
  H   H338      1.0  0.29063  0.42187  0.98236  1.0000
  C   C200      1.0  0.10449  0.34099  0.93354  1.0000
  C   C201      1.0  0.10001  0.64640  0.52953  1.0000
  H   H339      1.0  0.07920  0.38174  0.58117  1.0000
  H   H340      1.0  0.07197  0.41164  0.58063  1.0000
  H   H341      1.0  0.06790  0.39596  0.62372  1.0000
  C   C202      1.0  0.01820  0.40371  0.76860  1.0000
  H   H342      1.0  0.20033  0.62798  0.81892  1.0000
  H   H343      1.0  0.29937  0.38000  0.97962  1.0000
  H   H344      1.0  0.31432  0.34226  0.98095  1.0000
  H   H345      1.0  0.06274  0.37030  0.88364  1.0000
  C   C203      1.0  0.09925  0.33506  0.59982  1.0000
  H   H346      1.0  0.10090  0.38684  0.93809  1.0000
  N   N13       1.0  0.08528  0.34393  0.90496  1.0000
  C   C204      1.0  0.12221  0.34032  0.59650  1.0000
  H   H347      1.0  0.10112  0.38847  0.88482  1.0000
  H   H348      1.0  0.10789  0.35453  0.85842  1.0000
  N   N14       1.0  0.21500  0.64656  0.89325  1.0000
  H   H349      1.0  0.05221  0.65563  0.51293  1.0000
  H   H350      1.0  0.99937  0.43027  0.73978  1.0000
  C   C205      1.0  0.99832  0.41466  0.75629  1.0000
  C   C206      1.0  0.09024  0.38728  0.91128  1.0000
  C   C207      1.0  0.21720  0.60294  0.88926  1.0000
  H   H351      1.0  0.22939  0.58907  0.88244  1.0000
  S   S64       1.0  0.15436  0.62977  0.98206  1.0000
  H   H352      1.0  0.06275  0.36775  0.93509  1.0000
  C   C208      1.0  0.19193  0.64621  0.87437  1.0000
  C   C209      1.0  0.07413  0.36692  0.90899  1.0000
  H   H353      1.0  0.08485  0.35637  0.98315  1.0000
  H   H354      1.0  0.19929  0.63389  0.94642  1.0000
  C   C210      1.0  0.00333  0.55342  0.77395  1.0000
  C   C211      1.0  0.01606  0.54523  0.81090  1.0000
  H   H355      1.0  0.00975  0.51760  0.72870  1.0000
  C   C212      1.0  0.19147  0.64350  0.82920  1.0000
  H   H356      1.0  0.32691  0.40327  0.98045  1.0000
  H   H357      1.0  0.17355  0.64190  0.81974  1.0000
  H   H358      1.0  0.01842  0.64055  0.57697  1.0000
  H   H359      1.0  0.99678  0.57057  0.78113  1.0000
  H   H360      1.0  0.03962  0.34925  0.69897  1.0000
  C   C213      1.0  0.02399  0.34193  0.68624  1.0000
  H   H361      1.0  0.26737  0.40212  0.97946  1.0000
  H   H362      1.0  0.19837  0.65855  0.81403  1.0000
  C   C214      1.0  0.99825  0.62871  0.75123  1.0000
  H   H363      1.0  0.99914  0.33662  0.61505  1.0000
  H   H364      1.0  0.00454  0.54122  0.83561  1.0000
  H   H365      1.0  0.08128  0.34586  0.84154  1.0000
  H   H366      1.0  0.99466  0.35941  0.81719  1.0000
  H   H367      1.0  0.02859  0.33500  0.65693  1.0000
  H   H368      1.0  0.03825  0.34093  0.88332  1.0000
  S   S65       1.0  0.08305  0.34259  0.64169  1.0000
  H   H369      1.0  0.15178  0.33937  0.55896  1.0000
  C   C215      1.0  0.09853  0.34391  0.97757  1.0000
  H   H370      1.0  0.06038  0.32859  0.94304  1.0000
  Fe  Fe33      1.0  0.36284  0.91679  0.19521  1.0000
  S   S66       1.0  0.36753  0.92124  0.25990  1.0000
  S   S67       1.0  0.35963  0.94634  0.15369  1.0000
  Fe  Fe34      1.0  0.37240  0.86596  0.19810  1.0000
  S   S68       1.0  0.37829  0.86644  0.26409  1.0000
  S   S69       1.0  0.37775  0.83346  0.16252  1.0000
  Fe  Fe35      1.0  0.34752  0.88925  0.26645  1.0000
  S   S70       1.0  0.31807  0.89023  0.31012  1.0000
  Fe  Fe36      1.0  0.39773  0.89843  0.25246  1.0000
  S   S71       1.0  0.43000  0.91326  0.27645  1.0000
  S   S72       1.0  0.34024  0.88652  0.20127  1.0000
  S   S73       1.0  0.39440  0.89608  0.18701  1.0000
  Fe  Fe37      1.0  0.12494  0.72553  0.42619  1.0000
  S   S74       1.0  0.13494  0.69011  0.40686  1.0000
  S   S75       1.0  0.15710  0.74464  0.44773  1.0000
  Fe  Fe38      1.0  0.07359  0.71523  0.40848  1.0000
  S   S76       1.0  0.08162  0.67986  0.38756  1.0000
  S   S77       1.0  0.03702  0.72881  0.41969  1.0000
  Fe  Fe39      1.0  0.10441  0.67834  0.44048  1.0000
  Fe  Fe40      1.0  0.11170  0.69451  0.35531  1.0000
  S   S78       1.0  0.12120  0.68670  0.29021  1.0000
  H   H371      1.0  0.47169  0.81660  0.13748  1.0000
  S   S79       1.0  0.10243  0.73063  0.37291  1.0000
  H   H372      1.0  0.25645  0.83159  0.31313  1.0000
  H   H373      1.0  0.28663  0.83185  0.31794  1.0000
  H   H374      1.0  0.45341  0.90890  0.15840  1.0000
  H   H375      1.0  0.27346  0.74061  0.10360  1.0000
  C   C216      1.0  0.00082  0.70570  0.38360  1.0000
  H   H376      1.0  0.45767  0.96099  0.27691  1.0000
  C   C217      1.0  0.01099  0.66681  0.46808  1.0000
  H   H377      1.0  0.45333  0.89065  0.19997  1.0000
  C   C218      1.0  0.20821  0.81152  0.40033  1.0000
  H   H378      1.0  0.27689  0.71394  0.07937  1.0000
  H   H379      1.0  0.23724  0.80105  0.36713  1.0000
  H   H380      1.0  0.19304  0.81224  0.38114  1.0000
  C   C219      1.0  0.34215  0.93896  0.37877  1.0000
  H   H381      1.0  0.28979  0.77442  0.10887  1.0000
  H   H382      1.0  0.26699  0.73746  0.05162  1.0000
  C   C220      1.0  0.31610  0.79856  0.10160  1.0000
  C   C221      1.0  0.26923  0.82895  0.37421  1.0000
  H   H383      1.0  0.99555  0.74738  0.45182  1.0000
  C   C222      1.0  0.00769  0.72235  0.41042  1.0000
  H   H384      1.0  0.35305  0.76369  0.09773  1.0000
  H   H385      1.0  0.46056  0.82611  0.20295  1.0000
  H   H386      1.0  0.01348  0.69629  0.36719  1.0000
  C   C223      1.0  0.31796  0.87867  0.35803  1.0000
  C   C224      1.0  0.30011  0.88451  0.38357  1.0000
  C   C225      1.0  0.29905  0.87556  0.42183  1.0000
  C   C226      1.0  0.31527  0.85984  0.43432  1.0000
  C   C227      1.0  0.33317  0.85400  0.40885  1.0000
  C   C228      1.0  0.33467  0.86356  0.37096  1.0000
  H   H387      1.0  0.28706  0.89610  0.37368  1.0000
  H   H388      1.0  0.28549  0.88051  0.44142  1.0000
  H   H389      1.0  0.34587  0.84190  0.41835  1.0000
  H   H390      1.0  0.34847  0.85889  0.35150  1.0000
  C   C229      1.0  0.37202  0.83196  0.11138  1.0000
  C   C230      1.0  0.37910  0.81277  0.08989  1.0000
  C   C231      1.0  0.37423  0.81072  0.04944  1.0000
  C   C232      1.0  0.36188  0.82771  0.03025  1.0000
  C   C233      1.0  0.35499  0.84696  0.05166  1.0000
  C   C234      1.0  0.36010  0.84914  0.09197  1.0000
  H   H391      1.0  0.38842  0.79944  0.10462  1.0000
  H   H392      1.0  0.37993  0.79599  0.03318  1.0000
  H   H393      1.0  0.34554  0.86027  0.03710  1.0000
  H   H394      1.0  0.35457  0.86401  0.10812  1.0000
  C   C235      1.0  0.45451  0.89640  0.28111  1.0000
  C   C236      1.0  0.45358  0.87403  0.29453  1.0000
  C   C237      1.0  0.47552  0.90596  0.27206  1.0000
  H   H395      1.0  0.43744  0.86666  0.30204  1.0000
  H   H396      1.0  0.47639  0.92326  0.26184  1.0000
  C   C238      1.0  0.35329  0.97273  0.17535  1.0000
  H   H397      1.0  0.39107  0.97036  0.22282  1.0000
  C   C239      1.0  0.34150  0.97414  0.21103  1.0000
  H   H398      1.0  0.27643  0.77589  0.04472  1.0000
  H   H399      1.0  0.33580  0.95887  0.22535  1.0000
  H   H400      1.0  0.25440  0.86772  0.40371  1.0000
  C   C240      1.0  0.30364  0.73760  0.06503  1.0000
  H   H401      1.0  0.27111  0.85661  0.33069  1.0000
  H   H402      1.0  0.28325  0.83699  0.39066  1.0000
  H   H403      1.0  0.42253  0.85316  0.17410  1.0000
  C   C241      1.0  0.30150  0.93935  0.46832  1.0000
  C   C242      1.0  0.25091  0.82628  0.43809  1.0000
  H   H404      1.0  0.28121  0.96206  0.43009  1.0000
  H   H405      1.0  0.36863  0.75577  0.05485  1.0000
  C   C243      1.0  0.47369  0.86137  0.29908  1.0000
  N   N15       1.0  0.46813  0.85115  0.15844  1.0000
  H   H406      1.0  0.29335  0.97593  0.47297  1.0000
  H   H407      1.0  0.33367  0.90523  0.43419  1.0000
  H   H408      1.0  0.30487  0.80799  0.02875  1.0000
  H   H409      1.0  0.28545  0.80041  0.99112  1.0000
  H   H410      1.0  0.42332  0.83269  0.21220  1.0000
  H   H411      1.0  0.43315  0.96807  0.30659  1.0000
  H   H412      1.0  0.18857  0.68950  0.24647  1.0000
  C   C244      1.0  0.29299  0.77228  0.03025  1.0000
  H   H413      1.0  0.35477  0.96047  0.44749  1.0000
  C   C245      1.0  0.13892  0.67171  0.21881  1.0000
  C   C246      1.0  0.46492  0.83320  0.12735  1.0000
  N   N16       1.0  0.30955  0.76227  0.05938  1.0000
  C   C247      1.0  0.33321  0.76280  0.04273  1.0000
  N   N17       1.0  0.32454  0.93998  0.44901  1.0000
  C   C248      1.0  0.43147  0.84837  0.20125  1.0000
  H   H414      1.0  0.43046  0.82053  0.13870  1.0000
  H   H415      1.0  0.31400  0.72980  0.08875  1.0000
  H   H416      1.0  0.26989  0.95750  0.47791  1.0000
  H   H417      1.0  0.47298  0.84415  0.30977  1.0000
  C   C249      1.0  0.35207  0.75383  0.06998  1.0000
  C   C250      1.0  0.40348  0.97476  0.24602  1.0000
  N   N18       1.0  0.17948  0.72488  0.30871  1.0000
  C   C251      1.0  0.17317  0.72182  0.26592  1.0000
  C   C252      1.0  0.15942  0.73581  0.32895  1.0000
  C   C253      1.0  0.18332  0.70169  0.32618  1.0000
  C   C254      1.0  0.20065  0.73899  0.31084  1.0000
  C   C255      1.0  0.18983  0.70791  0.24026  1.0000
  C   C256      1.0  0.15173  0.75884  0.31211  1.0000
  C   C257      1.0  0.19096  0.70085  0.36942  1.0000
  C   C258      1.0  0.20481  0.75223  0.34957  1.0000
  H   H418      1.0  0.15635  0.71371  0.26315  1.0000
  H   H419      1.0  0.17127  0.73850  0.25104  1.0000
  H   H420      1.0  0.16214  0.73826  0.36084  1.0000
  H   H421      1.0  0.14455  0.72438  0.32750  1.0000
  H   H422      1.0  0.16766  0.69140  0.32370  1.0000
  H   H423      1.0  0.19665  0.69218  0.30986  1.0000
  H   H424      1.0  0.21587  0.72823  0.30496  1.0000
  H   H425      1.0  0.20045  0.75201  0.28713  1.0000
  H   H426      1.0  0.20755  0.71355  0.24350  1.0000
  H   H427      1.0  0.40793  0.94727  0.17868  1.0000
  H   H428      1.0  0.18511  0.70993  0.20881  1.0000
  H   H429      1.0  0.14245  0.75657  0.28403  1.0000
  C   C259      1.0  0.29950  0.66428  0.99138  1.0000
  H   H430      1.0  0.16597  0.77062  0.30762  1.0000
  H   H431      1.0  0.20843  0.70727  0.37276  1.0000
  S   S80       1.0  0.09563  0.71294  0.46305  1.0000
  H   H432      1.0  0.17932  0.70996  0.38960  1.0000
  H   H433      1.0  0.22328  0.75255  0.35547  1.0000
  H   H434      1.0  0.19679  0.74520  0.37623  1.0000
  H   H435      1.0  0.19960  0.77023  0.34625  1.0000
  H   H436      1.0  0.23781  0.86207  0.36140  1.0000
  H   H437      1.0  0.20197  0.75502  0.47586  1.0000
  C   C260      1.0  0.45725  0.84434  0.19683  1.0000
  H   H438      1.0  0.47469  0.83760  0.10032  1.0000
  H   H439      1.0  0.35498  0.95219  0.38408  1.0000
  H   H440      1.0  0.20340  0.85786  0.40000  1.0000
  H   H441      1.0  0.40740  0.95840  0.26083  1.0000
  H   H442      1.0  0.36939  0.99162  0.12903  1.0000
  C   C261      1.0  0.13924  0.66895  0.26006  1.0000
  H   H443      1.0  0.33837  0.78005  0.03397  1.0000
  C   C262      1.0  0.27052  0.83782  0.33157  1.0000
  C   C263      1.0  0.44042  0.82826  0.11458  1.0000
  C   C264      1.0  0.24044  0.85700  0.39256  1.0000
  C   C265      1.0  0.22946  0.81756  0.37590  1.0000
  H   H444      1.0  0.27395  0.81068  0.37269  1.0000
  C   C266      1.0  0.25962  0.80202  0.44571  1.0000
  N   N19       1.0  0.24692  0.83228  0.39549  1.0000
  C   C267      1.0  0.21877  0.86473  0.41415  1.0000
  C   C268      1.0  0.28595  0.96007  0.46142  1.0000
  H   H445      1.0  0.32939  0.97622  0.45319  1.0000
  H   H446      1.0  0.31641  0.76397  0.12222  1.0000
  H   H447      1.0  0.21891  0.86083  0.44600  1.0000
  H   H448      1.0  0.35027  0.73554  0.07636  1.0000
  H   H449      1.0  0.22358  0.82551  0.34802  1.0000
  H   H450      1.0  0.41604  0.97111  0.14865  1.0000
  H   H451      1.0  0.13877  0.79063  0.46478  1.0000
  H   H452      1.0  0.30764  0.72764  0.03796  1.0000
  H   H453      1.0  0.43336  0.94628  0.15055  1.0000
  H   H454      1.0  0.23560  0.82855  0.45646  1.0000
  C   C269      1.0  0.16896  0.77016  0.46814  1.0000
  H   H455      1.0  0.13967  0.76696  0.33309  1.0000
  C   C270      1.0  0.30770  0.77391  0.09882  1.0000
  H   H456      1.0  0.12747  0.68403  0.20604  1.0000
  H   H457      1.0  0.20454  0.82275  0.42553  1.0000
  C   C271      1.0  0.33795  0.96021  0.46220  1.0000
  H   H458      1.0  0.32337  0.80161  0.13126  1.0000
  H   H459      1.0  0.24646  0.68498  0.00644  1.0000
  H   H460      1.0  0.30831  0.92950  0.39488  1.0000
  H   H461      1.0  0.30198  0.81078  0.09705  1.0000
  H   H462      1.0  0.33696  0.94051  0.34745  1.0000
  C   C272      1.0  0.27875  0.73254  0.07556  1.0000
  H   H463      1.0  0.46527  0.85360  0.22156  1.0000
  H   H464      1.0  0.24911  0.78907  0.43109  1.0000
  H   H465      1.0  0.20932  0.79378  0.41092  1.0000
  H   H466      1.0  0.03837  0.67789  0.42890  1.0000
  H   H467      1.0  0.21734  0.88346  0.41198  1.0000
  C   C273      1.0  0.29999  0.79414  0.00874  1.0000
  C   C274      1.0  0.26403  0.68441  0.99757  1.0000
  H   H468      1.0  0.32991  0.80262  0.08104  1.0000
  H   H469      1.0  0.47972  0.89860  0.17667  1.0000
  C   C275      1.0  0.44772  0.97506  0.29017  1.0000
  H   H470      1.0  0.46879  0.87817  0.11547  1.0000
  H   H471      1.0  0.33393  0.75281  0.01492  1.0000
  C   C276      1.0  0.27654  0.66437  0.00292  1.0000
  H   H472      1.0  0.31377  0.95894  0.39742  1.0000
  C   C277      1.0  0.46184  0.89387  0.17155  1.0000
  C   C278      1.0  0.19192  0.77027  0.47949  1.0000
  H   H473      1.0  0.27760  0.80005  0.43666  1.0000
  H   H474      1.0  0.35602  0.92086  0.45475  1.0000
  H   H475      1.0  0.42801  0.86155  0.22387  1.0000
  H   H476      1.0  0.26349  0.83802  0.45129  1.0000
  N   N20       1.0  0.42446  0.98479  0.22798  1.0000
  H   H477      1.0  0.29208  0.92411  0.45827  1.0000
  H   H478      1.0  0.44085  0.81555  0.09044  1.0000
  C   C279      1.0  0.43609  0.96679  0.20356  1.0000
  H   H479      1.0  0.19125  0.68290  0.37918  1.0000
  C   C280      1.0  0.32094  0.94205  0.40512  1.0000
  H   H480      1.0  0.44020  0.95170  0.22181  1.0000
  C   C281      1.0  0.42236  0.95763  0.16846  1.0000
  H   H481      1.0  0.28940  0.75984  0.00636  1.0000
  H   H482      1.0  0.35003  0.92194  0.38160  1.0000
  H   H483      1.0  0.45270  0.97282  0.19235  1.0000
  C   C282      1.0  0.15639  0.79017  0.47324  1.0000
  H   H484      1.0  0.43142  0.84325  0.10265  1.0000
  C   C283      1.0  0.45965  0.87364  0.14308  1.0000
  H   H485      1.0  0.44168  0.87316  0.13428  1.0000
  H   H486      1.0  0.37511  0.98109  0.28535  1.0000
  C   C284      1.0  0.33743  0.91818  0.45698  1.0000
  C   C285      1.0  0.39063  0.99001  0.27560  1.0000
  S   S81       1.0  0.31305  0.84649  0.48065  1.0000
  H   H487      1.0  0.45889  0.98328  0.31209  1.0000
  H   H488      1.0  0.00050  0.68080  0.45583  1.0000
  H   H489      1.0  0.31390  0.79080  0.98750  1.0000
  C   C286      1.0  0.36035  0.99264  0.15672  1.0000
  C   C287      1.0  0.44061  0.99282  0.25921  1.0000
  H   H490      1.0  0.40077  0.99350  0.30226  1.0000
  H   H491      1.0  0.25908  0.79869  0.47788  1.0000
  C   C288      1.0  0.49328  0.85361  0.16522  1.0000
  H   H492      1.0  0.20002  0.66722  0.98683  1.0000
  C   C289      1.0  0.02945  0.66211  0.43679  1.0000
  H   H493      1.0  0.39012  0.85304  0.87142  1.0000
  Fe  Fe41      1.0  0.36037  0.79435  0.94174  1.0000
  S   S82       1.0  0.37033  0.75926  0.96067  1.0000
  Fe  Fe42      1.0  0.35368  0.78081  0.85447  1.0000
  S   S83       1.0  0.36280  0.74438  0.86838  1.0000
  S   S84       1.0  0.35077  0.79598  0.79178  1.0000
  Fe  Fe43      1.0  0.34085  0.74762  0.92339  1.0000
  S   S85       1.0  0.30931  0.72882  0.94811  1.0000
  Fe  Fe44      1.0  0.39162  0.75871  0.90492  1.0000
  S   S86       1.0  0.42792  0.74379  0.89813  1.0000
  S   S87       1.0  0.33034  0.78324  0.90654  1.0000
  S   S88       1.0  0.38320  0.79466  0.88869  1.0000
  Fe  Fe45      1.0  0.23536  0.85078  0.54320  1.0000
  S   S89       1.0  0.26584  0.82927  0.55714  1.0000
  H   H494      1.0  0.36754  0.84204  0.89991  1.0000
  Fe  Fe46      1.0  0.26120  0.89622  0.56391  1.0000
  S   S90       1.0  0.29284  0.87623  0.57911  1.0000
  S   S91       1.0  0.26845  0.93509  0.56222  1.0000
  Fe  Fe47      1.0  0.28546  0.85602  0.52456  1.0000
  Fe  Fe48      1.0  0.27066  0.85132  0.61105  1.0000
  S   S92       1.0  0.27518  0.83683  0.67420  1.0000
  H   H495      1.0  0.21588  0.68311  0.95207  1.0000
  S   S93       1.0  0.23892  0.87217  0.59878  1.0000
  C   C290      1.0  0.26020  0.96446  0.56755  1.0000
  C   C291      1.0  0.27647  0.98154  0.56176  1.0000
  C   C292      1.0  0.23808  0.97129  0.57711  1.0000
  H   H496      1.0  0.29366  0.97670  0.55477  1.0000
  H   H497      1.0  0.22526  0.95859  0.58173  1.0000
  C   C293      1.0  0.32924  0.80626  0.75898  1.0000
  C   C294      1.0  0.30623  0.80677  0.76903  1.0000
  C   C295      1.0  0.29010  0.81615  0.74279  1.0000
  C   C296      1.0  0.29653  0.82495  0.70582  1.0000
  C   C297      1.0  0.31954  0.82431  0.69575  1.0000
  C   C298      1.0  0.33570  0.81514  0.72214  1.0000
  H   H498      1.0  0.30082  0.80004  0.79706  1.0000
  H   H499      1.0  0.27241  0.81647  0.75106  1.0000
  H   H500      1.0  0.32489  0.83099  0.66762  1.0000
  H   H501      1.0  0.35337  0.81498  0.71383  1.0000
  C   C299      1.0  0.47144  0.72927  0.88332  1.0000
  C   C300      1.0  0.45816  0.74763  0.89632  1.0000
  C   C301      1.0  0.46932  0.76792  0.90599  1.0000
  H   H502      1.0  0.46329  0.71354  0.87557  1.0000
  H   H503      1.0  0.45953  0.78230  0.91628  1.0000
  H   H504      1.0  0.39653  0.80267  0.73652  1.0000
  H   H505      1.0  0.48693  0.76434  0.78052  1.0000
  H   H506      1.0  0.22992  0.66651  0.84675  1.0000
  H   H507      1.0  0.33785  0.89607  0.86661  1.0000
  H   H508      1.0  0.36412  0.87373  0.82851  1.0000
  C   C302      1.0  0.17560  0.72129  0.55273  1.0000
  H   H509      1.0  0.03862  0.66276  0.58564  1.0000
  H   H510      1.0  0.29381  0.82360  0.89446  1.0000
  N   N21       1.0  0.33227  0.86097  0.85104  1.0000
  C   C303      1.0  0.18433  0.74331  0.57174  1.0000
  C   C304      1.0  0.16664  0.80984  0.48903  1.0000
  H   H511      1.0  0.25427  0.68897  0.90185  1.0000
  H   H512      1.0  0.09276  0.68199  0.53437  1.0000
  H   H513      1.0  0.16753  0.70486  0.62595  1.0000
  C   C305      1.0  0.12885  0.74794  0.55798  1.0000
  H   H514      1.0  0.44940  0.74631  0.77528  1.0000
  H   H515      1.0  0.47218  0.77318  0.73728  1.0000
  H   H516      1.0  0.33386  0.89564  0.93333  1.0000
  H   H517      1.0  0.30248  0.86518  0.81421  1.0000
  H   H518      1.0  0.40148  0.78905  0.69021  1.0000
  H   H519      1.0  0.32896  0.82452  0.85115  1.0000
  H   H520      1.0  0.30907  0.88756  0.86879  1.0000
  C   C306      1.0  0.29779  0.83794  0.87455  1.0000
  H   H521      1.0  0.32387  0.84755  0.79354  1.0000
  H   H522      1.0  0.33124  0.83609  0.89850  1.0000
  H   H523      1.0  0.13566  0.72211  0.51613  1.0000
  H   H524      1.0  0.02624  0.70955  0.56424  1.0000
  H   H525      1.0  0.37263  0.87233  0.89820  1.0000
  H   H526      1.0  0.15666  0.82517  0.49235  1.0000
  H   H527      1.0  0.29041  0.85350  0.88771  1.0000
  H   H528      1.0  0.33949  0.86617  0.93166  1.0000
  C   C307      1.0  0.22744  0.66720  0.87917  1.0000
  H   H529      1.0  0.28936  0.83430  0.84610  1.0000
  C   C308      1.0  0.32789  0.87941  0.92058  1.0000
  H   H530      1.0  0.26455  0.66417  0.87610  1.0000
  H   H531      1.0  0.13280  0.75296  0.58848  1.0000
  H   H532      1.0  0.36110  0.84383  0.82477  1.0000
  C   C309      1.0  0.42985  0.80054  0.79586  1.0000
  H   H533      1.0  0.34596  0.88008  0.77269  1.0000
  H   H534      1.0  0.44042  0.81167  0.77696  1.0000
  H   H535      1.0  0.32835  0.89956  0.80118  1.0000
  C   C310      1.0  0.37240  0.85638  0.88091  1.0000
  N   N22       1.0  0.42882  0.77679  0.77942  1.0000
  H   H536      1.0  0.32740  0.68305  0.96608  1.0000
  C   C311      1.0  0.42521  0.77829  0.73557  1.0000
  C   C312      1.0  0.45037  0.76382  0.78730  1.0000
  C   C313      1.0  0.40955  0.76468  0.79916  1.0000
  H   H537      1.0  0.16720  0.67764  0.57440  1.0000
  C   C314      1.0  0.40149  0.78638  0.72256  1.0000
  H   H538      1.0  0.19958  0.74898  0.55542  1.0000
  C   C315      1.0  0.40565  0.73990  0.78627  1.0000
  C   C316      1.0  0.99900  0.67524  0.53518  1.0000
  H   H539      1.0  0.15431  0.73158  0.62263  1.0000
  H   H540      1.0  0.42872  0.76180  0.72081  1.0000
  H   H541      1.0  0.43755  0.79013  0.72203  1.0000
  H   H542      1.0  0.45293  0.76142  0.81942  1.0000
  H   H543      1.0  0.47460  0.79199  0.77914  1.0000
  H   H544      1.0  0.41210  0.76410  0.83133  1.0000
  H   H545      1.0  0.39337  0.77422  0.79656  1.0000
  H   H546      1.0  0.11556  0.71238  0.62069  1.0000
  H   H547      1.0  0.31722  0.88466  0.75978  1.0000
  H   H548      1.0  0.17195  0.75740  0.57045  1.0000
  H   H549      1.0  0.23344  0.99221  0.70297  1.0000
  C   C317      1.0  0.04060  0.70468  0.54490  1.0000
  H   H550      1.0  0.31553  0.89847  0.49665  1.0000
  H   H551      1.0  0.32711  0.96215  0.52444  1.0000
  C   C318      1.0  0.27427  0.70374  0.98054  1.0000
  H   H552      1.0  0.18684  0.67502  0.94187  1.0000
  H   H553      1.0  0.41455  0.72805  0.80650  1.0000
  H   H554      1.0  0.41121  0.73623  0.75584  1.0000
  H   H555      1.0  0.38725  0.73622  0.78712  1.0000
  C   C319      1.0  0.09421  0.66615  0.55001  1.0000
  C   C320      1.0  0.32668  0.88179  0.87520  1.0000
  C   C321      1.0  0.32114  0.86320  0.81120  1.0000
  H   H556      1.0  0.08586  0.68072  0.60659  1.0000
  H   H557      1.0  0.11044  0.75137  0.55472  1.0000
  C   C322      1.0  0.43899  0.80284  0.83822  1.0000
  C   C323      1.0  0.32887  0.88316  0.78530  1.0000
  H   H558      1.0  0.31077  0.87684  0.93329  1.0000
  C   C324      1.0  0.29722  0.70356  0.96882  1.0000
  H   H559      1.0  0.35414  0.94807  0.51643  1.0000
  H   H560      1.0  0.11780  0.71312  0.55381  1.0000
  H   H561      1.0  0.17112  0.68724  0.50083  1.0000
  C   C325      1.0  0.32368  0.83939  0.86930  1.0000
  H   H562      1.0  0.13743  0.67882  0.56870  1.0000
  S   S94       1.0  0.25502  0.87657  0.50769  1.0000
  H   H563      1.0  0.41272  0.80855  0.79587  1.0000
  C   C326      1.0  0.15550  0.68058  0.51454  1.0000
  S   S95       1.0  0.20171  0.83594  0.51863  1.0000
  H   H564      1.0  0.13022  0.68589  0.63105  1.0000
  H   H565      1.0  0.45742  0.79932  0.83972  1.0000
  H   H566      1.0  0.34482  0.89160  0.49966  1.0000
  C   C327      1.0  0.20314  0.66953  0.95490  1.0000
  H   H567      1.0  0.38839  0.77351  0.72891  1.0000
  C   C328      1.0  0.13121  0.70462  0.63267  1.0000
  C   C329      1.0  0.47206  0.77420  0.76987  1.0000
  H   H568      1.0  0.13806  0.75909  0.53716  1.0000
  C   C330      1.0  0.35742  0.85870  0.84416  1.0000
  H   H569      1.0  0.21967  0.78944  0.50453  1.0000
  H   H570      1.0  0.13168  0.70892  0.66451  1.0000
  N   N23       1.0  0.15366  0.71175  0.56837  1.0000
  C   C331      1.0  0.15337  0.68677  0.55859  1.0000
  C   C332      1.0  0.15274  0.71380  0.61263  1.0000
  C   C333      1.0  0.25132  0.67065  0.89661  1.0000
  C   C334      1.0  0.13361  0.72279  0.54863  1.0000
  H   H571      1.0  0.43023  0.79171  0.85939  1.0000
  H   H572      1.0  0.17440  0.72454  0.52054  1.0000
  H   H573      1.0  0.18982  0.74054  0.60256  1.0000
  H   H574      1.0  0.04999  0.72047  0.53827  1.0000
  H   H575      1.0  0.43641  0.82054  0.84851  1.0000
  H   H576      1.0  0.26429  0.71897  0.97643  1.0000
  C   C335      1.0  0.18958  0.80997  0.50053  1.0000
  H   H577      1.0  0.18967  0.70876  0.55615  1.0000
  C   C336      1.0  0.34278  0.96191  0.50654  1.0000
  H   H578      1.0  0.05248  0.69339  0.56060  1.0000
  H   H579      1.0  0.21723  0.68294  0.88365  1.0000
  C   C337      1.0  0.33271  0.90596  0.49637  1.0000
  N   N24       1.0  0.01943  0.67258  0.50875  1.0000
  H   H580      1.0  0.14049  0.68627  0.49765  1.0000
  H   H581      1.0  0.33443  0.91695  0.52252  1.0000
  S   S96       1.0  0.35417  0.82543  0.97997  1.0000
  H   H582      1.0  0.04831  0.69163  0.48787  1.0000
  C   C338      1.0  0.03275  0.69419  0.50590  1.0000
  C   C339      1.0  0.30976  0.68363  0.97463  1.0000
  C   C340      1.0  0.49337  0.76950  0.90289  1.0000
  H   H583      1.0  0.02282  0.70743  0.49024  1.0000
  H   H584      1.0  0.00400  0.67913  0.56590  1.0000
  H   H585      1.0  0.35164  0.97808  0.51254  1.0000
  C   C341      1.0  0.09029  0.66537  0.59085  1.0000
  C   C342      1.0  0.20210  0.78986  0.49580  1.0000
  H   H586      1.0  0.30279  0.93754  0.50071  1.0000
  H   H587      1.0  0.18235  0.66202  0.88115  1.0000
  H   H588      1.0  0.25390  0.66221  0.92524  1.0000
  C   C343      1.0  0.23242  0.99461  0.58056  1.0000
  H   H589      1.0  0.15612  0.66183  0.51161  1.0000
  Fe  Fe49      1.0  0.56803  0.09832  0.26079  1.0000
  S   S97       1.0  0.56908  0.08826  0.19711  1.0000
  S   S98       1.0  0.53540  0.10641  0.29298  1.0000
  Fe  Fe50      1.0  0.61924  0.10512  0.26585  1.0000
  S   S99       1.0  0.62392  0.09674  0.20164  1.0000
  S   S100      1.0  0.65146  0.11231  0.30010  1.0000
  Fe  Fe51      1.0  0.59274  0.11767  0.18994  1.0000
  S   S101      1.0  0.58399  0.14603  0.14695  1.0000
  Fe  Fe52      1.0  0.60001  0.06814  0.21431  1.0000
  S   S102      1.0  0.61117  0.03360  0.19247  1.0000
  S   S103      1.0  0.59023  0.12867  0.25319  1.0000
  S   S104      1.0  0.59689  0.07548  0.27906  1.0000
  H   H590      1.0  0.49931  0.09791  0.11068  1.0000
  Fe  Fe53      1.0  0.85608  0.24595  0.40978  1.0000
  S   S105      1.0  0.83767  0.27880  0.40008  1.0000
  S   S106      1.0  0.83950  0.21117  0.42266  1.0000
  Fe  Fe54      1.0  0.90251  0.26745  0.38517  1.0000
  S   S107      1.0  0.88630  0.30172  0.37322  1.0000
  S   S108      1.0  0.93946  0.25589  0.37154  1.0000
  Fe  Fe55      1.0  0.86737  0.29520  0.42999  1.0000
  Fe  Fe56      1.0  0.85753  0.28321  0.34385  1.0000
  S   S109      1.0  0.83680  0.29093  0.28730  1.0000
  S   S110      1.0  0.88482  0.26207  0.44358  1.0000
  S   S111      1.0  0.87479  0.24924  0.35193  1.0000
  C   C344      1.0  0.70355  0.31110  0.99999  1.0000
  C   C345      1.0  0.63685  0.18422  0.13206  1.0000
  C   C346      1.0  0.51768  0.14814  0.21450  1.0000
  H   H591      1.0  0.72797  0.23269  0.42341  1.0000
  H   H592      1.0  0.66122  0.06894  0.38539  1.0000
  H   H593      1.0  0.63943  0.16603  0.12520  1.0000
  H   H594      1.0  0.80429  0.28975  0.22424  1.0000
  C   C347      1.0  0.96856  0.26171  0.38357  1.0000
  H   H595      1.0  0.82289  0.30409  0.06083  1.0000
  C   C348      1.0  0.97495  0.27822  0.41100  1.0000
  H   H596      1.0  0.98134  0.23592  0.34420  1.0000
  H   H597      1.0  0.96204  0.28832  0.42549  1.0000
  H   H598      1.0  0.69371  0.06119  0.35817  1.0000
  C   C349      1.0  0.82973  0.30526  0.09109  1.0000
  H   H599      1.0  0.59781  0.00893  0.30320  1.0000
  C   C350      1.0  0.68570  0.05985  0.46303  1.0000
  C   C351      1.0  0.82893  0.31162  0.25098  1.0000
  C   C352      1.0  0.61637  0.00773  0.30754  1.0000
  C   C353      1.0  0.65152  0.05616  0.40180  1.0000
  C   C354      1.0  0.57106  0.01287  0.21218  1.0000
  H   H600      1.0  0.61904  0.18597  0.14230  1.0000
  H   H601      1.0  0.91859  0.21087  0.37155  1.0000
  C   C355      1.0  0.69034  0.21535  0.39151  1.0000
  H   H602      1.0  0.80805  0.23075  0.48213  1.0000
  C   C356      1.0  0.65186  0.11515  0.35182  1.0000
  C   C357      1.0  0.63198  0.11761  0.37385  1.0000
  C   C358      1.0  0.63313  0.12052  0.41494  1.0000
  C   C359      1.0  0.65407  0.12051  0.43435  1.0000
  C   C360      1.0  0.67387  0.11736  0.41241  1.0000
  C   C361      1.0  0.67280  0.11510  0.37125  1.0000
  H   H603      1.0  0.61576  0.11770  0.35915  1.0000
  H   H604      1.0  0.61769  0.12287  0.43171  1.0000
  H   H605      1.0  0.68997  0.11657  0.42717  1.0000
  H   H606      1.0  0.68821  0.11304  0.35433  1.0000
  C   C362      1.0  0.59362  0.14900  0.09792  1.0000
  C   C363      1.0  0.58522  0.16707  0.07521  1.0000
  C   C364      1.0  0.59353  0.17104  0.03696  1.0000
  C   C365      1.0  0.61043  0.15699  0.02124  1.0000
  C   C366      1.0  0.61848  0.13864  0.04367  1.0000
  C   C367      1.0  0.61012  0.13463  0.08184  1.0000
  H   H607      1.0  0.57244  0.17827  0.08747  1.0000
  H   H608      1.0  0.58719  0.18519  0.01998  1.0000
  H   H609      1.0  0.63151  0.12764  0.03164  1.0000
  H   H610      1.0  0.61668  0.12065  0.09903  1.0000
  H   H611      1.0  0.72321  0.06391  0.36553  1.0000
  C   C368      1.0  0.59257  0.01055  0.19538  1.0000
  H   H612      1.0  0.84224  0.29154  0.09627  1.0000
  H   H613      1.0  0.56529  0.02927  0.22254  1.0000
  C   C369      1.0  0.51268  0.10300  0.13173  1.0000
  C   C370      1.0  0.51063  0.07086  0.26357  1.0000
  C   C371      1.0  0.51036  0.09294  0.27849  1.0000
  H   H614      1.0  0.89006  0.21350  0.42284  1.0000
  H   H615      1.0  0.52657  0.06196  0.25976  1.0000
  N   N25       1.0  0.68738  0.03949  0.43631  1.0000
  C   C372      1.0  0.90651  0.19679  0.37546  1.0000
  H   H616      1.0  0.67356  0.21572  0.37684  1.0000
  C   C373      1.0  0.69667  0.99652  0.44022  1.0000
  C   C374      1.0  0.87850  0.31892  0.07975  1.0000
  C   C375      1.0  0.69044  0.17270  0.03784  1.0000
  C   C376      1.0  0.79135  0.31335  0.37222  1.0000
  H   H617      1.0  0.68130  0.18036  0.40285  1.0000
  C   C377      1.0  0.79328  0.16702  0.46963  1.0000
  H   H618      1.0  0.65379  0.17113  0.03946  1.0000
  H   H619      1.0  0.66305  0.22655  0.14790  1.0000
  H   H620      1.0  0.66552  0.26726  0.00450  1.0000
  C   C378      1.0  0.89708  0.19626  0.41769  1.0000
  C   C379      1.0  0.66581  0.03522  0.41372  1.0000
  C   C380      1.0  0.70728  0.04235  0.40885  1.0000
  H   H621      1.0  0.79138  0.31787  0.17447  1.0000
  H   H622      1.0  0.68206  0.22165  0.03807  1.0000
  C   C381      1.0  0.81658  0.19994  0.45146  1.0000
  H   H623      1.0  0.90023  0.30077  0.12073  1.0000
  H   H624      1.0  0.72331  0.04334  0.42606  1.0000
  H   H625      1.0  0.69706  0.18836  0.02446  1.0000
  H   H626      1.0  0.68016  0.24079  0.11127  1.0000
  H   H627      1.0  0.66719  0.16274  0.08259  1.0000
  H   H628      1.0  0.78382  0.29918  0.38915  1.0000
  H   H629      1.0  0.69311  0.22700  0.15221  1.0000
  H   H630      1.0  0.65738  0.23374  0.05836  1.0000
  H   H631      1.0  0.89389  0.32500  0.06415  1.0000
  H   H632      1.0  0.51581  0.08803  0.15101  1.0000
  C   C382      1.0  0.81197  0.30632  0.22339  1.0000
  C   C383      1.0  0.52290  0.12818  0.18648  1.0000
  H   H633      1.0  0.74959  0.18611  0.43994  1.0000
  H   H634      1.0  0.88225  0.18468  0.41757  1.0000
  H   H635      1.0  0.54053  0.99564  0.22930  1.0000
  H   H636      1.0  0.95003  0.19638  0.39825  1.0000
  H   H637      1.0  0.69184  0.28934  0.04654  1.0000
  H   H638      1.0  0.69855  0.20393  0.09319  1.0000
  H   H639      1.0  0.74175  0.22288  0.46802  1.0000
  H   H640      1.0  0.51692  0.16156  0.08436  1.0000
  H   H641      1.0  0.65922  0.19888  0.99091  1.0000
  H   H642      1.0  0.68802  0.22567  0.41840  1.0000
  C   C384      1.0  0.92209  0.16601  0.44208  1.0000
  H   H643      1.0  0.51268  0.16374  0.19867  1.0000
  H   H644      1.0  0.82042  0.16647  0.42677  1.0000
  H   H645      1.0  0.89194  0.32814  0.13825  1.0000
  H   H646      1.0  0.91409  0.18048  0.36593  1.0000
  H   H647      1.0  0.68268  0.18925  0.12888  1.0000
  H   H648      1.0  0.68118  0.07537  0.44652  1.0000
  C   C385      1.0  0.69043  0.29333  0.01560  1.0000
  H   H649      1.0  0.70922  0.02745  0.38906  1.0000
  C   C386      1.0  0.53400  0.10612  0.10613  1.0000
  H   H650      1.0  0.70478  0.07921  0.39729  1.0000
  H   H651      1.0  0.52606  0.11305  0.20525  1.0000
  H   H652      1.0  0.81529  0.30211  0.11134  1.0000
  H   H653      1.0  0.70294  0.22352  0.37193  1.0000
  H   H654      1.0  0.51836  0.17485  0.13109  1.0000
  H   H655      1.0  0.62507  0.01143  0.27933  1.0000
  C   C387      1.0  0.68156  0.20346  0.10745  1.0000
  H   H656      1.0  0.87223  0.30480  0.13915  1.0000
  H   H657      1.0  0.87404  0.30285  0.06453  1.0000
  N   N26       1.0  0.71304  0.18651  0.43355  1.0000
  C   C388      1.0  0.71564  0.16125  0.43881  1.0000
  C   C389      1.0  0.81098  0.17686  0.44739  1.0000
  C   C390      1.0  0.73621  0.19595  0.42443  1.0000
  H   H658      1.0  0.63755  0.05071  0.38226  1.0000
  C   C391      1.0  0.72667  0.14818  0.40416  1.0000
  H   H659      1.0  0.70247  0.06353  0.47646  1.0000
  C   C392      1.0  0.74069  0.22083  0.43556  1.0000
  H   H660      1.0  0.54913  0.11088  0.12326  1.0000
  N   N27       1.0  0.50504  0.12302  0.15618  1.0000
  C   C393      1.0  0.98588  0.24881  0.36534  1.0000
  H   H661      1.0  0.64767  0.18915  0.15715  1.0000
  H   H662      1.0  0.53603  0.15080  0.11993  1.0000
  C   C394      1.0  0.51892  0.15807  0.11629  1.0000
  H   H663      1.0  0.74028  0.19409  0.39256  1.0000
  H   H664      1.0  0.77766  0.32043  0.35357  1.0000
  H   H665      1.0  0.89228  0.20027  0.35499  1.0000
  H   H666      1.0  0.72891  0.13018  0.41283  1.0000
  H   H667      1.0  0.71576  0.14826  0.37768  1.0000
  H   H668      1.0  0.74376  0.15451  0.39668  1.0000
  H   H669      1.0  0.80478  0.30574  0.35358  1.0000
  H   H670      1.0  0.62092  0.02150  0.32830  1.0000
  H   H671      1.0  0.53954  0.13169  0.17308  1.0000
  C   C395      1.0  0.69255  0.01920  0.46186  1.0000
  H   H672      1.0  0.65412  0.02428  0.43093  1.0000
  H   H673      1.0  0.93235  0.16506  0.41482  1.0000
  C   C396      1.0  0.70675  0.06299  0.38130  1.0000
  H   H674      1.0  0.53103  0.11840  0.08202  1.0000
  H   H675      1.0  0.75748  0.22579  0.42365  1.0000
  N   N28       1.0  0.66350  0.19915  0.07729  1.0000
  C   C397      1.0  0.64022  0.19949  0.09569  1.0000
  C   C398      1.0  0.66436  0.21754  0.04648  1.0000
  C   C399      1.0  0.67902  0.22579  0.13076  1.0000
  C   C400      1.0  0.66765  0.17608  0.05957  1.0000
  H   H676      1.0  0.66708  0.19505  0.46126  1.0000
  C   C401      1.0  0.65125  0.21275  0.00827  1.0000
  H   H677      1.0  0.66950  0.02552  0.38627  1.0000
  H   H678      1.0  0.90770  0.15429  0.43672  1.0000
  H   H679      1.0  0.63505  0.21697  0.10434  1.0000
  H   H680      1.0  0.62734  0.19419  0.07390  1.0000
  H   H681      1.0  0.69901  0.15324  0.44410  1.0000
  C   C402      1.0  0.88590  0.31304  0.12207  1.0000
  C   C403      1.0  0.69703  0.19055  0.39983  1.0000
  H   H682      1.0  0.64348  0.06455  0.42758  1.0000
  H   H683      1.0  0.70345  0.16570  0.05806  1.0000
  H   H684      1.0  0.53320  0.15202  0.23156  1.0000
  H   H685      1.0  0.70451  0.18415  0.37183  1.0000
  H   H686      1.0  0.63331  0.20861  0.01414  1.0000
  N   N29       1.0  0.91334  0.18968  0.44990  1.0000
  S   S112      1.0  0.85774  0.32367  0.47216  1.0000
  H   H687      1.0  0.71336  0.99615  0.42517  1.0000
  C   C404      1.0  0.49912  0.14307  0.13062  1.0000
  H   H688      1.0  0.50453  0.14373  0.23642  1.0000
  H   H689      1.0  0.53823  0.08970  0.09177  1.0000
  S   S113      1.0  0.72178  0.32691  0.03230  1.0000
  C   C405      1.0  0.67543  0.28067  0.99172  1.0000
  H   H690      1.0  0.70391  0.21464  0.47252  1.0000
  H   H691      1.0  0.96630  0.19316  0.44331  1.0000
  C   C406      1.0  0.93200  0.20691  0.45388  1.0000
  H   H692      1.0  0.96130  0.22009  0.42324  1.0000
  C   C407      1.0  0.95325  0.20338  0.42783  1.0000
  H   H693      1.0  0.70786  0.02245  0.47995  1.0000
  C   C408      1.0  0.80459  0.32227  0.19499  1.0000
  H   H694      1.0  0.72593  0.15745  0.46539  1.0000
  H   H695      1.0  0.92539  0.22433  0.44808  1.0000
  C   C409      1.0  0.70400  0.19590  0.47195  1.0000
  H   H696      1.0  0.68805  0.16068  0.01299  1.0000
  C   C410      1.0  0.80405  0.21303  0.47834  1.0000
  H   H697      1.0  0.78930  0.14930  0.46585  1.0000
  H   H698      1.0  0.84733  0.32135  0.02228  1.0000
  H   H699      1.0  0.81064  0.32211  0.42389  1.0000
  C   C411      1.0  0.93664  0.15549  0.47508  1.0000
  H   H700      1.0  0.94615  0.14066  0.46321  1.0000
  H   H701      1.0  0.87389  0.21570  0.48184  1.0000
  C   C412      1.0  0.67966  0.18894  0.48300  1.0000
  H   H702      1.0  0.67856  0.01599  0.48308  1.0000
  H   H703      1.0  0.65143  0.22808  0.98936  1.0000
  C   C413      1.0  0.65659  0.26694  0.80131  1.0000
  Fe  Fe57      1.0  0.68628  0.12216  0.52350  1.0000
  C   C414      1.0  0.69095  0.21214  0.81357  1.0000
  Fe  Fe58      1.0  0.70178  0.12643  0.60982  1.0000
  S   S114      1.0  0.73713  0.11491  0.59259  1.0000
  S   S115      1.0  0.69432  0.13146  0.67622  1.0000
  Fe  Fe59      1.0  0.73431  0.13855  0.54026  1.0000
  C   C415      1.0  0.74706  0.00681  0.54470  1.0000
  Fe  Fe60      1.0  0.72013  0.08812  0.55499  1.0000
  S   S116      1.0  0.72924  0.04989  0.55169  1.0000
  S   S117      1.0  0.69970  0.15109  0.55959  1.0000
  S   S118      1.0  0.68542  0.09840  0.57511  1.0000
  Fe  Fe61      1.0  0.62932  0.23996  0.91301  1.0000
  S   S119      1.0  0.64366  0.20534  0.89927  1.0000
  S   S120      1.0  0.65436  0.27020  0.91942  1.0000
  Fe  Fe62      1.0  0.57947  0.22297  0.89664  1.0000
  S   S121      1.0  0.59171  0.18765  0.88189  1.0000
  S   S122      1.0  0.54239  0.23521  0.88631  1.0000
  Fe  Fe63      1.0  0.61429  0.19203  0.93479  1.0000
  Fe  Fe64      1.0  0.62019  0.20355  0.84743  1.0000
  S   S123      1.0  0.62953  0.19559  0.78257  1.0000
  S   S124      1.0  0.60096  0.22671  0.95170  1.0000
  S   S125      1.0  0.60688  0.23891  0.85911  1.0000
  C   C416      1.0  0.51346  0.22789  0.89713  1.0000
  C   C417      1.0  0.68616  0.30341  0.93600  1.0000
  C   C418      1.0  0.69926  0.21138  0.85664  1.0000
  H   H704      1.0  0.52061  0.20047  0.93685  1.0000
  H   H705      1.0  0.68926  0.08226  0.72039  1.0000
  C   C419      1.0  0.67608  0.14950  0.70508  1.0000
  C   C420      1.0  0.67621  0.14745  0.74645  1.0000
  C   C421      1.0  0.66207  0.16114  0.77061  1.0000
  C   C422      1.0  0.64748  0.17720  0.75378  1.0000
  C   C423      1.0  0.64747  0.17937  0.71244  1.0000
  C   C424      1.0  0.66160  0.16567  0.68829  1.0000
  H   H706      1.0  0.68726  0.13505  0.75998  1.0000
  H   H707      1.0  0.66234  0.15912  0.80223  1.0000
  H   H708      1.0  0.63633  0.19169  0.69891  1.0000
  H   H709      1.0  0.66117  0.16756  0.65665  1.0000
  H   H710      1.0  0.71166  0.22610  0.72420  1.0000
  C   C425      1.0  0.72731  0.01945  0.55186  1.0000
  H   H711      1.0  0.67786  0.17044  0.48693  1.0000
  S   S126      1.0  0.75773  0.16883  0.52495  1.0000
  H   H712      1.0  0.76288  0.01550  0.53996  1.0000
  C   C426      1.0  0.69714  0.06911  0.73904  1.0000
  H   H713      1.0  0.69150  0.01685  0.56361  1.0000
  H   H714      1.0  0.73120  0.03172  0.63117  1.0000
  C   C427      1.0  0.71026  0.24728  0.79704  1.0000
  C   C428      1.0  0.69440  0.21901  0.72614  1.0000
  C   C429      1.0  0.70484  0.04714  0.71759  1.0000
  H   H715      1.0  0.71534  0.19091  0.49670  1.0000
  S   S127      1.0  0.72027  0.11082  0.50120  1.0000
  H   H716      1.0  0.70345  0.20194  0.79650  1.0000
  H   H717      1.0  0.97452  0.31294  0.73575  1.0000
  N   N30       1.0  0.70976  0.04889  0.67405  1.0000
  H   H718      1.0  0.65564  0.06123  0.63653  1.0000
  H   H719      1.0  0.65284  0.04904  0.48846  1.0000
  H   H720      1.0  0.72384  0.07137  0.63043  1.0000
  C   C430      1.0  0.89998  0.18895  0.48790  1.0000
  H   H721      1.0  0.69250  0.04717  0.61808  1.0000
  H   H722      1.0  0.68462  0.30751  0.90511  1.0000
  H   H723      1.0  0.70944  0.00243  0.69661  1.0000
  H   H724      1.0  0.77709  0.21351  0.52157  1.0000
  C   C431      1.0  0.71144  0.27089  0.77794  1.0000
  H   H725      1.0  0.71046  0.08573  0.66915  1.0000
  H   H726      1.0  0.67625  0.04901  0.52255  1.0000
  H   H727      1.0  0.74151  0.03041  0.67996  1.0000
  C   C432      1.0  0.70121  0.31603  0.95985  1.0000
  H   H728      1.0  0.67486  0.08162  0.65494  1.0000
  C   C433      1.0  0.67903  0.23246  0.75474  1.0000
  H   H729      1.0  0.68045  0.02978  0.65523  1.0000
  C   C434      1.0  0.72569  0.02985  0.66234  1.0000
  H   H730      1.0  0.70404  0.00137  0.64400  1.0000
  H   H731      1.0  0.91783  0.31393  0.57143  1.0000
  H   H732      1.0  0.70189  0.27232  0.75019  1.0000
  H   H733      1.0  0.71734  0.21608  0.85883  1.0000
  H   H734      1.0  0.70566  0.28422  0.79887  1.0000
  H   H735      1.0  0.95832  0.32779  0.66771  1.0000
  H   H736      1.0  0.65759  0.23606  0.83291  1.0000
  H   H737      1.0  0.89856  0.30480  0.50853  1.0000
  N   N31       1.0  0.68777  0.23546  0.79611  1.0000
  H   H738      1.0  0.50898  0.19276  0.81700  1.0000
  C   C435      1.0  0.67050  0.24797  0.82117  1.0000
  H   H739      1.0  0.64656  0.27600  0.82427  1.0000
  C   C436      1.0  0.71664  0.00553  0.66698  1.0000
  H   H740      1.0  0.67481  0.20255  0.81234  1.0000
  H   H741      1.0  0.67511  0.19678  0.51173  1.0000
  H   H742      1.0  0.90048  0.22562  0.50196  1.0000
  H   H743      1.0  0.68906  0.22224  0.87665  1.0000
  H   H744      1.0  0.72926  0.27433  0.76944  1.0000
  H   H745      1.0  0.71143  0.07667  0.75551  1.0000
  H   H746      1.0  0.64419  0.25977  0.78025  1.0000
  H   H747      1.0  0.66241  0.22387  0.75536  1.0000
  C   C437      1.0  0.50744  0.21030  0.92271  1.0000
  H   H748      1.0  0.68697  0.21985  0.69617  1.0000
  H   H749      1.0  0.66177  0.06128  0.68777  1.0000
  H   H750      1.0  0.67534  0.24885  0.74028  1.0000
  H   H751      1.0  0.50009  0.25408  0.85953  1.0000
  C   C438      1.0  0.88847  0.21131  0.50083  1.0000
  C   C439      1.0  0.72115  0.07073  0.66286  1.0000
  H   H752      1.0  0.67860  0.25559  0.84754  1.0000
  H   H753      1.0  0.72406  0.23647  0.78459  1.0000
  H   H754      1.0  0.71569  0.24999  0.82802  1.0000
  H   H755      1.0  0.69177  0.03401  0.72310  1.0000
  C   C440      1.0  0.67313  0.28555  0.95154  1.0000
  H   H756      1.0  0.72026  0.04121  0.73344  1.0000
  C   C441      1.0  0.74430  0.07500  0.68222  1.0000
  H   H757      1.0  0.75779  0.06467  0.66793  1.0000
  H   H758      1.0  0.74892  0.09305  0.67795  1.0000
  H   H759      1.0  0.69518  0.20074  0.73367  1.0000
  H   H760      1.0  0.74414  0.07169  0.71426  1.0000
  C   C442      1.0  0.66939  0.06384  0.65825  1.0000
  H   H761      1.0  0.66720  0.27963  0.78638  1.0000
  H   H762      1.0  0.91101  0.18406  0.51298  1.0000
  H   H763      1.0  0.68434  0.06472  0.76172  1.0000
  C   C443      1.0  0.68844  0.04648  0.65014  1.0000
  H   H764      1.0  0.69785  0.19373  0.86764  1.0000
  C   C444      1.0  0.89162  0.31772  0.52779  1.0000
  S   S128      1.0  0.62337  0.16272  0.97533  1.0000
  H   H765      1.0  0.66353  0.07514  0.50729  1.0000
  H   H766      1.0  0.98600  0.31724  0.67114  1.0000
  H   H767      1.0  0.92583  0.14911  0.49938  1.0000
  S   S129      1.0  0.65479  0.12489  0.48583  1.0000
  C   C445      1.0  0.78091  0.18005  0.49680  1.0000
  C   C446      1.0  0.66850  0.05791  0.49712  1.0000
  H   H768      1.0  0.88145  0.20921  0.53096  1.0000
  C   C447      1.0  0.49583  0.24040  0.87927  1.0000
  C   C448      1.0  0.90253  0.32296  0.56346  1.0000
  C   C449      1.0  0.78647  0.20314  0.50081  1.0000
  C   C450      1.0  0.70698  0.00754  0.55795  1.0000
  H   H769      1.0  0.93837  0.20705  0.48470  1.0000
  H   H770      1.0  0.94910  0.16755  0.48715  1.0000
  H   H771      1.0  0.88651  0.17584  0.48629  1.0000
  Fe  Fe65      1.0  0.78884  0.62623  0.01572  1.0000
  H   H772      1.0  0.79962  0.62792  0.25280  1.0000
  Fe  Fe66      1.0  0.77716  0.62764  0.10502  1.0000
  S   S130      1.0  0.74381  0.61034  0.09268  1.0000
  S   S131      1.0  0.78870  0.63120  0.17031  1.0000
  Fe  Fe67      1.0  0.76254  0.58637  0.05156  1.0000
  S   S132      1.0  0.76772  0.54711  0.05221  1.0000
  Fe  Fe68      1.0  0.74012  0.63443  0.04065  1.0000
  H   H773      1.0  0.80911  0.36519  0.29302  1.0000
  S   S133      1.0  0.79575  0.60275  0.06620  1.0000
  C   C451      1.0  0.69172  0.40406  0.05054  1.0000
  Fe  Fe69      1.0  0.74844  0.35557  0.03932  1.0000
  S   S134      1.0  0.78564  0.34714  0.04850  1.0000
  Fe  Fe70      1.0  0.75600  0.40699  0.05704  1.0000
  S   S135      1.0  0.79277  0.40103  0.06819  1.0000
  S   S136      1.0  0.73767  0.44193  0.05918  1.0000
  Fe  Fe71      1.0  0.79235  0.37905  0.01410  1.0000
  Fe  Fe72      1.0  0.78382  0.36953  0.10234  1.0000
  H   H774      1.0  0.86533  0.35058  0.33385  1.0000
  C   C452      1.0  0.87175  0.34577  0.00530  1.0000
  S   S137      1.0  0.74640  0.37689  0.09506  1.0000
  H   H775      1.0  0.86840  0.35798  0.12538  1.0000
  H   H776      1.0  0.74372  0.50838  0.19663  1.0000
  H   H777      1.0  0.83876  0.36577  0.22027  1.0000
  C   C453      1.0  0.75901  0.51793  0.05387  1.0000
  C   C454      1.0  0.73621  0.51158  0.05420  1.0000
  C   C455      1.0  0.73014  0.48841  0.05588  1.0000
  C   C456      1.0  0.74665  0.47102  0.05705  1.0000
  C   C457      1.0  0.76947  0.47737  0.05694  1.0000
  C   C458      1.0  0.77554  0.50057  0.05562  1.0000
  H   H778      1.0  0.72319  0.52453  0.05306  1.0000
  H   H779      1.0  0.71244  0.48393  0.05607  1.0000
  H   H780      1.0  0.78248  0.46440  0.05812  1.0000
  H   H781      1.0  0.79323  0.50506  0.05608  1.0000
  N   N32       1.0  0.67727  0.38678  0.02962  1.0000
  C   C459      1.0  0.68765  0.40756  0.09502  1.0000
  H   H782      1.0  0.62092  0.40415  0.03573  1.0000
  H   H783      1.0  0.76880  0.52335  0.14394  1.0000
  H   H784      1.0  0.65867  0.41288  0.99875  1.0000
  H   H785      1.0  0.86010  0.36843  0.37506  1.0000
  H   H786      1.0  0.81762  0.65391  0.30102  1.0000
  H   H787      1.0  0.81065  0.55007  0.16930  1.0000
  H   H788      1.0  0.78307  0.58335  0.17076  1.0000
  H   H789      1.0  0.78158  0.36570  0.36650  1.0000
  C   C460      1.0  0.78588  0.55949  0.24348  1.0000
  H   H790      1.0  0.76095  0.53428  0.23397  1.0000
  H   H791      1.0  0.80580  0.38160  0.35312  1.0000
  C   C461      1.0  0.80082  0.55595  0.14353  1.0000
  C   C462      1.0  0.73677  0.51814  0.17154  1.0000
  C   C463      1.0  0.75443  0.53429  0.15363  1.0000
  C   C464      1.0  0.80060  0.37513  0.44389  1.0000
  C   C465      1.0  0.65837  0.34769  0.03826  1.0000
  H   H792      1.0  0.79829  0.54182  0.12255  1.0000
  H   H793      1.0  0.85936  0.39432  0.09832  1.0000
  H   H794      1.0  0.83200  0.32943  0.34205  1.0000
  C   C466      1.0  0.85166  0.35931  0.35066  1.0000
  H   H795      1.0  0.94087  0.64887  0.31555  1.0000
  N   N33       1.0  0.76233  0.55336  0.17978  1.0000
  H   H796      1.0  0.80016  0.56132  0.99099  1.0000
  H   H797      1.0  0.79392  0.57402  0.22868  1.0000
  C   C467      1.0  0.80523  0.64441  0.24322  1.0000
  H   H798      1.0  0.77419  0.56588  0.26671  1.0000
  H   H799      1.0  0.83513  0.37709  0.09088  1.0000
  H   H800      1.0  0.64176  0.42207  0.05845  1.0000
  N   N34       1.0  0.81343  0.35057  0.38419  1.0000
  C   C468      1.0  0.83508  0.34142  0.36641  1.0000
  C   C469      1.0  0.83541  0.56915  0.98950  1.0000
  C   C470      1.0  0.86765  0.35846  0.09263  1.0000
  H   H801      1.0  0.75871  0.59375  0.22705  1.0000
  H   H802      1.0  0.85393  0.38341  0.05030  1.0000
  H   H803      1.0  0.89218  0.64553  0.30620  1.0000
  C   C471      1.0  0.77360  0.54315  0.21537  1.0000
  S   S138      1.0  0.75557  0.38617  0.00105  1.0000
  C   C472      1.0  0.83118  0.34916  0.22096  1.0000
  H   H804      1.0  0.88529  0.36211  0.08325  1.0000
  H   H805      1.0  0.78566  0.52938  0.20687  1.0000
  C   C473      1.0  0.63828  0.40457  0.04814  1.0000
  C   C474      1.0  0.83867  0.33315  0.24913  1.0000
  C   C475      1.0  0.79806  0.35506  0.31262  1.0000
  H   H806      1.0  0.70998  0.39947  0.04793  1.0000
  H   H807      1.0  0.82899  0.38123  0.40656  1.0000
  H   H808      1.0  0.63768  0.39301  0.07362  1.0000
  H   H809      1.0  0.86595  0.64486  0.28018  1.0000
  H   H810      1.0  0.66603  0.37089  0.08422  1.0000
  H   H811      1.0  0.82510  0.34108  0.09567  1.0000
  H   H812      1.0  0.81147  0.56854  0.12802  1.0000
  H   H813      1.0  0.80008  0.55032  0.25790  1.0000
  C   C476      1.0  0.85301  0.37931  0.08212  1.0000
  H   H814      1.0  0.74677  0.54124  0.12625  1.0000
  H   H815      1.0  0.76983  0.57331  0.12819  1.0000
  C   C477      1.0  0.79927  0.36400  0.35544  1.0000
  C   C478      1.0  0.77832  0.56751  0.15558  1.0000
  H   H816      1.0  0.72100  0.52710  0.18041  1.0000
  S   S139      1.0  0.70671  0.65535  0.03516  1.0000
  H   H817      1.0  0.83775  0.34904  0.02986  1.0000
  S   S140      1.0  0.77263  0.65262  0.05532  1.0000
  C   C479      1.0  0.81397  0.34397  0.19379  1.0000
  C   C480      1.0  0.87972  0.65619  0.29021  1.0000
  C   C481      1.0  0.80201  0.65078  0.20358  1.0000
  S   S141      1.0  0.80509  0.36526  0.15930  1.0000
  H   H818      1.0  0.74936  0.60272  0.17906  1.0000
  H   H819      1.0  0.73227  0.55863  0.21571  1.0000
  H   H820      1.0  0.72943  0.59865  0.21752  1.0000
  H   H821      1.0  0.69010  0.42102  0.03643  1.0000
  H   H822      1.0  0.73196  0.50554  0.14873  1.0000
  C   C482      1.0  0.74538  0.59182  0.20466  1.0000
  H   H823      1.0  0.72953  0.56832  0.16647  1.0000
  C   C483      1.0  0.74166  0.56711  0.19150  1.0000
  H   H824      1.0  0.83298  0.57566  0.01992  1.0000
  C   C484      1.0  0.67362  0.36635  0.05543  1.0000
  S   S142      1.0  0.75648  0.60901  0.99860  1.0000
  H   H825      1.0  0.84334  0.37155  0.33061  1.0000
  C   C485      1.0  0.81550  0.65916  0.27078  1.0000
  H   H826      1.0  0.78653  0.38248  0.42650  1.0000
  H   H827      1.0  0.69019  0.35845  0.06316  1.0000
  C   C486      1.0  0.65533  0.39728  0.01604  1.0000
  H   H828      1.0  0.83228  0.35743  0.43764  1.0000
  H   H829      1.0  0.92926  0.64537  0.26796  1.0000
  H   H830      1.0  0.89784  0.65424  0.23525  1.0000
  H   H831      1.0  0.65704  0.33374  0.06003  1.0000
  C   C487      1.0  0.69016  0.37881  0.99361  1.0000
  H   H832      1.0  0.64095  0.35397  0.03261  1.0000
  H   H833      1.0  0.69384  0.39276  0.11212  1.0000
  H   H834      1.0  0.64645  0.38615  0.99464  1.0000
  C   C488      1.0  0.93772  0.65777  0.28728  1.0000
  H   H835      1.0  0.85196  0.33748  0.26947  1.0000
  H   H836      1.0  0.78065  0.35766  0.30119  1.0000
  H   H837      1.0  0.69768  0.42233  0.10505  1.0000
  H   H838      1.0  0.88374  0.35779  0.01868  1.0000
  H   H839      1.0  0.66979  0.41115  0.10247  1.0000
  H   H840      1.0  0.70564  0.36923  0.00240  1.0000
  C   C489      1.0  0.82004  0.36602  0.41773  1.0000
  H   H841      1.0  0.79418  0.36181  0.46397  1.0000
  H   H842      1.0  0.80198  0.33691  0.30859  1.0000
  H   H843      1.0  0.84385  0.55238  0.99141  1.0000
  C   C490      1.0  0.85295  0.33800  0.03385  1.0000
  N   N35       1.0  0.85962  0.33608  0.07648  1.0000
  H   H844      1.0  0.80724  0.38878  0.46311  1.0000
  H   H845      1.0  0.88143  0.33101  0.99358  1.0000
  H   H846      1.0  0.78488  0.33735  0.41708  1.0000
  C   C491      1.0  0.80024  0.33116  0.40140  1.0000
  H   H847      1.0  0.84449  0.33118  0.38856  1.0000
  H   H848      1.0  0.82035  0.51834  0.99772  1.0000
  C   C492      1.0  0.83926  0.32896  0.10009  1.0000
  H   H849      1.0  0.66547  0.33996  0.01118  1.0000
  H   H850      1.0  0.84278  0.32967  0.13221  1.0000
  H   H851      1.0  0.79155  0.52580  0.98517  1.0000
  Fe  Fe73      1.0  0.92029  0.40055  0.74079  1.0000
  S   S143      1.0  0.90627  0.40678  0.68057  1.0000
  S   S144      1.0  0.95269  0.41984  0.74935  1.0000
  Fe  Fe74      1.0  0.87881  0.37321  0.76641  1.0000
  S   S145      1.0  0.86213  0.37746  0.70731  1.0000
  S   S146      1.0  0.85851  0.35264  0.81060  1.0000
  Fe  Fe75      1.0  0.89648  0.37013  0.68126  1.0000
  C   C493      1.0  0.81698  0.52974  0.93644  1.0000
  Fe  Fe76      1.0  0.87372  0.41354  0.71248  1.0000
  S   S147      1.0  0.85213  0.44471  0.70317  1.0000
  S   S148      1.0  0.91263  0.36336  0.74014  1.0000
  S   S149      1.0  0.88827  0.40973  0.77282  1.0000
  Fe  Fe77      1.0  0.89077  0.56726  0.73587  1.0000
  S   S150      1.0  0.89058  0.59520  0.78098  1.0000
  S   S151      1.0  0.90707  0.53299  0.74568  1.0000
  Fe  Fe78      1.0  0.87138  0.59746  0.67027  1.0000
  S   S152      1.0  0.86868  0.62770  0.71025  1.0000
  S   S153      1.0  0.86931  0.59501  0.60358  1.0000
  Fe  Fe79      1.0  0.90316  0.61722  0.73162  1.0000
  S   S154      1.0  0.93224  0.64145  0.72737  1.0000
  Fe  Fe80      1.0  0.85605  0.60333  0.75658  1.0000
  S   S155      1.0  0.82396  0.60829  0.79305  1.0000
  S   S156      1.0  0.90650  0.58858  0.68924  1.0000
  S   S157      1.0  0.85563  0.57379  0.71419  1.0000
  H   H852      1.0  0.98931  0.48258  0.72282  1.0000
  H   H853      1.0  0.93556  0.54131  0.60814  1.0000
  H   H854      1.0  0.70804  0.38944  0.94094  1.0000
  C   C494      1.0  0.86058  0.61857  0.57537  1.0000
  C   C495      1.0  0.84462  0.63402  0.58997  1.0000
  H   H855      1.0  0.84969  0.55155  0.63814  1.0000
  H   H856      1.0  0.83722  0.63144  0.61876  1.0000
  H   H857      1.0  0.90842  0.46683  0.61565  1.0000
  C   C496      1.0  0.82290  0.61686  0.84309  1.0000
  C   C497      1.0  0.80189  0.61719  0.86267  1.0000
  C   C498      1.0  0.80039  0.62250  0.90308  1.0000
  C   C499      1.0  0.81993  0.62771  0.92427  1.0000
  C   C500      1.0  0.84086  0.62800  0.90445  1.0000
  C   C501      1.0  0.84239  0.62246  0.86411  1.0000
  H   H858      1.0  0.78670  0.61309  0.84657  1.0000
  H   H859      1.0  0.78416  0.62247  0.91784  1.0000
  H   H860      1.0  0.85605  0.63213  0.92055  1.0000
  H   H861      1.0  0.85865  0.62239  0.84940  1.0000
  C   C502      1.0  0.95714  0.63217  0.75076  1.0000
  C   C503      1.0  0.97817  0.63578  0.73271  1.0000
  C   C504      1.0  0.95624  0.62175  0.78763  1.0000
  H   H862      1.0  0.94602  0.56572  0.78422  1.0000
  H   H863      1.0  0.94009  0.61918  0.80193  1.0000
  H   H864      1.0  0.75279  0.55647  0.91796  1.0000
  C   C505      1.0  0.96621  0.37196  0.67322  1.0000
  C   C506      1.0  0.83203  0.37817  0.93017  1.0000
  C   C507      1.0  0.82144  0.36022  0.91093  1.0000
  C   C508      1.0  0.82975  0.35258  0.87426  1.0000
  C   C509      1.0  0.84843  0.36303  0.85632  1.0000
  C   C510      1.0  0.85888  0.38108  0.87550  1.0000
  C   C511      1.0  0.85077  0.38852  0.91233  1.0000
  H   H865      1.0  0.95719  0.40727  0.66399  1.0000
  H   H866      1.0  0.95689  0.54198  0.71782  1.0000
  H   H867      1.0  0.87350  0.38899  0.86232  1.0000
  H   H868      1.0  0.85919  0.40226  0.92726  1.0000
  C   C512      1.0  0.86677  0.46907  0.71814  1.0000
  C   C513      1.0  0.85573  0.49017  0.71895  1.0000
  C   C514      1.0  0.86774  0.50988  0.72860  1.0000
  C   C515      1.0  0.89085  0.50855  0.73732  1.0000
  C   C516      1.0  0.90169  0.48738  0.73744  1.0000
  C   C517      1.0  0.88973  0.46772  0.72776  1.0000
  H   H869      1.0  0.83800  0.49135  0.71139  1.0000
  H   H870      1.0  0.85917  0.52607  0.72882  1.0000
  H   H871      1.0  0.91953  0.48616  0.74425  1.0000
  H   H872      1.0  0.89850  0.45160  0.72699  1.0000
  C   C518      1.0  0.97711  0.40551  0.76521  1.0000
  C   C519      1.0  0.80750  0.51844  0.97395  1.0000
  C   C520      1.0  0.97579  0.38540  0.78672  1.0000
  C   C521      1.0  0.97636  0.61542  0.80673  1.0000
  H   H873      1.0  0.95944  0.37835  0.79383  1.0000
  H   H874      1.0  0.88753  0.65005  0.63801  1.0000
  H   H875      1.0  0.94261  0.55094  0.82917  1.0000
  H   H876      1.0  0.96693  0.58282  0.74160  1.0000
  H   H877      1.0  0.88543  0.53459  0.66367  1.0000
  H   H878      1.0  0.91195  0.50790  0.55640  1.0000
  S   S158      1.0  0.82305  0.38811  0.97684  1.0000
  C   C522      1.0  0.83006  0.55591  0.86131  1.0000
  C   C523      1.0  0.93173  0.53323  0.63673  1.0000
  H   H879      1.0  0.84823  0.52178  0.64618  1.0000
  H   H880      1.0  0.58914  0.65129  0.95461  1.0000
  N   N36       1.0  0.98371  0.35393  0.66467  1.0000
  H   H881      1.0  0.97030  0.50390  0.70523  1.0000
  H   H882      1.0  0.83041  0.53718  0.85938  1.0000
  C   C524      1.0  0.91710  0.51181  0.63254  1.0000
  C   C525      1.0  0.97922  0.49770  0.73177  1.0000
  H   H883      1.0  0.91455  0.50510  0.66285  1.0000
  N   N37       1.0  0.81182  0.55462  0.93093  1.0000
  H   H884      1.0  0.88086  0.45725  0.60394  1.0000
  H   H885      1.0  0.78686  0.57637  0.90356  1.0000
  H   H886      1.0  0.97895  0.64398  0.70433  1.0000
  C   C526      1.0  0.86312  0.34611  0.54244  1.0000
  H   H887      1.0  0.87900  0.48998  0.64919  1.0000
  H   H888      1.0  0.84557  0.56227  0.84651  1.0000
  N   N38       1.0  0.81305  0.42863  0.81405  1.0000
  C   C527      1.0  0.80657  0.41677  0.77627  1.0000
  C   C528      1.0  0.80202  0.45175  0.81335  1.0000
  C   C529      1.0  0.80391  0.41481  0.84787  1.0000
  C   C530      1.0  0.83850  0.42979  0.81536  1.0000
  C   C531      1.0  0.81353  0.39157  0.77292  1.0000
  C   C532      1.0  0.81059  0.46794  0.78107  1.0000
  C   C533      1.0  0.80170  0.42653  0.88831  1.0000
  C   C534      1.0  0.84934  0.44443  0.84779  1.0000
  H   H889      1.0  0.78792  0.41762  0.77166  1.0000
  H   H890      1.0  0.81427  0.42519  0.75027  1.0000
  H   H891      1.0  0.80407  0.46091  0.84152  1.0000
  H   H892      1.0  0.78335  0.45011  0.80984  1.0000
  H   H893      1.0  0.78665  0.40848  0.84088  1.0000
  H   H894      1.0  0.81452  0.39941  0.85251  1.0000
  H   H895      1.0  0.84585  0.41257  0.81901  1.0000
  H   H896      1.0  0.84554  0.43545  0.78663  1.0000
  H   H897      1.0  0.83207  0.38922  0.77486  1.0000
  H   H898      1.0  0.80508  0.38080  0.79517  1.0000
  H   H899      1.0  0.80845  0.38507  0.74357  1.0000
  H   H900      1.0  0.80189  0.48459  0.78430  1.0000
  H   H901      1.0  0.82899  0.47111  0.78372  1.0000
  H   H902      1.0  0.80679  0.46175  0.75101  1.0000
  H   H903      1.0  0.81781  0.43355  0.89897  1.0000
  H   H904      1.0  0.79646  0.41370  0.91038  1.0000
  H   H905      1.0  0.78826  0.43974  0.88841  1.0000
  H   H906      1.0  0.85409  0.43386  0.87351  1.0000
  H   H907      1.0  0.83884  0.45883  0.85786  1.0000
  H   H908      1.0  0.86505  0.45214  0.83594  1.0000
  H   H909      1.0  0.87158  0.53881  0.54131  1.0000
  H   H910      1.0  0.81102  0.51983  0.91062  1.0000
  C   C535      1.0  0.97466  0.54775  0.72155  1.0000
  H   H911      1.0  0.97169  0.34582  0.56427  1.0000
  H   H912      1.0  0.95418  0.33587  0.73370  1.0000
  H   H913      1.0  0.86437  0.49419  0.60505  1.0000
  H   H914      1.0  0.78833  0.54868  0.88304  1.0000
  H   H915      1.0  0.91725  0.63173  0.59126  1.0000
  H   H916      1.0  0.92382  0.54576  0.65691  1.0000
  C   C536      1.0  0.89374  0.33968  0.58890  1.0000
  H   H917      1.0  0.86559  0.50899  0.54770  1.0000
  H   H918      1.0  0.92788  0.49907  0.61706  1.0000
  H   H919      1.0  0.68335  0.40607  0.95050  1.0000
  H   H920      1.0  0.85023  0.53320  0.59692  1.0000
  H   H921      1.0  0.87058  0.64339  0.48596  1.0000
  N   N39       1.0  0.89465  0.51486  0.61196  1.0000
  H   H922      1.0  0.88464  0.51730  0.51094  1.0000
  H   H923      1.0  0.89597  0.47323  0.56792  1.0000
  H   H924      1.0  0.84664  0.58138  0.97432  1.0000
  H   H925      1.0  0.70894  0.41018  0.97899  1.0000
  H   H926      1.0  0.98678  0.40293  0.67028  1.0000
  H   H927      1.0  0.83565  0.52699  0.93781  1.0000
  C   C537      1.0  0.97145  0.39565  0.65663  1.0000
  H   H928      1.0  0.81561  0.56290  0.84426  1.0000
  H   H929      1.0  0.88863  0.55087  0.62043  1.0000
  C   C538      1.0  0.86336  0.64084  0.51488  1.0000
  H   H930      1.0  0.97564  0.60796  0.83575  1.0000
  C   C539      1.0  0.88167  0.49318  0.61736  1.0000
  H   H931      1.0  0.80643  0.58562  0.96386  1.0000
  C   C540      1.0  0.78921  0.55817  0.91128  1.0000
  C   C541      1.0  0.76805  0.55103  0.93456  1.0000
  H   H932      1.0  0.55966  0.63612  0.90946  1.0000
  C   C542      1.0  0.89939  0.51998  0.56928  1.0000
  H   H933      1.0  0.97326  0.52454  0.81473  1.0000
  C   C543      1.0  0.89269  0.47162  0.59991  1.0000
  H   H934      1.0  0.82798  0.58313  0.90306  1.0000
  H   H935      1.0  0.94819  0.52833  0.64998  1.0000
  C   C544      1.0  0.88219  0.53437  0.63141  1.0000
  H   H936      1.0  0.88203  0.60992  0.52605  1.0000
  C   C545      1.0  0.86976  0.62189  0.53759  1.0000
  C   C546      1.0  0.87895  0.52143  0.54132  1.0000
  C   C547      1.0  0.85616  0.53495  0.62749  1.0000
  C   C548      1.0  0.96658  0.53463  0.78968  1.0000
  H   H937      1.0  0.97311  0.39561  0.62417  1.0000
  C   C549      1.0  0.84722  0.65619  0.52944  1.0000
  C   C550      1.0  0.81223  0.56788  0.96896  1.0000
  H   H938      1.0  0.90785  0.53665  0.56644  1.0000
  H   H939      1.0  0.96765  0.56703  0.82220  1.0000
  H   H940      1.0  0.86702  0.36414  0.59756  1.0000
  S   S159      1.0  0.81920  0.63257  0.97578  1.0000
  C   C551      1.0  0.55466  0.64628  0.93559  1.0000
  C   C552      1.0  0.69788  0.39747  0.96481  1.0000
  H   H941      1.0  0.96666  0.49175  0.75372  1.0000
  H   H942      1.0  0.94924  0.36689  0.66242  1.0000
  C   C553      1.0  0.97514  0.33178  0.68056  1.0000
  C   C554      1.0  0.87395  0.35124  0.57826  1.0000
  H   H943      1.0  0.95253  0.52440  0.77744  1.0000
  C   C555      1.0  0.82971  0.56448  0.90425  1.0000
  H   H944      1.0  0.96385  0.37407  0.70550  1.0000
  C   C556      1.0  0.95537  0.55606  0.80690  1.0000
  H   H945      1.0  0.80710  0.35202  0.92448  1.0000
  H   H946      1.0  0.84785  0.35516  0.53444  1.0000
  H   H947      1.0  0.84700  0.56127  0.91598  1.0000
  H   H948      1.0  0.55086  0.63402  0.95944  1.0000
  H   H949      1.0  0.80402  0.50033  0.96761  1.0000
  S   S160      1.0  0.90832  0.34575  0.63320  1.0000
  C   C557      1.0  0.83780  0.65258  0.56690  1.0000
  C   C558      1.0  0.97453  0.57375  0.71640  1.0000
  H   H950      1.0  0.98360  0.34104  0.74249  1.0000
  H   H951      1.0  0.76703  0.53237  0.93729  1.0000
  C   C559      1.0  0.98771  0.35131  0.62103  1.0000
  H   H952      1.0  0.76675  0.55928  0.96378  1.0000
  N   N40       1.0  0.98475  0.53826  0.75909  1.0000
  H   H953      1.0  0.60240  0.65831  0.89088  1.0000
  H   H954      1.0  0.98966  0.65893  0.53680  1.0000
  H   H955      1.0  0.96440  0.57830  0.69006  1.0000
  H   H956      1.0  0.95734  0.33197  0.60340  1.0000
  C   C560      1.0  0.97163  0.33059  0.72560  1.0000
  H   H957      1.0  0.86398  0.35503  0.98028  1.0000
  H   H958      1.0  0.82170  0.33847  0.85972  1.0000
  C   C561      1.0  0.96645  0.34767  0.59553  1.0000
  H   H959      1.0  0.98403  0.54133  0.69522  1.0000
  H   H960      1.0  0.99190  0.58024  0.71143  1.0000
  H   H961      1.0  0.71101  0.32956  0.94709  1.0000
  H   H962      1.0  0.88675  0.65589  0.58783  1.0000
  H   H963      1.0  0.92571  0.64082  0.63961  1.0000
  H   H964      1.0  0.95455  0.36227  0.59684  1.0000
  H   H965      1.0  0.93287  0.65679  0.59586  1.0000
  C   C562      1.0  0.91961  0.64678  0.61049  1.0000
  C   C563      1.0  0.89679  0.65931  0.61463  1.0000
  H   H966      1.0  0.53879  0.65576  0.92952  1.0000
  C   C564      1.0  0.87186  0.32931  0.51709  1.0000
  H   H967      1.0  0.68000  0.36683  0.97578  1.0000
  H   H968      1.0  0.57520  0.66094  0.86888  1.0000
  Fe  Fe81      1.0  0.59818  0.88279  0.25570  1.0000
  S   S161      1.0  0.59518  0.89720  0.19416  1.0000
  S   S162      1.0  0.63204  0.88077  0.28728  1.0000
  Fe  Fe82      1.0  0.54821  0.87115  0.25989  1.0000
  S   S163      1.0  0.54147  0.88484  0.20003  1.0000
  S   S164      1.0  0.51969  0.85471  0.29311  1.0000
  Fe  Fe83      1.0  0.57330  0.86674  0.18135  1.0000
  S   S165      1.0  0.56718  0.84142  0.13179  1.0000
  Fe  Fe84      1.0  0.56343  0.91373  0.21808  1.0000
  S   S166      1.0  0.54779  0.94863  0.21272  1.0000
  S   S167      1.0  0.57879  0.85128  0.24103  1.0000
  S   S168      1.0  0.56796  0.90125  0.28002  1.0000
  Fe  Fe85      1.0  0.85186  0.69615  0.44663  1.0000
  S   S169      1.0  0.87414  0.72633  0.45690  1.0000
  Fe  Fe86      1.0  0.84789  0.70486  0.35712  1.0000
  S   S170      1.0  0.86969  0.73594  0.36367  1.0000
  S   S171      1.0  0.83569  0.70041  0.29262  1.0000
  Fe  Fe87      1.0  0.89297  0.71490  0.40202  1.0000
  S   S172      1.0  0.93108  0.70773  0.38780  1.0000
  Fe  Fe88      1.0  0.84885  0.74453  0.41790  1.0000
  S   S173      1.0  0.83358  0.78037  0.42772  1.0000
  S   S174      1.0  0.87164  0.68347  0.39395  1.0000
  S   S175      1.0  0.82617  0.71477  0.40924  1.0000
  H   H969      1.0  0.64194  0.98635  0.33257  1.0000
  H   H970      1.0  0.67474  0.76289  0.08741  1.0000
  H   H971      1.0  0.69900  0.74591  0.08085  1.0000
  C   C565      1.0  0.80943  0.67226  0.19201  1.0000
  H   H972      1.0  0.56059  0.96275  0.30507  1.0000
  N   N41       1.0  0.61992  0.96427  0.29940  1.0000
  H   H973      1.0  0.55567  0.87858  0.35666  1.0000
  C   C566      1.0  0.80865  0.79144  0.45196  1.0000
  H   H974      1.0  0.61974  0.92793  0.30619  1.0000
  C   C567      1.0  0.80441  0.81499  0.45157  1.0000
  H   H975      1.0  0.61831  0.75295  0.02024  1.0000
  H   H976      1.0  0.81649  0.82604  0.43753  1.0000
  H   H977      1.0  0.88588  0.70371  0.30469  1.0000
  C   C568      1.0  0.55707  0.99385  0.21589  1.0000
  H   H978      1.0  0.57873  0.94730  0.33715  1.0000
  H   H979      1.0  0.91449  0.67748  0.32401  1.0000
  H   H980      1.0  0.65757  0.79248  0.06490  1.0000
  C   C569      1.0  0.96045  0.71367  0.39778  1.0000
  C   C570      1.0  0.97748  0.70145  0.37738  1.0000
  C   C571      1.0  0.96734  0.73009  0.42499  1.0000
  H   H981      1.0  0.97260  0.68870  0.35625  1.0000
  H   H982      1.0  0.95469  0.73977  0.44095  1.0000
  C   C572      1.0  0.63521  0.88185  0.33908  1.0000
  C   C573      1.0  0.61786  0.88974  0.36376  1.0000
  C   C574      1.0  0.62072  0.88946  0.40489  1.0000
  C   C575      1.0  0.64095  0.88145  0.42176  1.0000
  C   C576      1.0  0.65862  0.87443  0.39703  1.0000
  C   C577      1.0  0.65574  0.87466  0.35588  1.0000
  H   H983      1.0  0.60214  0.89576  0.35124  1.0000
  H   H984      1.0  0.60703  0.89505  0.42387  1.0000
  H   H985      1.0  0.67427  0.86825  0.40967  1.0000
  H   H986      1.0  0.66937  0.86883  0.33701  1.0000
  C   C578      1.0  0.60490  0.82696  0.01552  1.0000
  C   C579      1.0  0.58558  0.81482  0.02588  1.0000
  C   C580      1.0  0.57437  0.81947  0.06167  1.0000
  C   C581      1.0  0.58231  0.83627  0.08746  1.0000
  C   C582      1.0  0.60178  0.84826  0.07731  1.0000
  C   C583      1.0  0.61303  0.84358  0.04149  1.0000
  C   C584      1.0  0.68833  0.76169  0.02616  1.0000
  H   H987      1.0  0.55932  0.81012  0.06927  1.0000
  H   H988      1.0  0.60804  0.86125  0.09684  1.0000
  H   H989      1.0  0.62795  0.85309  0.03366  1.0000
  H   H990      1.0  0.64471  0.93024  0.25249  1.0000
  C   C585      1.0  0.56470  0.97240  0.20352  1.0000
  C   C586      1.0  0.58606  0.97015  0.18614  1.0000
  C   C587      1.0  0.49547  0.89314  0.27549  1.0000
  H   H991      1.0  0.59188  0.95373  0.17600  1.0000
  H   H992      1.0  0.53269  0.79946  0.39041  1.0000
  C   C588      1.0  0.89038  0.66780  0.25413  1.0000
  H   H993      1.0  0.92930  0.67492  0.21559  1.0000
  H   H994      1.0  0.61957  0.93915  0.22648  1.0000
  C   C589      1.0  0.92336  0.67928  0.29521  1.0000
  N   N42       1.0  0.78940  0.75989  0.32473  1.0000
  C   C590      1.0  0.78104  0.73585  0.32068  1.0000
  C   C591      1.0  0.78542  0.76706  0.36685  1.0000
  C   C592      1.0  0.81457  0.75925  0.31698  1.0000
  C   C593      1.0  0.77725  0.77476  0.29541  1.0000
  C   C594      1.0  0.78044  0.72601  0.27845  1.0000
  C   C595      1.0  0.76046  0.76801  0.38046  1.0000
  C   C596      1.0  0.82700  0.78205  0.31710  1.0000
  C   C597      1.0  0.77660  0.80057  0.30393  1.0000
  H   H995      1.0  0.79135  0.72408  0.33916  1.0000
  H   H996      1.0  0.76340  0.73426  0.33163  1.0000
  H   H997      1.0  0.79270  0.78385  0.37326  1.0000
  H   H998      1.0  0.79454  0.75544  0.38732  1.0000
  H   H999      1.0  0.82314  0.74818  0.33897  1.0000
  H   H1000     1.0  0.81853  0.75156  0.28796  1.0000
  H   H1001     1.0  0.78460  0.77222  0.26546  1.0000
  H   H1002     1.0  0.75923  0.76949  0.29318  1.0000
  H   H1003     1.0  0.76736  0.73446  0.26018  1.0000
  H   H1004     1.0  0.79689  0.72673  0.26299  1.0000
  H   H1005     1.0  0.77590  0.70780  0.28007  1.0000
  H   H1006     1.0  0.75910  0.77874  0.40726  1.0000
  H   H1007     1.0  0.74896  0.77545  0.35829  1.0000
  H   H1008     1.0  0.75438  0.75095  0.38887  1.0000
  H   H1009     1.0  0.82497  0.79147  0.34509  1.0000
  H   H1010     1.0  0.82187  0.79273  0.29181  1.0000
  H   H1011     1.0  0.84543  0.77872  0.31371  1.0000
  H   H1012     1.0  0.77916  0.80989  0.27592  1.0000
  H   H1013     1.0  0.78950  0.80684  0.32457  1.0000
  H   H1014     1.0  0.75961  0.80585  0.31478  1.0000
  N   N43       1.0  0.58415  0.82674  0.37099  1.0000
  C   C598      1.0  0.59371  0.81057  0.34068  1.0000
  C   C599      1.0  0.56594  0.81485  0.39398  1.0000
  C   C600      1.0  0.60222  0.83441  0.39913  1.0000
  C   C601      1.0  0.57473  0.84717  0.34991  1.0000
  C   C602      1.0  0.61522  0.81850  0.31890  1.0000
  H   H1015     1.0  0.65755  0.92461  0.31873  1.0000
  H   H1016     1.0  0.62303  0.80301  0.40186  1.0000
  H   H1017     1.0  0.59754  0.79376  0.35394  1.0000
  H   H1018     1.0  0.58100  0.80715  0.31734  1.0000
  H   H1019     1.0  0.88053  0.71121  0.25541  1.0000
  C   C603      1.0  0.66130  0.70139  0.98941  1.0000
  H   H1020     1.0  0.61516  0.84456  0.38358  1.0000
  H   H1021     1.0  0.62868  0.97987  0.24379  1.0000
  H   H1022     1.0  0.58848  0.85687  0.33556  1.0000
  H   H1023     1.0  0.56349  0.84194  0.32538  1.0000
  H   H1024     1.0  0.61257  0.83478  0.30342  1.0000
  H   H1025     1.0  0.63000  0.81995  0.33873  1.0000
  H   H1026     1.0  0.61982  0.80579  0.29604  1.0000
  H   H1027     1.0  0.61544  0.94294  0.35058  1.0000
  C   C604      1.0  0.68779  0.81084  0.05376  1.0000
  H   H1028     1.0  0.53575  0.82263  0.35750  1.0000
  C   C605      1.0  0.65048  0.93976  0.33399  1.0000
  C   C606      1.0  0.63191  0.76406  0.03143  1.0000
  C   C607      1.0  0.59563  0.96323  0.28624  1.0000
  H   H1029     1.0  0.61505  0.98280  0.35405  1.0000
  H   H1030     1.0  0.62367  0.78045  0.03931  1.0000
  C   C608      1.0  0.62373  0.98470  0.32516  1.0000
  C   C609      1.0  0.92091  0.69074  0.22626  1.0000
  H   H1031     1.0  0.49874  0.82345  0.20297  1.0000
  H   H1032     1.0  0.91894  0.70243  0.16570  1.0000
  C   C610      1.0  0.99067  0.73439  0.43109  1.0000
  C   C611      1.0  0.57757  0.96287  0.31908  1.0000
  C   C612      1.0  0.64979  0.76739  0.99877  1.0000
  H   H1033     1.0  0.59507  0.84588  0.42206  1.0000
  C   C613      1.0  0.54482  0.80791  0.37031  1.0000
  H   H1034     1.0  0.52383  0.83663  0.18565  1.0000
  H   H1035     1.0  0.57814  0.97812  0.33808  1.0000
  N   N44       1.0  0.67165  0.77877  0.01020  1.0000
  C   C614      1.0  0.68291  0.75106  0.06645  1.0000
  H   H1036     1.0  0.60047  0.68674  0.00203  1.0000
  H   H1037     1.0  0.79541  0.75941  0.47083  1.0000
  C   C615      1.0  0.67398  0.68727  0.01501  1.0000
  H   H1038     1.0  0.51154  0.90069  0.26812  1.0000
  H   H1039     1.0  0.62854  0.82345  0.43926  1.0000
  H   H1040     1.0  0.70578  0.76865  0.02717  1.0000
  H   H1041     1.0  0.80719  0.67755  0.16180  1.0000
  C   C616      1.0  0.89447  0.70698  0.27617  1.0000
  H   H1042     1.0  0.57952  0.70848  0.99177  1.0000
  H   H1043     1.0  0.89989  0.71716  0.19768  1.0000
  N   N45       1.0  0.90733  0.68616  0.26292  1.0000
  H   H1044     1.0  0.89382  0.68855  0.18174  1.0000
  H   H1045     1.0  0.49651  0.86596  0.18926  1.0000
  H   H1046     1.0  0.50187  0.86049  0.13856  1.0000
  H   H1047     1.0  0.92053  0.72705  0.30691  1.0000
  H   H1048     1.0  0.50818  0.81994  0.15213  1.0000
  H   H1049     1.0  0.57158  0.87153  0.39946  1.0000
  H   H1050     1.0  0.87600  0.67467  0.23653  1.0000
  H   H1051     1.0  0.66156  0.95430  0.32776  1.0000
  H   H1052     1.0  0.91773  0.73382  0.25507  1.0000
  C   C617      1.0  0.90734  0.70027  0.19119  1.0000
  H   H1053     1.0  0.54901  0.79562  0.34665  1.0000
  H   H1054     1.0  0.59157  0.97774  0.26684  1.0000
  H   H1055     1.0  0.70028  0.79936  0.06779  1.0000
  H   H1056     1.0  0.66969  0.68679  0.04596  1.0000
  C   C618      1.0  0.90855  0.72866  0.28200  1.0000
  H   H1057     1.0  0.65231  0.97086  0.27106  1.0000
  H   H1058     1.0  0.69600  0.82098  0.03040  1.0000
  C   C619      1.0  0.81972  0.68699  0.21954  1.0000
  C   C620      1.0  0.79266  0.77754  0.47029  1.0000
  C   C621      1.0  0.66693  0.79805  0.03840  1.0000
  H   H1059     1.0  0.69005  0.74704  0.00558  1.0000
  H   H1060     1.0  0.64757  0.71149  0.00108  1.0000
  C   C622      1.0  0.63475  0.96601  0.26330  1.0000
  C   C623      1.0  0.56127  0.86426  0.37549  1.0000
  S   S176      1.0  0.64246  0.87856  0.47353  1.0000
  H   H1061     1.0  0.93513  0.70247  0.23245  1.0000
  C   C624      1.0  0.82281  0.68067  0.25921  1.0000
  H   H1062     1.0  0.56020  0.82536  0.41943  1.0000
  C   C625      1.0  0.62531  0.94323  0.32264  1.0000
  H   H1063     1.0  0.67231  0.73574  0.06287  1.0000
  H   H1064     1.0  0.54567  0.85683  0.38795  1.0000
  C   C626      1.0  0.69207  0.67367  0.00111  1.0000
  C   C627      1.0  0.61484  0.81554  0.42167  1.0000
  H   H1065     1.0  0.65175  0.93609  0.36600  1.0000
  H   H1066     1.0  0.57266  0.79895  0.40718  1.0000
  H   H1067     1.0  0.63875  0.75597  0.05813  1.0000
  H   H1068     1.0  0.68211  0.82312  0.07664  1.0000
  C   C628      1.0  0.50634  0.83193  0.17712  1.0000
  H   H1069     1.0  0.59259  0.94790  0.26804  1.0000
  H   H1070     1.0  0.65550  0.81077  0.02442  1.0000
  C   C629      1.0  0.63631  0.94459  0.23727  1.0000
  H   H1071     1.0  0.89691  0.74288  0.28953  1.0000
  H   H1072     1.0  0.64668  0.94842  0.21082  1.0000
  H   H1073     1.0  0.60359  0.80685  0.44289  1.0000
  H   H1074     1.0  0.93579  0.69294  0.30102  1.0000
  H   H1075     1.0  0.57914  0.80202  0.00617  1.0000
  C   C630      1.0  0.49464  0.87084  0.28912  1.0000
  H   H1076     1.0  0.69718  0.98263  0.46230  1.0000
  H   H1077     1.0  0.82525  0.70351  0.20993  1.0000
  C   C631      1.0  0.78475  0.82452  0.46930  1.0000
  H   H1078     1.0  0.87202  0.66859  0.31075  1.0000
  H   H1079     1.0  0.78199  0.84265  0.46875  1.0000
  C   C632      1.0  0.59988  0.98924  0.18184  1.0000
  H   H1080     1.0  0.61642  0.98745  0.16839  1.0000
  H   H1081     1.0  0.60874  0.71485  0.98998  1.0000
  H   H1082     1.0  0.68302  0.99254  0.41908  1.0000
  H   H1083     1.0  0.95424  0.66226  0.27380  1.0000
  H   H1084     1.0  0.65314  0.75051  0.98541  1.0000
  H   H1085     1.0  0.69232  0.78160  0.91322  1.0000
  Fe  Fe89      1.0  0.67479  0.87562  0.51007  1.0000
  C   C633      1.0  0.90693  0.68851  0.66414  1.0000
  Fe  Fe90      1.0  0.68902  0.86682  0.59621  1.0000
  S   S177      1.0  0.72550  0.87497  0.58112  1.0000
  S   S178      1.0  0.68029  0.85874  0.66154  1.0000
  Fe  Fe91      1.0  0.71179  0.90470  0.54575  1.0000
  S   S179      1.0  0.72807  0.94045  0.54563  1.0000
  Fe  Fe92      1.0  0.72129  0.85339  0.52647  1.0000
  S   S180      1.0  0.74342  0.82157  0.51084  1.0000
  S   S181      1.0  0.67597  0.89782  0.56423  1.0000
  S   S182      1.0  0.68529  0.84418  0.54328  1.0000
  Fe  Fe93      1.0  0.61320  0.78382  0.83744  1.0000
  S   S183      1.0  0.60072  0.74833  0.84990  1.0000
  S   S184      1.0  0.62114  0.79216  0.77198  1.0000
  Fe  Fe94      1.0  0.60885  0.79532  0.92573  1.0000
  S   S185      1.0  0.59602  0.76088  0.94275  1.0000
  Fe  Fe95      1.0  0.62382  0.74757  0.90300  1.0000
  S   S186      1.0  0.64990  0.71851  0.91438  1.0000
  Fe  Fe96      1.0  0.57379  0.76447  0.88873  1.0000
  S   S187      1.0  0.53694  0.75092  0.88550  1.0000
  S   S188      1.0  0.63754  0.78200  0.88808  1.0000
  S   S189      1.0  0.58521  0.79991  0.87406  1.0000
  C   C634      1.0  0.50651  0.75086  0.88989  1.0000
  H   H1086     1.0  0.75357  0.84591  0.64317  1.0000
  H   H1087     1.0  0.90970  0.71581  0.59989  1.0000
  S   S190      1.0  0.83796  0.68003  0.50235  1.0000
  C   C635      1.0  0.87323  0.69309  0.62318  1.0000
  C   C636      1.0  0.66351  0.84007  0.69152  1.0000
  C   C637      1.0  0.64834  0.82438  0.67569  1.0000
  C   C638      1.0  0.63573  0.80996  0.70070  1.0000
  C   C639      1.0  0.63779  0.81097  0.74206  1.0000
  C   C640      1.0  0.65296  0.82666  0.75789  1.0000
  C   C641      1.0  0.66568  0.84099  0.73285  1.0000
  H   H1088     1.0  0.64607  0.82351  0.64418  1.0000
  H   H1089     1.0  0.62404  0.79805  0.68789  1.0000
  H   H1090     1.0  0.65484  0.82782  0.78946  1.0000
  H   H1091     1.0  0.67720  0.85304  0.74573  1.0000
  C   C642      1.0  0.72659  0.97089  0.54881  1.0000
  H   H1092     1.0  0.94193  0.67532  0.65574  1.0000
  N   N46       1.0  0.89732  0.68428  0.62360  1.0000
  C   C643      1.0  0.74670  0.98297  0.54328  1.0000
  C   C644      1.0  0.93288  0.69024  0.66777  1.0000
  H   H1093     1.0  0.75419  0.83045  0.68889  1.0000
  H   H1094     1.0  0.75429  0.77523  0.57044  1.0000
  C   C645      1.0  0.66614  0.70192  0.94898  1.0000
  H   H1095     1.0  0.73470  0.85339  0.68217  1.0000
  H   H1096     1.0  0.66983  0.80178  0.96053  1.0000
  C   C646      1.0  0.90212  0.69452  0.54994  1.0000
  H   H1097     1.0  0.70326  0.76183  0.94810  1.0000
  H   H1098     1.0  0.78173  0.78394  0.58453  1.0000
  S   S191      1.0  0.61962  0.82161  0.97089  1.0000
  H   H1099     1.0  0.91348  0.70419  0.53013  1.0000
  H   H1100     1.0  0.74354  0.79948  0.71755  1.0000
  H   H1101     1.0  0.74539  0.76944  0.71889  1.0000
  H   H1102     1.0  0.76523  0.78445  0.68942  1.0000
  H   H1103     1.0  0.98947  0.71066  0.52033  1.0000
  N   N47       1.0  0.73184  0.80043  0.63388  1.0000
  C   C647      1.0  0.71553  0.79420  0.60151  1.0000
  C   C648      1.0  0.75511  0.80212  0.61572  1.0000
  C   C649      1.0  0.72456  0.82315  0.65047  1.0000
  C   C650      1.0  0.73069  0.78227  0.66492  1.0000
  C   C651      1.0  0.69015  0.79468  0.61260  1.0000
  C   C652      1.0  0.76451  0.78042  0.59611  1.0000
  C   C653      1.0  0.74305  0.83878  0.66721  1.0000
  C   C654      1.0  0.74736  0.78436  0.69933  1.0000
  H   H1104     1.0  0.71757  0.80578  0.57594  1.0000
  H   H1105     1.0  0.71897  0.77684  0.59014  1.0000
  H   H1106     1.0  0.76795  0.80726  0.63764  1.0000
  H   H1107     1.0  0.75524  0.81574  0.59303  1.0000
  H   H1108     1.0  0.71638  0.83360  0.62719  1.0000
  H   H1109     1.0  0.71144  0.82102  0.67378  1.0000
  H   H1110     1.0  0.71358  0.78185  0.67864  1.0000
  H   H1111     1.0  0.73328  0.76525  0.65147  1.0000
  H   H1112     1.0  0.68008  0.79035  0.58613  1.0000
  H   H1113     1.0  0.68585  0.78210  0.63553  1.0000
  H   H1114     1.0  0.68439  0.81173  0.62207  1.0000
  H   H1115     1.0  0.76614  0.76624  0.61724  1.0000
  H   H1116     1.0  0.52674  0.70656  0.93553  1.0000
  H   H1117     1.0  0.90140  0.67510  0.68508  1.0000
  C   C655      1.0  0.54452  0.70483  0.94568  1.0000
  H   H1118     1.0  0.60396  0.67749  0.82734  1.0000
  C   C656      1.0  0.70660  0.98340  0.55625  1.0000
  H   H1119     1.0  0.85477  0.66573  0.65365  1.0000
  H   H1120     1.0  0.88485  0.70149  0.54532  1.0000
  H   H1121     1.0  0.93735  0.69119  0.69949  1.0000
  H   H1122     1.0  0.67410  0.76049  0.93269  1.0000
  H   H1123     1.0  0.64095  0.77725  0.97549  1.0000
  H   H1124     1.0  0.50175  0.78508  0.91075  1.0000
  C   C657      1.0  0.68807  0.77202  0.94033  1.0000
  H   H1125     1.0  0.76227  0.97374  0.53759  1.0000
  H   H1126     1.0  0.68833  0.68847  0.90403  1.0000
  H   H1127     1.0  0.82514  0.66426  0.57818  1.0000
  C   C658      1.0  0.98167  0.69374  0.52338  1.0000
  H   H1128     1.0  0.93930  0.70595  0.65393  1.0000
  C   C659      1.0  0.59808  0.69542  0.93924  1.0000
  C   C660      1.0  0.85747  0.68421  0.65598  1.0000
  C   C661      1.0  0.68167  0.78894  0.97334  1.0000
  C   C662      1.0  0.58856  0.67067  0.88430  1.0000
  H   H1129     1.0  0.92848  0.69287  0.59266  1.0000
  H   H1130     1.0  0.90026  0.70477  0.67649  1.0000
  H   H1131     1.0  0.50477  0.71638  0.86972  1.0000
  C   C663      1.0  0.91026  0.69736  0.59285  1.0000
  C   C664      1.0  0.59803  0.68727  0.85341  1.0000
  H   H1132     1.0  0.97250  0.68937  0.49599  1.0000
  H   H1133     1.0  0.87291  0.71195  0.62523  1.0000
  H   H1134     1.0  0.58495  0.69932  0.84277  1.0000
  N   N48       1.0  0.57950  0.68118  0.92184  1.0000
  H   H1135     1.0  0.61293  0.69665  0.86442  1.0000
  H   H1136     1.0  0.54780  0.68682  0.89048  1.0000
  H   H1137     1.0  0.69091  0.97444  0.56072  1.0000
  C   C665      1.0  0.69721  0.67453  0.96084  1.0000
  H   H1138     1.0  0.86471  0.68887  0.59499  1.0000
  C   C666      1.0  0.68425  0.68835  0.93509  1.0000
  H   H1139     1.0  0.56462  0.71079  0.89463  1.0000
  H   H1140     1.0  0.55028  0.72192  0.95485  1.0000
  H   H1141     1.0  0.54359  0.69369  0.97162  1.0000
  H   H1142     1.0  0.59968  0.71164  0.92290  1.0000
  H   H1143     1.0  0.76065  0.77596  0.50105  1.0000
  H   H1144     1.0  0.86354  0.68846  0.68592  1.0000
  H   H1145     1.0  0.84055  0.69230  0.65268  1.0000
  S   S192      1.0  0.71013  0.88358  0.48982  1.0000
  C   C667      1.0  0.55921  0.69562  0.91148  1.0000
  H   H1146     1.0  0.90282  0.67662  0.54002  1.0000
  C   C668      1.0  0.49514  0.73088  0.87998  1.0000
  C   C669      1.0  0.76876  0.81064  0.48766  1.0000
  H   H1147     1.0  0.69751  0.79819  0.97984  1.0000
  H   H1148     1.0  0.56891  0.66811  0.97899  1.0000
  C   C670      1.0  0.77291  0.78705  0.48772  1.0000
  H   H1149     1.0  0.96863  0.69523  0.54688  1.0000
  H   H1150     1.0  0.73086  0.99333  0.66267  1.0000
  H   H1151     1.0  0.61478  0.68666  0.93595  1.0000
  C   C671      1.0  0.57382  0.66200  0.94932  1.0000
  H   H1152     1.0  0.71094  0.66423  0.94934  1.0000
  C   C672      1.0  0.59620  0.70153  0.98326  1.0000
