data_image0
_chemical_formula_structural       FeS2H2Fe2HSH2C2H2C2SH6CHCHSCSCFeSFeSHC4HCH6FeSH2CHNHCH2CH3CHCH3NH2FeSFeS4HFeSH2FeH2FeS2C2H2SHFeS2FeSHFeSFeHS2H3SC7H3NHC2SH2C2H3CH3C6H4CHCHC7H6C2H3NH3C2H2FeCSNC6H13NC6HCH18FeSH2CHCH9C2HSHCHSH5CH2CSHCH6C2H4C2HCH6CNH2NH2SCSHSHCHFeS2FeSCFeSFeS3HCH2SHFeC2HFeC2H2C3H2C4H2C6H4C2H3CSCH3CHNC8H22NC4HSH2CHC2HCHCH5CFeC3HCFeHSHCH2SC2HCSCHFeCH5CH2CSC2HCHCSC3HCHC2H7SCH4C2H2CH6SH2CH2CH5NHCSNH3CSHFeHCSFeSFeSH2CHSCHCH3C2HNFeC3H3SCH3C2H2C2H4C3H2CHCH3C2HSHC2HC5H3CH4CHCHNCHCH2C2HSNHCH7CHCH3CHC3HNCHCHNSH4CH3CHCH2CH2FeHC2HCHC2HFeH3FeSHCSHFeS2FeSHFeSFeS3C3H2C2H3C2H3C6H4C2H3CHCH3NHC2H6C2HC3HCH2SH3NC6HCH10CH11C2NC2H3CH2C2H14C2SHCSCHCH4CHSHC3H4SC2SFeSFeHCFeS2FeSFeCS2CH4CHSH4CHSC6H5C3HC3H3CH6C2H2NC2FeCHCHC2H8CH4C2HSC2H2CSC3HC2H3CHCH7CHCNH6C2H2NHCH5C2HNHC2H3CH2SH6CH3C2HSFeSCHSFeSHCHCH4C3H2C6H3FeH2SCHSCH2C2H5NHCSCHSCHC4SH2CSH2FeH2CNC2HCH2CSHC2H8CH3CH4CH5CHCS3Fe2SH2FeS2HFeS2FeSHFeSFeS3CH2CH4CHCH5CH2C2NC5H2CHFeC6H10NC5HCH8SH3CH6CH4CH2C2H2CHFeH2C2H2CNH4CHC2H3C2HC2H4C2H2CHNCSC3HC2H3CH6C2H2CHC3SH2CH2CHC2H7SCSFeS2HS2CFeSH2FeHCSCHSFeSHFeS2FeSFeS3H8CH2C6H5C2H3CFeHC2H2NH5C6H6C2HC3HC2H3CH2CHC3HC2NH3CH2CH5CFeCH2C3HCH2CH9CH2C2H7C2NCHCH2SHC3HCHCH2CSH3C2HC2SH3C3H2CHFeHCHNSH8C2H6CH3C3HCH5NHCHSH2FeCFeHCH3SH7CSH2SFeSFeS2H3CH2C2H3CHCH3CH7C2HC2H3NH3C2FeCH3SHFeSHC2HCHCH2SH5CHC
_chemical_formula_sum              "Fe72 S144 H864 C504 N36"
_cell_length_a       58.8651
_cell_length_b       59.1459
_cell_length_c       29.3297
_cell_angle_alpha    89.855
_cell_angle_beta     89.8414
_cell_angle_gamma    119.811

_space_group_name_H-M_alt    "P 1"
_space_group_IT_number       1

loop_
  _space_group_symop_operation_xyz
  'x, y, z'

loop_
  _atom_site_type_symbol
  _atom_site_label
  _atom_site_symmetry_multiplicity
  _atom_site_fract_x
  _atom_site_fract_y
  _atom_site_fract_z
  _atom_site_occupancy
  Fe  Fe1       1.0  0.46557  0.28198  0.42965  1.0000
  S   S1        1.0  0.45013  0.23858  0.44580  1.0000
  S   S2        1.0  0.44571  0.29499  0.37817  1.0000
  H   H1        1.0  0.47547  0.24700  0.24311  1.0000
  H   H2        1.0  0.43153  0.18466  0.46598  1.0000
  Fe  Fe2       1.0  0.48611  0.32091  0.34870  1.0000
  Fe  Fe3       1.0  0.45480  0.32888  0.42446  1.0000
  H   H3        1.0  0.45270  0.14269  0.42960  1.0000
  S   S3        1.0  0.47126  0.31357  0.47836  1.0000
  H   H4        1.0  0.46044  0.13579  0.48597  1.0000
  H   H5        1.0  0.45361  0.11351  0.44034  1.0000
  C   C1        1.0  0.45669  0.22318  0.49236  1.0000
  C   C2        1.0  0.46323  0.13456  0.44888  1.0000
  H   H6        1.0  0.49991  0.02785  0.46305  1.0000
  H   H7        1.0  0.47842  0.18406  0.44817  1.0000
  C   C3        1.0  0.44479  0.19580  0.49310  1.0000
  C   C4        1.0  0.49715  0.25932  0.24336  1.0000
  S   S4        1.0  0.49137  0.31944  0.27176  1.0000
  H   H8        1.0  0.49932  0.13441  0.44747  1.0000
  H   H9        1.0  0.49756  0.25128  0.17199  1.0000
  H   H10       1.0  0.08221  0.31922  0.45303  1.0000
  H   H11       1.0  0.49767  0.28075  0.18476  1.0000
  H   H12       1.0  0.49913  0.32322  0.17523  1.0000
  H   H13       1.0  0.46973  0.04793  0.50081  1.0000
  C   C5        1.0  0.49243  0.14773  0.43507  1.0000
  H   H14       1.0  0.49323  0.14719  0.39712  1.0000
  C   C6        1.0  0.49866  0.19161  0.43531  1.0000
  H   H15       1.0  0.49716  0.19067  0.39740  1.0000
  S   S5        1.0  0.45533  0.10563  0.57558  1.0000
  C   C7        1.0  0.42647  0.00706  0.64100  1.0000
  S   S6        1.0  0.46232  0.11960  0.68457  1.0000
  C   C8        1.0  0.40584  0.01232  0.64462  1.0000
  Fe  Fe4       1.0  0.44948  0.08334  0.64141  1.0000
  S   S7        1.0  0.41137  0.04460  0.65239  1.0000
  Fe  Fe5       1.0  0.47182  0.14205  0.61801  1.0000
  S   S8        1.0  0.47283  0.18122  0.61100  1.0000
  H   H16       1.0  0.48664  0.02310  0.62856  1.0000
  C   C9        1.0  0.46654  0.19675  0.56430  1.0000
  C   C10       1.0  0.47352  0.23727  0.52804  1.0000
  C   C11       1.0  0.46767  0.20830  0.71385  1.0000
  C   C12       1.0  0.46486  0.03811  0.53455  1.0000
  H   H17       1.0  0.48091  0.21722  0.68430  1.0000
  C   C13       1.0  0.47821  0.22411  0.56391  1.0000
  H   H18       1.0  0.47001  0.22386  0.73764  1.0000
  H   H19       1.0  0.44638  0.02298  0.64277  1.0000
  H   H20       1.0  0.49199  0.21933  0.80260  1.0000
  H   H21       1.0  0.09152  0.32234  0.51155  1.0000
  H   H22       1.0  0.44330  0.02896  0.53887  1.0000
  H   H23       1.0  0.48278  0.25831  0.52812  1.0000
  Fe  Fe6       1.0  0.49563  0.11067  0.57823  1.0000
  S   S9        1.0  0.48925  0.08666  0.64130  1.0000
  H   H24       1.0  0.49104  0.23526  0.59144  1.0000
  H   H25       1.0  0.49934  0.11957  0.88428  1.0000
  C   C14       1.0  0.44979  0.18266  0.52857  1.0000
  H   H26       1.0  0.44743  0.19925  0.70017  1.0000
  N   N1        1.0  0.50157  0.02603  0.53680  1.0000
  H   H27       1.0  0.46414  0.17004  0.71476  1.0000
  C   C15       1.0  0.47260  0.01678  0.53787  1.0000
  H   H28       1.0  0.47378  0.05274  0.56190  1.0000
  H   H29       1.0  0.48023  0.18164  0.84510  1.0000
  C   C16       1.0  0.47110  0.18697  0.73831  1.0000
  H   H30       1.0  0.45663  0.18023  0.76664  1.0000
  H   H31       1.0  0.44022  0.16161  0.52873  1.0000
  H   H32       1.0  0.48336  0.15320  0.84930  1.0000
  C   C17       1.0  0.47832  0.16476  0.82571  1.0000
  H   H33       1.0  0.48968  0.15506  0.76203  1.0000
  C   C18       1.0  0.49648  0.17277  0.78349  1.0000
  H   H34       1.0  0.49703  0.11563  0.79974  1.0000
  H   H35       1.0  0.45756  0.15191  0.81598  1.0000
  H   H36       1.0  0.49180  0.17274  0.51791  1.0000
  N   N2        1.0  0.49829  0.19506  0.75551  1.0000
  H   H37       1.0  0.46312  0.00562  0.56926  1.0000
  H   H38       1.0  0.46255  0.00282  0.50954  1.0000
  Fe  Fe7       1.0  0.17811  0.59004  0.06657  1.0000
  S   S10       1.0  0.15185  0.59800  0.11340  1.0000
  Fe  Fe8       1.0  0.21559  0.56944  0.04783  1.0000
  S   S11       1.0  0.23806  0.55252  0.08237  1.0000
  S   S12       1.0  0.22174  0.60813  0.07185  1.0000
  S   S13       1.0  0.17162  0.55024  0.04881  1.0000
  S   S14       1.0  0.37336  0.57486  0.08391  1.0000
  H   H39       1.0  0.03097  0.57936  0.42753  1.0000
  Fe  Fe9       1.0  0.40554  0.56533  0.07666  1.0000
  S   S15       1.0  0.41319  0.54120  0.12843  1.0000
  H   H40       1.0  0.07957  0.35960  0.45492  1.0000
  H   H41       1.0  0.32595  0.56842  0.22815  1.0000
  Fe  Fe10      1.0  0.12162  0.61819  0.47162  1.0000
  H   H42       1.0  0.19252  0.60530  0.17863  1.0000
  H   H43       1.0  0.32514  0.42550  0.21118  1.0000
  Fe  Fe11      1.0  0.09302  0.63588  0.40805  1.0000
  S   S16       1.0  0.05347  0.63224  0.38817  1.0000
  S   S17       1.0  0.10329  0.60407  0.40281  1.0000
  C   C19       1.0  0.41649  0.45787  0.28328  1.0000
  C   C20       1.0  0.39596  0.40341  0.21371  1.0000
  H   H44       1.0  0.05742  0.33553  0.49268  1.0000
  H   H45       1.0  0.43677  0.47454  0.28564  1.0000
  S   S18       1.0  0.40278  0.64647  0.11381  1.0000
  H   H46       1.0  0.32924  0.57866  0.17024  1.0000
  Fe  Fe12      1.0  0.34846  0.47569  0.36706  1.0000
  S   S19       1.0  0.32473  0.43200  0.37063  1.0000
  S   S20       1.0  0.34247  0.49598  0.30610  1.0000
  Fe  Fe13      1.0  0.36944  0.47859  0.46265  1.0000
  S   S21       1.0  0.34740  0.43519  0.47233  1.0000
  H   H47       1.0  0.13094  0.57436  0.31947  1.0000
  Fe  Fe14      1.0  0.36090  0.43386  0.40110  1.0000
  S   S22       1.0  0.38015  0.41190  0.36971  1.0000
  Fe  Fe15      1.0  0.31357  0.43781  0.44162  1.0000
  H   H48       1.0  0.11302  0.34586  0.46966  1.0000
  S   S23       1.0  0.38519  0.47757  0.39337  1.0000
  S   S24       1.0  0.33516  0.48127  0.43621  1.0000
  H   H49       1.0  0.33676  0.61673  0.09126  1.0000
  H   H50       1.0  0.08457  0.39773  0.48766  1.0000
  H   H51       1.0  0.09271  0.51667  0.36838  1.0000
  S   S25       1.0  0.42670  0.34251  0.45139  1.0000
  C   C21       1.0  0.28359  0.55101  0.07408  1.0000
  C   C22       1.0  0.41429  0.36210  0.42784  1.0000
  C   C23       1.0  0.41943  0.37139  0.38290  1.0000
  C   C24       1.0  0.40898  0.38671  0.36594  1.0000
  C   C25       1.0  0.39365  0.39338  0.39378  1.0000
  C   C26       1.0  0.38900  0.38458  0.43901  1.0000
  C   C27       1.0  0.39907  0.36888  0.45571  1.0000
  H   H52       1.0  0.45251  0.66519  0.47123  1.0000
  H   H53       1.0  0.41266  0.39326  0.33085  1.0000
  H   H54       1.0  0.37710  0.38929  0.46080  1.0000
  N   N3        1.0  0.32841  0.64539  0.01816  1.0000
  H   H55       1.0  0.41630  0.41725  0.22422  1.0000
  C   C28       1.0  0.33041  0.42147  0.24528  1.0000
  C   C29       1.0  0.10366  0.53677  0.38238  1.0000
  S   S26       1.0  0.43709  0.60717  0.06872  1.0000
  H   H56       1.0  0.40725  0.47650  0.23003  1.0000
  H   H57       1.0  0.12089  0.39065  0.45168  1.0000
  C   C30       1.0  0.41411  0.54735  0.47803  1.0000
  C   C31       1.0  0.43014  0.57457  0.47543  1.0000
  H   H58       1.0  0.40518  0.53620  0.44756  1.0000
  H   H59       1.0  0.43372  0.58438  0.44283  1.0000
  H   H60       1.0  0.20231  0.64799  0.12899  1.0000
  C   C32       1.0  0.02065  0.60657  0.39905  1.0000
  H   H61       1.0  0.10441  0.52609  0.45513  1.0000
  H   H62       1.0  0.39929  0.66460  0.23851  1.0000
  H   H63       1.0  0.35929  0.46547  0.17971  1.0000
  C   C33       1.0  0.39350  0.52878  0.17776  1.0000
  C   C34       1.0  0.36765  0.52369  0.17844  1.0000
  C   C35       1.0  0.35224  0.51332  0.21790  1.0000
  C   C36       1.0  0.36249  0.50797  0.25701  1.0000
  C   C37       1.0  0.38838  0.51309  0.25644  1.0000
  C   C38       1.0  0.40378  0.52335  0.21681  1.0000
  H   H64       1.0  0.35941  0.52738  0.14832  1.0000
  H   H65       1.0  0.33218  0.50931  0.21804  1.0000
  H   H66       1.0  0.39654  0.50927  0.28655  1.0000
  H   H67       1.0  0.42381  0.52729  0.21643  1.0000
  C   C39       1.0  0.26374  0.55283  0.05105  1.0000
  H   H68       1.0  0.31873  0.42558  0.27028  1.0000
  C   C40       1.0  0.48305  0.41373  0.46378  1.0000
  H   H69       1.0  0.33860  0.60230  0.21426  1.0000
  C   C41       1.0  0.07863  0.34976  0.48784  1.0000
  C   C42       1.0  0.15603  0.60514  0.17248  1.0000
  C   C43       1.0  0.13727  0.60891  0.19584  1.0000
  C   C44       1.0  0.14054  0.61604  0.24221  1.0000
  C   C45       1.0  0.16275  0.61962  0.26557  1.0000
  C   C46       1.0  0.18135  0.61553  0.24238  1.0000
  C   C47       1.0  0.17798  0.60822  0.19613  1.0000
  H   H70       1.0  0.12023  0.60658  0.17779  1.0000
  H   H71       1.0  0.12605  0.61904  0.25968  1.0000
  H   H72       1.0  0.43746  0.61691  0.20162  1.0000
  H   H73       1.0  0.43485  0.49587  0.47510  1.0000
  H   H74       1.0  0.41203  0.63446  0.20590  1.0000
  H   H75       1.0  0.32822  0.63945  0.11707  1.0000
  C   C48       1.0  0.40596  0.45726  0.23494  1.0000
  C   C49       1.0  0.49132  0.56949  0.48895  1.0000
  H   H76       1.0  0.12474  0.54854  0.25238  1.0000
  H   H77       1.0  0.36593  0.45852  0.12374  1.0000
  H   H78       1.0  0.26420  0.46015  0.49026  1.0000
  N   N4        1.0  0.37855  0.43549  0.22576  1.0000
  H   H79       1.0  0.21043  0.47077  0.02947  1.0000
  H   H80       1.0  0.17523  0.50722  0.00850  1.0000
  H   H81       1.0  0.22989  0.66067  0.09305  1.0000
  C   C50       1.0  0.30471  0.55209  0.04980  1.0000
  C   C51       1.0  0.37573  0.40924  0.23637  1.0000
  H   H82       1.0  0.41461  0.63648  0.26625  1.0000
  H   H83       1.0  0.28270  0.54890  0.11081  1.0000
  Fe  Fe16      1.0  0.40438  0.61604  0.07039  1.0000
  C   C52       1.0  0.35976  0.43911  0.25582  1.0000
  S   S27       1.0  0.10940  0.64845  0.47855  1.0000
  N   N5        1.0  0.13257  0.54912  0.37137  1.0000
  C   C53       1.0  0.13645  0.55893  0.32277  1.0000
  C   C54       1.0  0.14830  0.57253  0.40115  1.0000
  C   C55       1.0  0.14164  0.52941  0.37483  1.0000
  C   C56       1.0  0.17836  0.58552  0.39698  1.0000
  C   C57       1.0  0.09570  0.53491  0.43307  1.0000
  C   C58       1.0  0.14250  0.51924  0.42296  1.0000
  H   H84       1.0  0.15734  0.56820  0.31223  1.0000
  H   H85       1.0  0.14386  0.56772  0.43753  1.0000
  H   H86       1.0  0.14283  0.58775  0.39457  1.0000
  H   H87       1.0  0.12868  0.51176  0.35463  1.0000
  H   H88       1.0  0.16122  0.53680  0.35856  1.0000
  H   H89       1.0  0.18555  0.57218  0.40756  1.0000
  H   H90       1.0  0.18567  0.59330  0.36238  1.0000
  H   H91       1.0  0.18736  0.60250  0.42036  1.0000
  H   H92       1.0  0.47573  0.42770  0.46311  1.0000
  H   H93       1.0  0.02754  0.65760  0.45915  1.0000
  H   H94       1.0  0.12353  0.50174  0.43183  1.0000
  H   H95       1.0  0.14783  0.53390  0.45010  1.0000
  H   H96       1.0  0.15812  0.51390  0.42410  1.0000
  N   N6        1.0  0.38420  0.59913  0.24157  1.0000
  C   C59       1.0  0.40318  0.58891  0.24248  1.0000
  C   C60       1.0  0.36960  0.59199  0.28640  1.0000
  C   C61       1.0  0.40022  0.62844  0.23783  1.0000
  C   C62       1.0  0.36637  0.58771  0.20091  1.0000
  C   C63       1.0  0.42186  0.59616  0.20111  1.0000
  C   C64       1.0  0.35597  0.56283  0.29939  1.0000
  H   H97       1.0  0.37161  0.63880  0.26653  1.0000
  C   C65       1.0  0.33864  0.58434  0.20429  1.0000
  H   H98       1.0  0.41549  0.59554  0.27375  1.0000
  H   H99       1.0  0.39252  0.56726  0.24405  1.0000
  H   H100      1.0  0.35438  0.59783  0.28735  1.0000
  H   H101      1.0  0.38314  0.60287  0.31488  1.0000
  H   H102      1.0  0.24117  0.65668  0.17120  1.0000
  H   H103      1.0  0.21309  0.65796  0.02430  1.0000
  H   H104      1.0  0.37576  0.59969  0.16997  1.0000
  H   H105      1.0  0.36327  0.56804  0.19258  1.0000
  H   H106      1.0  0.41127  0.59162  0.16824  1.0000
  H   H107      1.0  0.20663  0.51057  0.01645  1.0000
  H   H108      1.0  0.43198  0.58454  0.20247  1.0000
  H   H109      1.0  0.34533  0.54999  0.27039  1.0000
  H   H110      1.0  0.37029  0.55738  0.31255  1.0000
  H   H111      1.0  0.34156  0.55871  0.32720  1.0000
  H   H112      1.0  0.37645  0.40645  0.27373  1.0000
  H   H113      1.0  0.35615  0.39328  0.22581  1.0000
  H   H114      1.0  0.16461  0.60508  0.50353  1.0000
  H   H115      1.0  0.07409  0.52260  0.43617  1.0000
  Fe  Fe17      1.0  0.14243  0.63487  0.37517  1.0000
  S   S28       1.0  0.16819  0.62888  0.32371  1.0000
  H   H116      1.0  0.40478  0.46094  0.30964  1.0000
  H   H117      1.0  0.36390  0.45958  0.25465  1.0000
  C   C66       1.0  0.12090  0.53844  0.28594  1.0000
  H   H118      1.0  0.32418  0.40051  0.24842  1.0000
  C   C67       1.0  0.37265  0.46114  0.15968  1.0000
  H   H119      1.0  0.13425  0.41989  0.48507  1.0000
  H   H120      1.0  0.39454  0.40292  0.17603  1.0000
  H   H121      1.0  0.36232  0.43550  0.29223  1.0000
  H   H122      1.0  0.19854  0.61815  0.26026  1.0000
  H   H123      1.0  0.46314  0.50435  0.44152  1.0000
  H   H124      1.0  0.31959  0.55016  0.06779  1.0000
  H   H125      1.0  0.09511  0.54779  0.36562  1.0000
  H   H126      1.0  0.12737  0.52382  0.28269  1.0000
  H   H127      1.0  0.42013  0.45706  0.20996  1.0000
  C   C68       1.0  0.38501  0.64338  0.23708  1.0000
  C   C69       1.0  0.37267  0.43629  0.17596  1.0000
  H   H128      1.0  0.38736  0.43480  0.15418  1.0000
  S   S29       1.0  0.16160  0.64626  0.44434  1.0000
  H   H129      1.0  0.35354  0.41914  0.16662  1.0000
  C   C70       1.0  0.13159  0.39997  0.48327  1.0000
  H   H130      1.0  0.15118  0.40163  0.47953  1.0000
  S   S30       1.0  0.49417  0.35554  0.39226  1.0000
  H   H131      1.0  0.09947  0.52862  0.29180  1.0000
  H   H132      1.0  0.39267  0.47834  0.15991  1.0000
  H   H133      1.0  0.43104  0.36636  0.36095  1.0000
  H   H134      1.0  0.41739  0.44004  0.29150  1.0000
  H   H135      1.0  0.39188  0.38375  0.22489  1.0000
  C   C71       1.0  0.24763  0.41877  0.50037  1.0000
  H   H136      1.0  0.26488  0.65725  0.05769  1.0000
  H   H137      1.0  0.30519  0.60542  0.11580  1.0000
  C   C72       1.0  0.01506  0.58265  0.41830  1.0000
  S   S31       1.0  0.27216  0.41450  0.47185  1.0000
  H   H138      1.0  0.18781  0.43687  0.03087  1.0000
  C   C73       1.0  0.32104  0.62168  0.09596  1.0000
  H   H139      1.0  0.10070  0.55435  0.44662  1.0000
  H   H140      1.0  0.37442  0.64029  0.20442  1.0000
  H   H141      1.0  0.18536  0.66241  0.18657  1.0000
  H   H142      1.0  0.48747  0.56831  0.45164  1.0000
  H   H143      1.0  0.46737  0.39605  0.44687  1.0000
  H   H144      1.0  0.39484  0.36175  0.49046  1.0000
  C   C74       1.0  0.24818  0.44276  0.50511  1.0000
  C   C75       1.0  0.45442  0.51237  0.46563  1.0000
  H   H145      1.0  0.47691  0.36829  0.48933  1.0000
  H   H146      1.0  0.00342  0.62861  0.37238  1.0000
  H   H147      1.0  0.45102  0.52711  0.44834  1.0000
  H   H148      1.0  0.36229  0.64173  0.03450  1.0000
  C   C76       1.0  0.30963  0.62413  0.05002  1.0000
  C   C77       1.0  0.09234  0.33355  0.48067  1.0000
  H   H149      1.0  0.29240  0.62656  0.05796  1.0000
  C   C78       1.0  0.49282  0.38490  0.50811  1.0000
  H   H150      1.0  0.17773  0.65535  0.07813  1.0000
  H   H151      1.0  0.30154  0.60478  0.03368  1.0000
  H   H152      1.0  0.43922  0.41167  0.50316  1.0000
  H   H153      1.0  0.16369  0.66379  0.14445  1.0000
  H   H154      1.0  0.17688  0.47925  0.02505  1.0000
  H   H155      1.0  0.03819  0.36079  0.49921  1.0000
  C   C79       1.0  0.20352  0.45259  0.00995  1.0000
  N   N7        1.0  0.49675  0.54820  0.50403  1.0000
  H   H156      1.0  0.47311  0.56660  0.50564  1.0000
  H   H157      1.0  0.37197  0.50588  0.63166  1.0000
  N   N8        1.0  0.31720  0.47753  0.59770  1.0000
  H   H158      1.0  0.19261  0.50916  0.93371  1.0000
  H   H159      1.0  0.00868  0.40846  0.70233  1.0000
  S   S32       1.0  0.14795  0.53685  0.92070  1.0000
  C   C80       1.0  0.43751  0.57622  0.55677  1.0000
  S   S33       1.0  0.33201  0.55594  0.97076  1.0000
  H   H160      1.0  0.24417  0.46841  0.94020  1.0000
  S   S34       1.0  0.46545  0.61961  0.94679  1.0000
  H   H161      1.0  0.08796  0.40388  0.54653  1.0000
  C   C81       1.0  0.36826  0.65533  0.96578  1.0000
  H   H162      1.0  0.07655  0.35694  0.64414  1.0000
  Fe  Fe18      1.0  0.15900  0.47519  0.68577  1.0000
  S   S35       1.0  0.13566  0.43327  0.66301  1.0000
  S   S36       1.0  0.18020  0.49112  0.75290  1.0000
  Fe  Fe19      1.0  0.15998  0.49585  0.59067  1.0000
  S   S37       1.0  0.13708  0.45602  0.56023  1.0000
  C   C82       1.0  0.19903  0.47415  0.88759  1.0000
  Fe  Fe20      1.0  0.11125  0.44613  0.62277  1.0000
  S   S38       1.0  0.06710  0.42909  0.60998  1.0000
  Fe  Fe21      1.0  0.16317  0.44624  0.60198  1.0000
  S   S39       1.0  0.17908  0.42007  0.57671  1.0000
  S   S40       1.0  0.13294  0.48719  0.65020  1.0000
  S   S41       1.0  0.18773  0.48682  0.62775  1.0000
  H   H163      1.0  0.29684  0.64949  0.99008  1.0000
  C   C83       1.0  0.33239  0.50504  0.57913  1.0000
  H   H164      1.0  0.31342  0.61451  0.93793  1.0000
  H   H165      1.0  0.26600  0.42927  0.60023  1.0000
  S   S42       1.0  0.11103  0.58907  0.52883  1.0000
  H   H166      1.0  0.19008  0.37999  0.55620  1.0000
  Fe  Fe22      1.0  0.22248  0.61668  0.99713  1.0000
  C   C84       1.0  0.13399  0.53725  0.56245  1.0000
  C   C85       1.0  0.49652  0.37386  0.55351  1.0000
  H   H167      1.0  0.12526  0.51826  0.57844  1.0000
  Fe  Fe23      1.0  0.49102  0.63844  0.57190  1.0000
  C   C86       1.0  0.04881  0.37585  0.52542  1.0000
  C   C87       1.0  0.31299  0.43238  0.57946  1.0000
  H   H168      1.0  0.44599  0.58723  0.58742  1.0000
  H   H169      1.0  0.41877  0.53931  0.59187  1.0000
  C   C88       1.0  0.02951  0.38194  0.64977  1.0000
  C   C89       1.0  0.03468  0.40344  0.62241  1.0000
  C   C90       1.0  0.11943  0.55003  0.55795  1.0000
  H   H170      1.0  0.04554  0.38066  0.66494  1.0000
  H   H171      1.0  0.18627  0.65881  0.99789  1.0000
  C   C91       1.0  0.46436  0.61767  0.88646  1.0000
  C   C92       1.0  0.44068  0.60722  0.86292  1.0000
  C   C93       1.0  0.44069  0.60867  0.81500  1.0000
  C   C94       1.0  0.28967  0.47182  0.60771  1.0000
  H   H172      1.0  0.42239  0.59852  0.88167  1.0000
  H   H173      1.0  0.42229  0.60101  0.79710  1.0000
  C   C95       1.0  0.15751  0.52629  0.87164  1.0000
  C   C96       1.0  0.13823  0.50927  0.84111  1.0000
  C   C97       1.0  0.14497  0.49921  0.80317  1.0000
  C   C98       1.0  0.17107  0.50596  0.79584  1.0000
  C   C99       1.0  0.19041  0.52359  0.82554  1.0000
  C   C100      1.0  0.18372  0.53390  0.86306  1.0000
  H   H174      1.0  0.11792  0.50340  0.84745  1.0000
  H   H175      1.0  0.12990  0.48550  0.78069  1.0000
  H   H176      1.0  0.21068  0.52911  0.81975  1.0000
  H   H177      1.0  0.19877  0.54736  0.88581  1.0000
  C   C101      1.0  0.07943  0.35375  0.57077  1.0000
  C   C102      1.0  0.44224  0.58897  0.51474  1.0000
  H   H178      1.0  0.37358  0.64262  0.94617  1.0000
  H   H179      1.0  0.09950  0.54083  0.57060  1.0000
  H   H180      1.0  0.33645  0.46828  0.54398  1.0000
  C   C103      1.0  0.13028  0.57431  0.53606  1.0000
  S   S43       1.0  0.40021  0.55850  0.00069  1.0000
  C   C104      1.0  0.18669  0.49713  0.00380  1.0000
  H   H181      1.0  0.27694  0.43986  0.65849  1.0000
  H   H182      1.0  0.25271  0.49083  0.89260  1.0000
  H   H183      1.0  0.17083  0.44169  0.96435  1.0000
  C   C105      1.0  0.25014  0.48867  0.93017  1.0000
  H   H184      1.0  0.15974  0.43871  0.88838  1.0000
  N   N9        1.0  0.17459  0.57081  0.70623  1.0000
  C   C106      1.0  0.14623  0.56205  0.69583  1.0000
  C   C107      1.0  0.19082  0.59725  0.68431  1.0000
  C   C108      1.0  0.17781  0.57321  0.75734  1.0000
  C   C109      1.0  0.18070  0.55060  0.68778  1.0000
  C   C110      1.0  0.12553  0.53766  0.72179  1.0000
  C   C111      1.0  0.18886  0.59792  0.63197  1.0000
  C   C112      1.0  0.20573  0.58432  0.77620  1.0000
  C   C113      1.0  0.20987  0.55861  0.68116  1.0000
  H   H185      1.0  0.14172  0.57793  0.70302  1.0000
  H   H186      1.0  0.14203  0.55758  0.65892  1.0000
  H   H187      1.0  0.21187  0.60609  0.69211  1.0000
  H   H188      1.0  0.18524  0.61131  0.69846  1.0000
  H   H189      1.0  0.16996  0.58556  0.77100  1.0000
  H   H190      1.0  0.16626  0.55385  0.77411  1.0000
  H   H191      1.0  0.17177  0.53295  0.70992  1.0000
  H   H192      1.0  0.17136  0.54368  0.65383  1.0000
  H   H193      1.0  0.12391  0.54217  0.75799  1.0000
  H   H194      1.0  0.10604  0.53087  0.70610  1.0000
  H   H195      1.0  0.12955  0.52129  0.72021  1.0000
  H   H196      1.0  0.16921  0.59392  0.62085  1.0000
  H   H197      1.0  0.20304  0.61776  0.61928  1.0000
  H   H198      1.0  0.19387  0.58418  0.61524  1.0000
  H   H199      1.0  0.21364  0.57112  0.76959  1.0000
  H   H200      1.0  0.20484  0.58561  0.81392  1.0000
  H   H201      1.0  0.21938  0.60433  0.76401  1.0000
  H   H202      1.0  0.21379  0.54420  0.69863  1.0000
  H   H203      1.0  0.22427  0.57798  0.69409  1.0000
  H   H204      1.0  0.21407  0.55780  0.64438  1.0000
  H   H205      1.0  0.28997  0.48632  0.63227  1.0000
  H   H206      1.0  0.30123  0.41724  0.55388  1.0000
  N   N10       1.0  0.20219  0.47837  0.93853  1.0000
  C   C114      1.0  0.27034  0.44447  0.62625  1.0000
  C   C115      1.0  0.00914  0.41678  0.73650  1.0000
  C   C116      1.0  0.07875  0.38776  0.52143  1.0000
  C   C117      1.0  0.00342  0.36197  0.65763  1.0000
  H   H207      1.0  0.01699  0.42125  0.58254  1.0000
  S   S44       1.0  0.39935  0.61401  0.99461  1.0000
  H   H208      1.0  0.46097  0.43427  0.54562  1.0000
  H   H209      1.0  0.28272  0.60489  0.96749  1.0000
  C   C118      1.0  0.42182  0.54908  0.55931  1.0000
  H   H210      1.0  0.36276  0.47387  0.61018  1.0000
  C   C119      1.0  0.26479  0.55503  0.00354  1.0000
  C   C120      1.0  0.23077  0.49728  0.94713  1.0000
  H   H211      1.0  0.33540  0.51952  0.60610  1.0000
  C   C121      1.0  0.46267  0.39772  0.53975  1.0000
  H   H212      1.0  0.33554  0.52957  0.52115  1.0000
  C   C122      1.0  0.22642  0.39643  0.51913  1.0000
  H   H213      1.0  0.19765  0.43980  0.94064  1.0000
  H   H214      1.0  0.46718  0.66462  0.82575  1.0000
  H   H215      1.0  0.23493  0.50193  0.98371  1.0000
  H   H216      1.0  0.33189  0.43248  0.58116  1.0000
  H   H217      1.0  0.16514  0.47792  0.94498  1.0000
  C   C123      1.0  0.31733  0.45906  0.56232  1.0000
  Fe  Fe24      1.0  0.42949  0.60125  0.99313  1.0000
  C   C124      1.0  0.15603  0.58618  0.51988  1.0000
  C   C125      1.0  0.01334  0.40476  0.60372  1.0000
  C   C126      1.0  0.18622  0.49071  0.95295  1.0000
  H   H218      1.0  0.22560  0.37781  0.51578  1.0000
  C   C127      1.0  0.20616  0.39768  0.54217  1.0000
  Fe  Fe25      1.0  0.49492  0.64158  0.67600  1.0000
  H   H219      1.0  0.36574  0.48004  0.67016  1.0000
  S   S45       1.0  0.25120  0.65414  0.96202  1.0000
  H   H220      1.0  0.42144  0.64348  0.84039  1.0000
  C   C128      1.0  0.35927  0.48463  0.63761  1.0000
  H   H221      1.0  0.28017  0.47372  0.57643  1.0000
  H   H222      1.0  0.17135  0.45311  0.83344  1.0000
  S   S46       1.0  0.21968  0.57940  0.97332  1.0000
  C   C129      1.0  0.44834  0.41354  0.53702  1.0000
  C   C130      1.0  0.20635  0.42130  0.54718  1.0000
  H   H223      1.0  0.05781  0.34068  0.57073  1.0000
  C   C131      1.0  0.17072  0.45755  0.87009  1.0000
  S   S47       1.0  0.46296  0.62486  0.73063  1.0000
  C   C132      1.0  0.28577  0.55588  0.97922  1.0000
  H   H224      1.0  0.35239  0.50971  0.56816  1.0000
  Fe  Fe26      1.0  0.17625  0.56302  0.97520  1.0000
  C   C133      1.0  0.46431  0.62061  0.79012  1.0000
  H   H225      1.0  0.31991  0.45770  0.65859  1.0000
  H   H226      1.0  0.08040  0.38489  0.61425  1.0000
  H   H227      1.0  0.28648  0.55762  0.94244  1.0000
  H   H228      1.0  0.41627  0.64389  0.52587  1.0000
  H   H229      1.0  0.25135  0.44352  0.63369  1.0000
  C   C134      1.0  0.48799  0.63039  0.81355  1.0000
  H   H230      1.0  0.24930  0.55571  0.98537  1.0000
  H   H231      1.0  0.44489  0.65280  0.91146  1.0000
  C   C135      1.0  0.33016  0.47700  0.64170  1.0000
  S   S48       1.0  0.48654  0.66390  0.62284  1.0000
  C   C136      1.0  0.15956  0.54887  0.54545  1.0000
  C   C137      1.0  0.19260  0.45234  0.96178  1.0000
  H   H232      1.0  0.10796  0.37953  0.62166  1.0000
  C   C138      1.0  0.48796  0.62880  0.86153  1.0000
  H   H233      1.0  0.50061  0.35784  0.54579  1.0000
  C   C139      1.0  0.41866  0.65570  0.86596  1.0000
  S   S49       1.0  0.17815  0.53326  0.55023  1.0000
  C   C140      1.0  0.42493  0.66502  0.51816  1.0000
  C   C141      1.0  0.30594  0.55470  0.00230  1.0000
  C   C142      1.0  0.17059  0.57337  0.52426  1.0000
  H   H234      1.0  0.04932  0.42676  0.75052  1.0000
  C   C143      1.0  0.29948  0.62088  0.94909  1.0000
  H   H235      1.0  0.23657  0.51641  0.93059  1.0000
  C   C144      1.0  0.08666  0.37007  0.61476  1.0000
  C   C145      1.0  0.31263  0.64582  0.97807  1.0000
  H   H236      1.0  0.43193  0.40532  0.56203  1.0000
  H   H237      1.0  0.40110  0.64221  0.88619  1.0000
  H   H238      1.0  0.20972  0.46426  0.87507  1.0000
  H   H239      1.0  0.02619  0.39374  0.76360  1.0000
  H   H240      1.0  0.30240  0.42538  0.61212  1.0000
  H   H241      1.0  0.20791  0.49315  0.86910  1.0000
  H   H242      1.0  0.30246  0.45522  0.53567  1.0000
  S   S50       1.0  0.17923  0.60135  0.99279  1.0000
  C   C146      1.0  0.22757  0.44404  0.52857  1.0000
  H   H243      1.0  0.29122  0.62474  0.91794  1.0000
  H   H244      1.0  0.32902  0.49046  0.66698  1.0000
  H   H245      1.0  0.46671  0.39660  0.57649  1.0000
  H   H246      1.0  0.26973  0.50159  0.94525  1.0000
  C   C147      1.0  0.32032  0.51134  0.53772  1.0000
  C   C148      1.0  0.49487  0.55521  0.59040  1.0000
  H   H247      1.0  0.35994  0.66297  0.94048  1.0000
  H   H248      1.0  0.15982  0.46837  0.87171  1.0000
  C   C149      1.0  0.34950  0.63920  0.00483  1.0000
  H   H249      1.0  0.12705  0.37200  0.53619  1.0000
  H   H250      1.0  0.47860  0.36528  0.57497  1.0000
  H   H251      1.0  0.34106  0.61817  0.99627  1.0000
  H   H252      1.0  0.47405  0.50736  0.52357  1.0000
  H   H253      1.0  0.30422  0.51481  0.54846  1.0000
  H   H254      1.0  0.22797  0.46244  0.53182  1.0000
  S   S51       1.0  0.39225  0.50058  0.52428  1.0000
  H   H255      1.0  0.01753  0.43808  0.73070  1.0000
  H   H256      1.0  0.08761  0.34049  0.57484  1.0000
  C   C150      1.0  0.11826  0.38430  0.52709  1.0000
  H   H257      1.0  0.04145  0.36768  0.55986  1.0000
  H   H258      1.0  0.45792  0.52549  0.53414  1.0000
  C   C151      1.0  0.41032  0.53460  0.51996  1.0000
  H   H259      1.0  0.12512  0.39898  0.55483  1.0000
  H   H260      1.0  0.48061  0.53542  0.60311  1.0000
  H   H261      1.0  0.02976  0.41976  0.80115  1.0000
  H   H262      1.0  0.04387  0.39152  0.52013  1.0000
  H   H263      1.0  0.44786  0.37745  0.52978  1.0000
  N   N11       1.0  0.48736  0.40724  0.51167  1.0000
  H   H264      1.0  0.31297  0.49581  0.51169  1.0000
  C   C152      1.0  0.02951  0.41392  0.76519  1.0000
  S   S52       1.0  0.46467  0.62247  0.51042  1.0000
  N   N12       1.0  0.08880  0.36892  0.52672  1.0000
  H   H265      1.0  0.32426  0.66210  0.95422  1.0000
  H   H266      1.0  0.48426  0.56571  0.58193  1.0000
  H   H267      1.0  0.21940  0.44764  0.00808  1.0000
  C   C153      1.0  0.47094  0.52311  0.50931  1.0000
  S   S53       1.0  0.49616  0.61408  0.62476  1.0000
  H   H268      1.0  0.19044  0.58246  0.51128  1.0000
  Fe  Fe27      1.0  0.37047  0.57181  0.00785  1.0000
  H   H269      1.0  0.21783  0.72597  0.04838  1.0000
  C   C154      1.0  0.06832  0.68683  0.46969  1.0000
  S   S54       1.0  0.40494  0.77459  0.08425  1.0000
  Fe  Fe28      1.0  0.37071  0.77399  0.04965  1.0000
  S   S55       1.0  0.33198  0.74752  0.08364  1.0000
  Fe  Fe29      1.0  0.42557  0.81757  0.07200  1.0000
  S   S56       1.0  0.45593  0.84690  0.12070  1.0000
  H   H270      1.0  0.13616  0.72074  0.39292  1.0000
  H   H271      1.0  0.43716  0.71177  0.49383  1.0000
  C   C155      1.0  0.09434  0.70821  0.40172  1.0000
  H   H272      1.0  0.03341  0.69009  0.45309  1.0000
  S   S57       1.0  0.17396  0.71957  0.46350  1.0000
  C   C156      1.0  0.42764  0.72002  0.03001  1.0000
  H   H273      1.0  0.04286  0.67516  0.40844  1.0000
  C   C157      1.0  0.44428  0.75537  0.16997  1.0000
  H   H274      1.0  0.19860  0.71056  0.12699  1.0000
  H   H275      1.0  0.48624  0.75141  0.44027  1.0000
  H   H276      1.0  0.36488  0.84338  0.41745  1.0000
  C   C158      1.0  0.19401  0.67465  0.06661  1.0000
  C   C159      1.0  0.41366  0.67542  0.08305  1.0000
  H   H277      1.0  0.23061  0.67808  0.19252  1.0000
  N   N13       1.0  0.21467  0.68682  0.10308  1.0000
  Fe  Fe30      1.0  0.14846  0.67597  0.44593  1.0000
  C   C160      1.0  0.45830  0.84030  0.17892  1.0000
  C   C161      1.0  0.44298  0.81184  0.24541  1.0000
  C   C162      1.0  0.43947  0.81729  0.20004  1.0000
  H   H278      1.0  0.42849  0.79384  0.26128  1.0000
  H   H279      1.0  0.42232  0.80359  0.18129  1.0000
  H   H280      1.0  0.22938  0.81213  0.49715  1.0000
  S   S58       1.0  0.46946  0.82058  0.32599  1.0000
  C   C163      1.0  0.30477  0.81571  0.46773  1.0000
  H   H281      1.0  0.31454  0.76320  0.46838  1.0000
  H   H282      1.0  0.39341  0.68922  0.12600  1.0000
  H   H283      1.0  0.07677  0.73285  0.49357  1.0000
  C   C164      1.0  0.29421  0.69713  0.06920  1.0000
  C   C165      1.0  0.31016  0.72162  0.04934  1.0000
  H   H284      1.0  0.12029  0.72271  0.34280  1.0000
  H   H285      1.0  0.29600  0.69428  0.10517  1.0000
  C   C166      1.0  0.45471  0.71575  0.47366  1.0000
  C   C167      1.0  0.43677  0.70300  0.01849  1.0000
  H   H286      1.0  0.49486  0.87600  0.18803  1.0000
  H   H287      1.0  0.28320  0.80201  0.46787  1.0000
  H   H288      1.0  0.12891  0.74687  0.38585  1.0000
  H   H289      1.0  0.29909  0.78697  0.39173  1.0000
  C   C168      1.0  0.45988  0.77716  0.13478  1.0000
  C   C169      1.0  0.49606  0.80855  0.05646  1.0000
  C   C170      1.0  0.33476  0.78503  0.38687  1.0000
  H   H290      1.0  0.32801  0.81724  0.38614  1.0000
  H   H291      1.0  0.07989  0.71050  0.38069  1.0000
  C   C171      1.0  0.30891  0.83867  0.43709  1.0000
  H   H292      1.0  0.25871  0.69008  0.15467  1.0000
  C   C172      1.0  0.48775  0.75251  0.09404  1.0000
  H   H293      1.0  0.09028  0.68795  0.39535  1.0000
  H   H294      1.0  0.33526  0.78580  0.34899  1.0000
  H   H295      1.0  0.45336  0.76832  0.10072  1.0000
  C   C173      1.0  0.23708  0.73218  0.06412  1.0000
  C   C174      1.0  0.31958  0.79835  0.40446  1.0000
  H   H296      1.0  0.29922  0.83170  0.40358  1.0000
  S   S59       1.0  0.39022  0.81771  0.04273  1.0000
  H   H297      1.0  0.40495  0.72800  0.07819  1.0000
  C   C175      1.0  0.18054  0.67554  0.16713  1.0000
  C   C176      1.0  0.34668  0.81533  0.47531  1.0000
  H   H298      1.0  0.25457  0.71825  0.11174  1.0000
  C   C177      1.0  0.46517  0.82941  0.27029  1.0000
  C   C178      1.0  0.20344  0.66982  0.02044  1.0000
  C   C179      1.0  0.20446  0.69665  0.14076  1.0000
  C   C180      1.0  0.12156  0.72592  0.38024  1.0000
  C   C181      1.0  0.23956  0.70941  0.08455  1.0000
  H   H299      1.0  0.24068  0.74700  0.09057  1.0000
  H   H300      1.0  0.18436  0.68640  0.05984  1.0000
  H   H301      1.0  0.35565  0.80259  0.47558  1.0000
  C   C182      1.0  0.36667  0.84192  0.45465  1.0000
  H   H302      1.0  0.22010  0.70815  0.16596  1.0000
  H   H303      1.0  0.29945  0.84880  0.45368  1.0000
  H   H304      1.0  0.45540  0.82941  0.50493  1.0000
  H   H305      1.0  0.10548  0.76622  0.41119  1.0000
  C   C183      1.0  0.20571  0.77111  0.48361  1.0000
  H   H306      1.0  0.44685  0.70582  0.44045  1.0000
  C   C184      1.0  0.20081  0.74582  0.49289  1.0000
  H   H307      1.0  0.36556  0.85804  0.47193  1.0000
  N   N14       1.0  0.09094  0.71199  0.45179  1.0000
  C   C185      1.0  0.04174  0.67729  0.44577  1.0000
  H   H308      1.0  0.30951  0.82344  0.50297  1.0000
  C   C186      1.0  0.27642  0.67620  0.04243  1.0000
  H   H309      1.0  0.38672  0.84496  0.45972  1.0000
  H   H310      1.0  0.45613  0.75111  0.44833  1.0000
  C   C187      1.0  0.30480  0.77471  0.47631  1.0000
  C   C188      1.0  0.40559  0.69308  0.09603  1.0000
  H   H311      1.0  0.42351  0.74409  0.15905  1.0000
  S   S60       1.0  0.49558  0.82865  0.44656  1.0000
  N   N15       1.0  0.48925  0.79104  0.13962  1.0000
  H   H312      1.0  0.35540  0.79514  0.39844  1.0000
  C   C189      1.0  0.45366  0.67580  0.50330  1.0000
  H   H313      1.0  0.19352  0.77397  0.45941  1.0000
  H   H314      1.0  0.44416  0.76361  0.20390  1.0000
  H   H315      1.0  0.35467  0.67249  0.06843  1.0000
  H   H316      1.0  0.24911  0.70301  0.05891  1.0000
  H   H317      1.0  0.17401  0.68507  0.19249  1.0000
  H   H318      1.0  0.32977  0.85329  0.43206  1.0000
  H   H319      1.0  0.48543  0.81248  0.19602  1.0000
  C   C190      1.0  0.49555  0.80141  0.18774  1.0000
  H   H320      1.0  0.45281  0.79141  0.13730  1.0000
  C   C191      1.0  0.41218  0.71511  0.06904  1.0000
  H   H321      1.0  0.45182  0.74161  0.17306  1.0000
  H   H322      1.0  0.47937  0.75795  0.06527  1.0000
  H   H323      1.0  0.06458  0.68840  0.50638  1.0000
  C   C192      1.0  0.50055  0.77335  0.13176  1.0000
  H   H324      1.0  0.32504  0.76412  0.39640  1.0000
  C   C193      1.0  0.46966  0.74544  0.46441  1.0000
  C   C194      1.0  0.48372  0.85271  0.24956  1.0000
  C   C195      1.0  0.08427  0.73328  0.45847  1.0000
  H   H325      1.0  0.25173  0.74151  0.03626  1.0000
  N   N16       1.0  0.47028  0.70490  0.49625  1.0000
  C   C196      1.0  0.48026  0.85810  0.20404  1.0000
  H   H326      1.0  0.49449  0.82819  0.11695  1.0000
  C   C197      1.0  0.42950  0.68051  0.04451  1.0000
  H   H327      1.0  0.48523  0.70422  0.42869  1.0000
  N   N17       1.0  0.31951  0.80166  0.45544  1.0000
  S   S61       1.0  0.13116  0.66608  0.37505  1.0000
  H   H328      1.0  0.47498  0.79718  0.04822  1.0000
  H   H329      1.0  0.06749  0.72981  0.43642  1.0000
  H   H330      1.0  0.28468  0.76358  0.46180  1.0000
  H   H331      1.0  0.11868  0.70036  0.47293  1.0000
  C   C198      1.0  0.22618  0.79289  0.50513  1.0000
  H   H332      1.0  0.48822  0.78525  0.21313  1.0000
  H   H333      1.0  0.13298  0.73406  0.46492  1.0000
  H   H334      1.0  0.47681  0.75688  0.49627  1.0000
  C   C199      1.0  0.11498  0.71687  0.47793  1.0000
  H   H335      1.0  0.07295  0.67072  0.46746  1.0000
  C   C200      1.0  0.49249  0.70980  0.46425  1.0000
  H   H336      1.0  0.47260  0.73360  0.10872  1.0000
  H   H337      1.0  0.12580  0.76573  0.45690  1.0000
  C   C201      1.0  0.10587  0.76144  0.44773  1.0000
  H   H338      1.0  0.43619  0.66715  0.03488  1.0000
  H   H339      1.0  0.10249  0.77512  0.46872  1.0000
  Fe  Fe31      1.0  0.41729  0.77135  0.01349  1.0000
  H   H340      1.0  0.32426  0.67169  0.06426  1.0000
  C   C202      1.0  0.23884  0.67365  0.16203  1.0000
  C   C203      1.0  0.33974  0.67087  0.04358  1.0000
  H   H341      1.0  0.36098  0.71308  0.03869  1.0000
  C   C204      1.0  0.35260  0.69621  0.01508  1.0000
  H   H342      1.0  0.49596  0.67430  0.46846  1.0000
  C   C205      1.0  0.22061  0.66629  0.12031  1.0000
  C   C206      1.0  0.50126  0.81419  0.10771  1.0000
  H   H343      1.0  0.41313  0.66666  0.49023  1.0000
  Fe  Fe32      1.0  0.50131  0.84637  0.37630  1.0000
  H   H344      1.0  0.50086  0.86638  0.26837  1.0000
  H   H345      1.0  0.49877  0.76221  0.16356  1.0000
  H   H346      1.0  0.42983  0.70856  0.87693  1.0000
  Fe  Fe33      1.0  0.40341  0.81098  0.97418  1.0000
  S   S62       1.0  0.40969  0.83427  0.90866  1.0000
  H   H347      1.0  0.45252  0.80722  0.66543  1.0000
  C   C207      1.0  0.47026  0.68467  0.82873  1.0000
  S   S63       1.0  0.38137  0.76719  0.97930  1.0000
  H   H348      1.0  0.11078  0.73720  0.53783  1.0000
  Fe  Fe34      1.0  0.33055  0.83862  0.69852  1.0000
  S   S64       1.0  0.31684  0.86395  0.66422  1.0000
  S   S65       1.0  0.32149  0.82422  0.77166  1.0000
  Fe  Fe35      1.0  0.35573  0.83350  0.61236  1.0000
  S   S66       1.0  0.34469  0.85854  0.57148  1.0000
  H   H349      1.0  0.38112  0.77558  0.75214  1.0000
  Fe  Fe36      1.0  0.35735  0.88516  0.63252  1.0000
  S   S67       1.0  0.39039  0.92793  0.62800  1.0000
  Fe  Fe37      1.0  0.30516  0.83507  0.60564  1.0000
  S   S68       1.0  0.26808  0.81957  0.56157  1.0000
  S   S69       1.0  0.37131  0.86120  0.67089  1.0000
  S   S70       1.0  0.31593  0.80871  0.64280  1.0000
  C   C208      1.0  0.39542  0.96014  0.63418  1.0000
  C   C209      1.0  0.37477  0.96539  0.63758  1.0000
  C   C210      1.0  0.42127  0.98115  0.63609  1.0000
  H   H350      1.0  0.35480  0.94961  0.63527  1.0000
  H   H351      1.0  0.43737  0.97730  0.63410  1.0000
  C   C211      1.0  0.49646  0.70280  0.80446  1.0000
  C   C212      1.0  0.24248  0.79018  0.53677  1.0000
  H   H352      1.0  0.46750  0.96907  0.55502  1.0000
  H   H353      1.0  0.45347  0.87108  0.73192  1.0000
  H   H354      1.0  0.24965  0.76219  0.57169  1.0000
  C   C213      1.0  0.44782  0.87326  0.56841  1.0000
  C   C214      1.0  0.42117  0.85798  0.57942  1.0000
  H   H355      1.0  0.44781  0.87201  0.67301  1.0000
  H   H356      1.0  0.45883  0.89308  0.58060  1.0000
  H   H357      1.0  0.41171  0.86608  0.60001  1.0000
  C   C215      1.0  0.38466  0.83101  0.87142  1.0000
  C   C216      1.0  0.39166  0.84690  0.83231  1.0000
  C   C217      1.0  0.37258  0.84442  0.80085  1.0000
  C   C218      1.0  0.34616  0.82653  0.80889  1.0000
  C   C219      1.0  0.33907  0.81095  0.84837  1.0000
  C   C220      1.0  0.35826  0.81296  0.87932  1.0000
  H   H358      1.0  0.41197  0.86127  0.82647  1.0000
  H   H359      1.0  0.37826  0.85675  0.77096  1.0000
  H   H360      1.0  0.31864  0.79720  0.85503  1.0000
  H   H361      1.0  0.35262  0.80071  0.90944  1.0000
  C   C221      1.0  0.43591  0.80643  0.64647  1.0000
  C   C222      1.0  0.41941  0.82197  0.53743  1.0000
  H   H362      1.0  0.46012  0.85176  0.69214  1.0000
  H   H363      1.0  0.45091  0.82372  0.81551  1.0000
  H   H364      1.0  0.47421  0.73496  0.60024  1.0000
  C   C223      1.0  0.44638  0.85867  0.70104  1.0000
  H   H365      1.0  0.29401  0.78586  0.54181  1.0000
  C   C224      1.0  0.40708  0.83220  0.56451  1.0000
  H   H366      1.0  0.44134  0.82575  0.63175  1.0000
  H   H367      1.0  0.28829  0.70725  0.94010  1.0000
  H   H368      1.0  0.38650  0.67180  0.97958  1.0000
  N   N18       1.0  0.46797  0.69045  0.87812  1.0000
  H   H369      1.0  0.41630  0.80921  0.81931  1.0000
  C   C225      1.0  0.44247  0.66915  0.89818  1.0000
  C   C226      1.0  0.11450  0.72104  0.52971  1.0000
  H   H370      1.0  0.49481  0.69680  0.76815  1.0000
  H   H371      1.0  0.45404  0.74147  0.86614  1.0000
  H   H372      1.0  0.42284  0.67425  0.54932  1.0000
  H   H373      1.0  0.10028  0.70294  0.54772  1.0000
  H   H374      1.0  0.46992  0.72144  0.92021  1.0000
  H   H375      1.0  0.34912  0.89984  0.88084  1.0000
  C   C227      1.0  0.23775  0.76484  0.54660  1.0000
  C   C228      1.0  0.43347  0.82174  0.79738  1.0000
  H   H376      1.0  0.35667  0.77699  0.68506  1.0000
  C   C229      1.0  0.48763  0.97966  0.56915  1.0000
  C   C230      1.0  0.36155  0.79153  0.71253  1.0000
  C   C231      1.0  0.38524  0.79530  0.74094  1.0000
  H   H377      1.0  0.32116  0.88153  0.84382  1.0000
  C   C232      1.0  0.41063  0.79546  0.67510  1.0000
  H   H378      1.0  0.40685  0.83719  0.67533  1.0000
  H   H379      1.0  0.43577  0.84144  0.79489  1.0000
  S   S71       1.0  0.49387  0.88222  0.52998  1.0000
  H   H380      1.0  0.50130  0.72344  0.80454  1.0000
  H   H381      1.0  0.36888  0.69821  0.99342  1.0000
  H   H382      1.0  0.40939  0.84436  0.73445  1.0000
  N   N19       1.0  0.36334  0.91959  0.78688  1.0000
  C   C233      1.0  0.35980  0.89530  0.81040  1.0000
  C   C234      1.0  0.37959  0.92358  0.74459  1.0000
  C   C235      1.0  0.33645  0.91506  0.77415  1.0000
  C   C236      1.0  0.37676  0.94199  0.81966  1.0000
  C   C237      1.0  0.34128  0.88585  0.85220  1.0000
  C   C238      1.0  0.40702  0.92686  0.75191  1.0000
  H   H383      1.0  0.44913  0.70703  0.98903  1.0000
  C   C239      1.0  0.38502  0.96930  0.80062  1.0000
  H   H384      1.0  0.35211  0.87888  0.78579  1.0000
  H   H385      1.0  0.37878  0.89789  0.82283  1.0000
  H   H386      1.0  0.38274  0.94099  0.72507  1.0000
  H   H387      1.0  0.36892  0.90686  0.72093  1.0000
  H   H388      1.0  0.32273  0.89397  0.76741  1.0000
  H   H389      1.0  0.32750  0.92020  0.80295  1.0000
  H   H390      1.0  0.36394  0.93923  0.84954  1.0000
  H   H391      1.0  0.39459  0.94272  0.83401  1.0000
  H   H392      1.0  0.32083  0.77933  0.54573  1.0000
  H   H393      1.0  0.49216  0.71103  0.96802  1.0000
  C   C240      1.0  0.46338  0.71768  0.57796  1.0000
  H   H394      1.0  0.40598  0.90860  0.76408  1.0000
  H   H395      1.0  0.41741  0.93153  0.71853  1.0000
  H   H396      1.0  0.41920  0.94320  0.77508  1.0000
  H   H397      1.0  0.49715  0.73906  0.53467  1.0000
  H   H398      1.0  0.46285  0.66896  0.52895  1.0000
  H   H399      1.0  0.45623  0.69986  0.59934  1.0000
  H   H400      1.0  0.39880  0.97477  0.77143  1.0000
  H   H401      1.0  0.49481  0.96547  0.57008  1.0000
  H   H402      1.0  0.36786  0.97119  0.79115  1.0000
  H   H403      1.0  0.36450  0.81004  0.69783  1.0000
  H   H404      1.0  0.44669  0.71929  0.56484  1.0000
  C   C241      1.0  0.43142  0.80941  0.75019  1.0000
  C   C242      1.0  0.30193  0.77362  0.52876  1.0000
  N   N20       1.0  0.41177  0.81002  0.71798  1.0000
  C   C243      1.0  0.27387  0.67988  0.99603  1.0000
  C   C244      1.0  0.28998  0.70434  0.97611  1.0000
  H   H405      1.0  0.43228  0.79338  0.61687  1.0000
  H   H406      1.0  0.48976  0.73246  0.87098  1.0000
  H   H407      1.0  0.38467  0.80536  0.77252  1.0000
  C   C245      1.0  0.44593  0.83743  0.52560  1.0000
  H   H408      1.0  0.40438  0.77475  0.68326  1.0000
  H   H409      1.0  0.48677  0.98520  0.60477  1.0000
  C   C246      1.0  0.30823  0.72517  0.00266  1.0000
  C   C247      1.0  0.41734  0.83727  0.70695  1.0000
  H   H410      1.0  0.28808  0.75325  0.53944  1.0000
  H   H411      1.0  0.39570  0.79484  0.65131  1.0000
  H   H412      1.0  0.33700  0.91990  0.69979  1.0000
  H   H413      1.0  0.45474  0.68479  0.80757  1.0000
  H   H414      1.0  0.33957  0.86729  0.86471  1.0000
  H   H415      1.0  0.45144  0.81912  0.73566  1.0000
  H   H416      1.0  0.34405  0.78394  0.73512  1.0000
  H   H417      1.0  0.49332  0.70999  0.55674  1.0000
  H   H418      1.0  0.42672  0.78891  0.75628  1.0000
  H   H419      1.0  0.33809  0.69830  0.99417  1.0000
  H   H420      1.0  0.39548  0.98393  0.82769  1.0000
  H   H421      1.0  0.31445  0.92656  0.72924  1.0000
  H   H422      1.0  0.44827  0.71772  0.82356  1.0000
  H   H423      1.0  0.40854  0.80202  0.52581  1.0000
  C   C248      1.0  0.46025  0.86301  0.54152  1.0000
  C   C249      1.0  0.44924  0.72096  0.86085  1.0000
  S   S72       1.0  0.37446  0.81203  0.58137  1.0000
  H   H424      1.0  0.13410  0.72646  0.54374  1.0000
  C   C250      1.0  0.21704  0.74273  0.52460  1.0000
  S   S73       1.0  0.43576  0.74705  0.99479  1.0000
  C   C251      1.0  0.37998  0.99127  0.64318  1.0000
  H   H425      1.0  0.32045  0.74409  0.98719  1.0000
  C   C252      1.0  0.33439  0.92897  0.73101  1.0000
  H   H426      1.0  0.34855  0.95008  0.73003  1.0000
  H   H427      1.0  0.47138  0.67587  0.97136  1.0000
  H   H428      1.0  0.36385  0.99507  0.64584  1.0000
  H   H429      1.0  0.21688  0.68828  0.00250  1.0000
  C   C253      1.0  0.47043  0.71691  0.88369  1.0000
  H   H430      1.0  0.49144  0.67284  0.89558  1.0000
  S   S74       1.0  0.44041  0.81447  0.00299  1.0000
  H   H431      1.0  0.43643  0.67641  0.92819  1.0000
  C   C254      1.0  0.48213  0.71840  0.54054  1.0000
  C   C255      1.0  0.49032  0.69061  0.90366  1.0000
  C   C256      1.0  0.48947  0.69208  0.95624  1.0000
  H   H432      1.0  0.21345  0.72336  0.53255  1.0000
  H   H433      1.0  0.41422  0.66945  0.84792  1.0000
  H   H434      1.0  0.34569  0.81917  0.51207  1.0000
  H   H435      1.0  0.67526  0.25898  0.06104  1.0000
  S   S75       1.0  0.62919  0.21434  0.08330  1.0000
  C   C257      1.0  0.69457  0.26869  0.04623  1.0000
  C   C258      1.0  0.54914  0.30332  0.22447  1.0000
  S   S76       1.0  0.58885  0.24836  0.10113  1.0000
  Fe  Fe38      1.0  0.60248  0.17122  0.07919  1.0000
  S   S77       1.0  0.60460  0.14200  0.12746  1.0000
  Fe  Fe39      1.0  0.65012  0.12778  0.46916  1.0000
  H   H436      1.0  0.74879  0.23281  0.03626  1.0000
  C   C259      1.0  0.68036  0.32575  0.03056  1.0000
  Fe  Fe40      1.0  0.66682  0.14703  0.37215  1.0000
  S   S78       1.0  0.69641  0.13338  0.37126  1.0000
  S   S79       1.0  0.66300  0.17294  0.31866  1.0000
  Fe  Fe41      1.0  0.66432  0.09661  0.40483  1.0000
  S   S80       1.0  0.65751  0.05684  0.38028  1.0000
  Fe  Fe42      1.0  0.70764  0.15059  0.44196  1.0000
  C   C260      1.0  0.51317  0.22058  0.44861  1.0000
  S   S81       1.0  0.63415  0.10947  0.40098  1.0000
  S   S82       1.0  0.68011  0.16639  0.44067  1.0000
  C   C261      1.0  0.59059  0.31321  0.05333  1.0000
  H   H437      1.0  0.58939  0.31002  0.21556  1.0000
  H   H438      1.0  0.50497  0.24737  0.25794  1.0000
  H   H439      1.0  0.54605  0.05773  0.44664  1.0000
  H   H440      1.0  0.59646  0.11946  0.45340  1.0000
  C   C262      1.0  0.63667  0.02221  0.38203  1.0000
  H   H441      1.0  0.53379  0.23109  0.43689  1.0000
  S   S83       1.0  0.56654  0.17457  0.06686  1.0000
  H   H442      1.0  0.54384  0.03077  0.47775  1.0000
  H   H443      1.0  0.66007  0.01758  0.33046  1.0000
  H   H444      1.0  0.60898  0.01976  0.43288  1.0000
  H   H445      1.0  0.53621  0.25150  0.15306  1.0000
  C   C263      1.0  0.78287  0.25146  0.48741  1.0000
  H   H446      1.0  0.54563  0.29365  0.25818  1.0000
  S   S84       1.0  0.50505  0.30551  0.39661  1.0000
  C   C264      1.0  0.61932  0.15045  0.18194  1.0000
  C   C265      1.0  0.62906  0.17546  0.19978  1.0000
  C   C266      1.0  0.64207  0.18189  0.24200  1.0000
  C   C267      1.0  0.64514  0.16331  0.26711  1.0000
  C   C268      1.0  0.63485  0.13811  0.24982  1.0000
  C   C269      1.0  0.62211  0.13176  0.20729  1.0000
  H   H447      1.0  0.62676  0.18992  0.18089  1.0000
  H   H448      1.0  0.64980  0.20136  0.25537  1.0000
  H   H449      1.0  0.63716  0.12379  0.26894  1.0000
  H   H450      1.0  0.61469  0.11245  0.19352  1.0000
  H   H451      1.0  0.85873  0.32982  0.42769  1.0000
  C   C270      1.0  0.59346  0.29541  0.08085  1.0000
  C   C271      1.0  0.58395  0.05147  0.29860  1.0000
  C   C272      1.0  0.55006  0.16883  0.44366  1.0000
  H   H452      1.0  0.60217  0.30130  0.11423  1.0000
  C   C273      1.0  0.74036  0.30229  0.05076  1.0000
  C   C274      1.0  0.71535  0.28870  0.07038  1.0000
  C   C275      1.0  0.58561  0.27031  0.06507  1.0000
  H   H453      1.0  0.71203  0.29380  0.10420  1.0000
  H   H454      1.0  0.69074  0.17738  0.20074  1.0000
  H   H455      1.0  0.67057  0.16561  0.15046  1.0000
  C   C276      1.0  0.50680  0.26878  0.19427  1.0000
  H   H456      1.0  0.72972  0.25196  0.08588  1.0000
  H   H457      1.0  0.75045  0.22114  0.44953  1.0000
  H   H458      1.0  0.75796  0.21967  0.08454  1.0000
  H   H459      1.0  0.69222  0.15411  0.16512  1.0000
  H   H460      1.0  0.55110  0.11158  0.44587  1.0000
  H   H461      1.0  0.64682  0.29385  0.06757  1.0000
  C   C277      1.0  0.69715  0.20080  0.06337  1.0000
  C   C278      1.0  0.61421  0.00884  0.40978  1.0000
  H   H462      1.0  0.53180  0.29805  0.07086  1.0000
  H   H463      1.0  0.57495  0.02691  0.36057  1.0000
  N   N21       1.0  0.70790  0.21193  0.10975  1.0000
  C   C279      1.0  0.73336  0.23709  0.10229  1.0000
  C   C280      1.0  0.68939  0.21880  0.13347  1.0000
  Fe  Fe43      1.0  0.59407  0.21776  0.06444  1.0000
  C   C281      1.0  0.71338  0.19358  0.13735  1.0000
  H   H464      1.0  0.55494  0.06199  0.50506  1.0000
  C   C282      1.0  0.69896  0.23312  0.17933  1.0000
  H   H465      1.0  0.67079  0.15888  0.07584  1.0000
  C   C283      1.0  0.69015  0.17177  0.16443  1.0000
  C   C284      1.0  0.53660  0.18477  0.43154  1.0000
  H   H466      1.0  0.74303  0.24571  0.13531  1.0000
  H   H467      1.0  0.67006  0.20152  0.14001  1.0000
  H   H468      1.0  0.68505  0.23134  0.11106  1.0000
  H   H469      1.0  0.56275  0.04460  0.29410  1.0000
  H   H470      1.0  0.55047  0.20522  0.44068  1.0000
  H   H471      1.0  0.72156  0.18410  0.11512  1.0000
  H   H472      1.0  0.72872  0.20477  0.16326  1.0000
  H   H473      1.0  0.59393  0.07288  0.29218  1.0000
  C   C285      1.0  0.64071  0.07576  0.27287  1.0000
  H   H474      1.0  0.71046  0.19568  0.04486  1.0000
  H   H475      1.0  0.71453  0.25369  0.17418  1.0000
  H   H476      1.0  0.68241  0.23372  0.19647  1.0000
  H   H477      1.0  0.70593  0.22317  0.20279  1.0000
  C   C286      1.0  0.54716  0.26615  0.17991  1.0000
  C   C287      1.0  0.54098  0.29967  0.14289  1.0000
  H   H478      1.0  0.64027  0.08541  0.24070  1.0000
  S   S85       1.0  0.67814  0.11261  0.47496  1.0000
  C   C288      1.0  0.58548  0.11878  0.48346  1.0000
  C   C289      1.0  0.58748  0.04743  0.34955  1.0000
  H   H479      1.0  0.54885  0.03755  0.22247  1.0000
  H   H480      1.0  0.60156  0.04219  0.19218  1.0000
  C   C290      1.0  0.76561  0.22541  0.47435  1.0000
  S   S86       1.0  0.74858  0.17195  0.47469  1.0000
  C   C291      1.0  0.58997  0.04622  0.21761  1.0000
  C   C292      1.0  0.52658  0.28418  0.09990  1.0000
  C   C293      1.0  0.57498  0.26309  0.02138  1.0000
  H   H481      1.0  0.65460  0.17831  0.07874  1.0000
  C   C294      1.0  0.55986  0.11443  0.47925  1.0000
  C   C295      1.0  0.76866  0.20507  0.49206  1.0000
  H   H482      1.0  0.67113  0.31850  0.10278  1.0000
  H   H483      1.0  0.62831  0.03788  0.24526  1.0000
  H   H484      1.0  0.55298  0.01255  0.19424  1.0000
  C   C296      1.0  0.62132  0.04620  0.27226  1.0000
  H   H485      1.0  0.56191  0.04261  0.16604  1.0000
  C   C297      1.0  0.75421  0.23535  0.07289  1.0000
  H   H486      1.0  0.53273  0.26995  0.08987  1.0000
  H   H487      1.0  0.62379  0.03781  0.30437  1.0000
  H   H488      1.0  0.50500  0.27428  0.10372  1.0000
  H   H489      1.0  0.58972  0.00102  0.20551  1.0000
  H   H490      1.0  0.53561  0.31509  0.14742  1.0000
  H   H491      1.0  0.54036  0.31615  0.22775  1.0000
  H   H492      1.0  0.55056  0.26042  0.25437  1.0000
  C   C298      1.0  0.66041  0.31513  0.07013  1.0000
  H   H493      1.0  0.77296  0.25409  0.07535  1.0000
  C   C299      1.0  0.54086  0.04782  0.48040  1.0000
  N   N22       1.0  0.59300  0.03823  0.26512  1.0000
  H   H494      1.0  0.66089  0.07900  0.27674  1.0000
  H   H495      1.0  0.53545  0.18511  0.39362  1.0000
  H   H496      1.0  0.56740  0.27672  0.16593  1.0000
  H   H497      1.0  0.54992  0.16525  0.48078  1.0000
  H   H498      1.0  0.60811  0.05406  0.35827  1.0000
  H   H499      1.0  0.82346  0.31227  0.42260  1.0000
  C   C300      1.0  0.56167  0.03382  0.19971  1.0000
  C   C301      1.0  0.67013  0.17597  0.06188  1.0000
  H   H500      1.0  0.84369  0.32401  0.37311  1.0000
  H   H501      1.0  0.58144  0.05927  0.37028  1.0000
  N   N23       1.0  0.53606  0.28408  0.18634  1.0000
  H   H502      1.0  0.56212  0.31021  0.13392  1.0000
  C   C302      1.0  0.64299  0.00767  0.35226  1.0000
  H   H503      1.0  0.59822  0.06770  0.21558  1.0000
  H   H504      1.0  0.52892  0.23114  0.22319  1.0000
  H   H505      1.0  0.69583  0.21567  0.04191  1.0000
  H   H506      1.0  0.69329  0.31721  0.03510  1.0000
  H   H507      1.0  0.50158  0.27584  0.26644  1.0000
  C   C303      1.0  0.57902  0.32121  0.21998  1.0000
  C   C304      1.0  0.57685  0.00917  0.27208  1.0000
  H   H508      1.0  0.51177  0.22303  0.48579  1.0000
  N   N24       1.0  0.50986  0.17510  0.45239  1.0000
  H   H509      1.0  0.55546  0.00221  0.27120  1.0000
  C   C305      1.0  0.54729  0.25025  0.22151  1.0000
  C   C306      1.0  0.57986  0.30608  0.00978  1.0000
  H   H510      1.0  0.63731  0.08536  0.30245  1.0000
  H   H511      1.0  0.56395  0.24650  0.21795  1.0000
  H   H512      1.0  0.57989  0.00370  0.30698  1.0000
  C   C307      1.0  0.51219  0.03999  0.49188  1.0000
  H   H513      1.0  0.50327  0.23029  0.43201  1.0000
  H   H514      1.0  0.64911  0.32549  0.07250  1.0000
  S   S87       1.0  0.76642  0.32620  0.08253  1.0000
  H   H515      1.0  0.66414  0.17138  0.02566  1.0000
  H   H516      1.0  0.78068  0.26699  0.47244  1.0000
  H   H517      1.0  0.54095  0.14991  0.42551  1.0000
  H   H518      1.0  0.51135  0.05834  0.49043  1.0000
  H   H519      1.0  0.81151  0.32604  0.48328  1.0000
  H   H520      1.0  0.57087  0.17972  0.43249  1.0000
  C   C308      1.0  0.84188  0.32879  0.40906  1.0000
  H   H521      1.0  0.56845  0.24357  0.00923  1.0000
  H   H522      1.0  0.68222  0.20777  0.50695  1.0000
  H   H523      1.0  0.54443  0.21529  0.50819  1.0000
  C   C309      1.0  0.51007  0.17431  0.50384  1.0000
  C   C310      1.0  0.65757  0.29178  0.97359  1.0000
  H   H524      1.0  0.52653  0.00928  0.54922  1.0000
  S   S88       1.0  0.67342  0.23555  0.97301  1.0000
  Fe  Fe44      1.0  0.50252  0.12412  0.67986  1.0000
  S   S89       1.0  0.54051  0.15147  0.94592  1.0000
  C   C311      1.0  0.50837  0.21991  0.78249  1.0000
  H   H525      1.0  0.80696  0.32214  0.82643  1.0000
  S   S90       1.0  0.86993  0.30260  0.65145  1.0000
  Fe  Fe45      1.0  0.85672  0.31318  0.58634  1.0000
  S   S91       1.0  0.82538  0.29114  0.53150  1.0000
  H   H526      1.0  0.66416  0.29248  0.89906  1.0000
  C   C312      1.0  0.64814  0.28293  0.92445  1.0000
  H   H527      1.0  0.51586  0.06358  0.57025  1.0000
  C   C313      1.0  0.64744  0.32703  0.97888  1.0000
  H   H528      1.0  0.64099  0.26168  0.92207  1.0000
  H   H529      1.0  0.54787  0.19635  0.74634  1.0000
  H   H530      1.0  0.59113  0.12404  0.59885  1.0000
  H   H531      1.0  0.54611  0.11690  0.59133  1.0000
  C   C314      1.0  0.57207  0.28096  0.99379  1.0000
  C   C315      1.0  0.50609  0.00298  0.53850  1.0000
  C   C316      1.0  0.55699  0.11738  0.56118  1.0000
  H   H532      1.0  0.72786  0.24153  0.60994  1.0000
  H   H533      1.0  0.75917  0.24590  0.62431  1.0000
  C   C317      1.0  0.54019  0.14888  0.88565  1.0000
  C   C318      1.0  0.56247  0.16401  0.85902  1.0000
  C   C319      1.0  0.56112  0.16171  0.81115  1.0000
  C   C320      1.0  0.53753  0.14437  0.78939  1.0000
  C   C321      1.0  0.51527  0.12914  0.81599  1.0000
  C   C322      1.0  0.51664  0.13142  0.86388  1.0000
  H   H534      1.0  0.58071  0.17746  0.87534  1.0000
  H   H535      1.0  0.57847  0.17351  0.79085  1.0000
  H   H536      1.0  0.52211  0.22053  0.85257  1.0000
  Fe  Fe46      1.0  0.63402  0.21278  0.00784  1.0000
  H   H537      1.0  0.71029  0.14136  0.61554  1.0000
  H   H538      1.0  0.62993  0.31346  0.99917  1.0000
  S   S92       1.0  0.57698  0.32858  0.97442  1.0000
  C   C323      1.0  0.69887  0.26148  0.00308  1.0000
  H   H539      1.0  0.56372  0.27526  0.96012  1.0000
  S   S93       1.0  0.60973  0.16906  0.00417  1.0000
  C   C324      1.0  0.71340  0.33144  0.94734  1.0000
  H   H540      1.0  0.63996  0.32392  0.94337  1.0000
  H   H541      1.0  0.72726  0.26999  0.94971  1.0000
  C   C325      1.0  0.51515  0.19882  0.71409  1.0000
  C   C326      1.0  0.58247  0.12142  0.56541  1.0000
  H   H542      1.0  0.55372  0.20851  0.68968  1.0000
  H   H543      1.0  0.73874  0.16379  0.58195  1.0000
  H   H544      1.0  0.67186  0.28538  0.98162  1.0000
  H   H545      1.0  0.51372  0.05233  0.64641  1.0000
  H   H546      1.0  0.63149  0.28577  0.91521  1.0000
  N   N25       1.0  0.70436  0.18599  0.59538  1.0000
  H   H547      1.0  0.56913  0.33065  0.83827  1.0000
  C   C327      1.0  0.51613  0.04503  0.57451  1.0000
  S   S94       1.0  0.51251  0.14816  0.61590  1.0000
  C   C328      1.0  0.73266  0.20704  0.59924  1.0000
  H   H548      1.0  0.71062  0.17255  0.53056  1.0000
  S   S95       1.0  0.53684  0.14329  0.72896  1.0000
  C   C329      1.0  0.80319  0.25762  0.51885  1.0000
  H   H549      1.0  0.66789  0.18011  0.56691  1.0000
  C   C330      1.0  0.78875  0.21119  0.52397  1.0000
  C   C331      1.0  0.54441  0.20884  0.72250  1.0000
  C   C332      1.0  0.50799  0.03530  0.62382  1.0000
  C   C333      1.0  0.53338  0.19726  0.52837  1.0000
  S   S96       1.0  0.60076  0.21929  0.98894  1.0000
  H   H550      1.0  0.71314  0.20950  0.51193  1.0000
  H   H551      1.0  0.51793  0.02463  0.63595  1.0000
  C   C334      1.0  0.70270  0.16475  0.56490  1.0000
  S   S97       1.0  0.83728  0.32413  0.74884  1.0000
  H   H552      1.0  0.73224  0.22746  0.66189  1.0000
  H   H553      1.0  0.74430  0.19955  0.61696  1.0000
  Fe  Fe47      1.0  0.57571  0.17562  0.99171  1.0000
  H   H554      1.0  0.69301  0.19065  0.66350  1.0000
  H   H555      1.0  0.82128  0.24150  0.56163  1.0000
  C   C335      1.0  0.73781  0.23171  0.62543  1.0000
  N   N26       1.0  0.66896  0.32043  0.98319  1.0000
  C   C336      1.0  0.68786  0.19639  0.57494  1.0000
  C   C337      1.0  0.66640  0.15129  0.64454  1.0000
  H   H556      1.0  0.70759  0.17084  0.66113  1.0000
  C   C338      1.0  0.69402  0.17555  0.64245  1.0000
  H   H557      1.0  0.76382  0.30609  0.99169  1.0000
  H   H558      1.0  0.50740  0.18017  0.69493  1.0000
  C   C339      1.0  0.54560  0.11367  0.51811  1.0000
  S   S98       1.0  0.62834  0.12660  0.53325  1.0000
  H   H559      1.0  0.54274  0.21727  0.81059  1.0000
  C   C340      1.0  0.53036  0.22605  0.81755  1.0000
  C   C341      1.0  0.69871  0.21274  0.53073  1.0000
  H   H560      1.0  0.51533  0.23690  0.75890  1.0000
  H   H561      1.0  0.68486  0.20872  0.60015  1.0000
  H   H562      1.0  0.66577  0.13398  0.62868  1.0000
  H   H563      1.0  0.66058  0.14617  0.68082  1.0000
  H   H564      1.0  0.65140  0.15484  0.62857  1.0000
  H   H565      1.0  0.74199  0.21329  0.56511  1.0000
  H   H566      1.0  0.70708  0.31116  0.93697  1.0000
  H   H567      1.0  0.70725  0.23383  0.53792  1.0000
  C   C342      1.0  0.71723  0.15063  0.58169  1.0000
  H   H568      1.0  0.51463  0.21285  0.68959  1.0000
  H   H569      1.0  0.68202  0.14974  0.55844  1.0000
  H   H570      1.0  0.52586  0.20260  0.55893  1.0000
  C   C343      1.0  0.74450  0.29580  0.00689  1.0000
  H   H571      1.0  0.64048  0.27986  0.99623  1.0000
  H   H572      1.0  0.51587  0.17683  0.79578  1.0000
  H   H573      1.0  0.53736  0.05146  0.57283  1.0000
  H   H574      1.0  0.54712  0.19109  0.54165  1.0000
  C   C344      1.0  0.59673  0.12207  0.52661  1.0000
  H   H575      1.0  0.55454  0.22932  0.73431  1.0000
  H   H576      1.0  0.71353  0.13481  0.55737  1.0000
  H   H577      1.0  0.54374  0.24746  0.81853  1.0000
  H   H578      1.0  0.58501  0.31966  0.77663  1.0000
  H   H579      1.0  0.50996  0.15632  0.51555  1.0000
  C   C345      1.0  0.72384  0.27527  0.98329  1.0000
  H   H580      1.0  0.79143  0.19571  0.53784  1.0000
  C   C346      1.0  0.80574  0.23721  0.53762  1.0000
  S   S99       1.0  0.51325  0.10711  0.51239  1.0000
  S   S100      1.0  0.78228  0.39503  0.05614  1.0000
  S   S101      1.0  0.83494  0.38919  0.04746  1.0000
  Fe  Fe48      1.0  0.79122  0.36300  0.04255  1.0000
  Fe  Fe49      1.0  0.82570  0.42169  0.05491  1.0000
  S   S102      1.0  0.84546  0.45768  0.10048  1.0000
  H   H581      1.0  0.56536  0.40767  0.23994  1.0000
  H   H582      1.0  0.68589  0.54886  0.46770  1.0000
  Fe  Fe50      1.0  0.58844  0.40484  0.07434  1.0000
  S   S103      1.0  0.57395  0.41055  0.14313  1.0000
  S   S104      1.0  0.61107  0.38360  0.07245  1.0000
  H   H583      1.0  0.65692  0.53488  0.43406  1.0000
  Fe  Fe51      1.0  0.84143  0.48422  0.37036  1.0000
  S   S105      1.0  0.86366  0.52818  0.36928  1.0000
  S   S106      1.0  0.82666  0.45309  0.31520  1.0000
  Fe  Fe52      1.0  0.84309  0.48219  0.47455  1.0000
  S   S107      1.0  0.86599  0.52563  0.48130  1.0000
  H   H584      1.0  0.84455  0.40024  0.48577  1.0000
  Fe  Fe53      1.0  0.83730  0.52477  0.42940  1.0000
  S   S108      1.0  0.81770  0.54946  0.44207  1.0000
  Fe  Fe54      1.0  0.89035  0.52531  0.42181  1.0000
  S   S109      1.0  0.93488  0.54044  0.42357  1.0000
  S   S110      1.0  0.81351  0.48134  0.42585  1.0000
  S   S111      1.0  0.86892  0.48137  0.41969  1.0000
  C   C347      1.0  0.98880  0.56283  0.42556  1.0000
  H   H585      1.0  0.71692  0.52183  0.40263  1.0000
  H   H586      1.0  0.89240  0.37423  0.43966  1.0000
  C   C348      1.0  0.55886  0.40695  0.45909  1.0000
  H   H587      1.0  0.91502  0.46693  0.35317  1.0000
  H   H588      1.0  0.80135  0.38147  0.44194  1.0000
  H   H589      1.0  0.54900  0.39808  0.42755  1.0000
  H   H590      1.0  0.82497  0.35183  0.38816  1.0000
  C   C349      1.0  0.96765  0.56661  0.41427  1.0000
  H   H591      1.0  0.63956  0.50046  0.38485  1.0000
  C   C350      1.0  0.97323  0.59058  0.39520  1.0000
  H   H592      1.0  0.98487  0.54447  0.44040  1.0000
  H   H593      1.0  0.95731  0.59390  0.38622  1.0000
  H   H594      1.0  0.52374  0.44333  0.44590  1.0000
  H   H595      1.0  0.88073  0.45399  0.34525  1.0000
  H   H596      1.0  0.89420  0.40295  0.46533  1.0000
  C   C351      1.0  0.63374  0.48272  0.40594  1.0000
  H   H597      1.0  0.79905  0.45132  0.03392  1.0000
  H   H598      1.0  0.89928  0.45131  0.30001  1.0000
  C   C352      1.0  0.53289  0.36933  0.25496  1.0000
  C   C353      1.0  0.99949  0.61029  0.38743  1.0000
  N   N27       1.0  0.65720  0.48430  0.42990  1.0000
  C   C354      1.0  0.72812  0.40372  0.01549  1.0000
  C   C355      1.0  0.55121  0.38490  0.17864  1.0000
  C   C356      1.0  0.55114  0.38908  0.22584  1.0000
  C   C357      1.0  0.76757  0.56936  0.50079  1.0000
  C   C358      1.0  0.81285  0.34518  0.47639  1.0000
  H   H599      1.0  0.51356  0.41101  0.42407  1.0000
  H   H600      1.0  0.91516  0.54241  0.32451  1.0000
  C   C359      1.0  0.53254  0.36094  0.16065  1.0000
  H   H601      1.0  0.90424  0.50177  0.34058  1.0000
  Fe  Fe55      1.0  0.64108  0.41812  0.03326  1.0000
  C   C360      1.0  0.83961  0.45625  0.15998  1.0000
  C   C361      1.0  0.84930  0.47955  0.18483  1.0000
  C   C362      1.0  0.84526  0.47907  0.23232  1.0000
  C   C363      1.0  0.83161  0.45522  0.25536  1.0000
  C   C364      1.0  0.82165  0.43199  0.23035  1.0000
  C   C365      1.0  0.82557  0.43247  0.18291  1.0000
  H   H602      1.0  0.86010  0.49804  0.16725  1.0000
  H   H603      1.0  0.85277  0.49709  0.25111  1.0000
  H   H604      1.0  0.81094  0.41344  0.24782  1.0000
  H   H605      1.0  0.81792  0.41440  0.16417  1.0000
  H   H606      1.0  0.75985  0.50878  0.09520  1.0000
  H   H607      1.0  0.85946  0.36972  0.39198  1.0000
  H   H608      1.0  0.50277  0.53905  0.43502  1.0000
  H   H609      1.0  0.66784  0.36310  0.02010  1.0000
  H   H610      1.0  0.70868  0.40494  0.07709  1.0000
  H   H611      1.0  0.56776  0.44564  0.43945  1.0000
  N   N28       1.0  0.92873  0.50679  0.28196  1.0000
  C   C366      1.0  0.95216  0.51515  0.31237  1.0000
  C   C367      1.0  0.90429  0.49079  0.30993  1.0000
  C   C368      1.0  0.92774  0.52998  0.26277  1.0000
  C   C369      1.0  0.93060  0.49125  0.24291  1.0000
  C   C370      1.0  0.93046  0.55066  0.29770  1.0000
  H   H612      1.0  0.53205  0.35770  0.12429  1.0000
  C   C371      1.0  0.90654  0.47831  0.21130  1.0000
  H   H613      1.0  0.95025  0.52441  0.34396  1.0000
  H   H614      1.0  0.95338  0.49796  0.32450  1.0000
  H   H615      1.0  0.88648  0.48694  0.29071  1.0000
  H   H616      1.0  0.65804  0.43817  0.50484  1.0000
  H   H617      1.0  0.90883  0.52362  0.24502  1.0000
  H   H618      1.0  0.94998  0.56052  0.31398  1.0000
  H   H619      1.0  0.94757  0.50384  0.22050  1.0000
  H   H620      1.0  0.93449  0.47575  0.25558  1.0000
  S   S112      1.0  0.61989  0.44075  0.03872  1.0000
  H   H621      1.0  0.80479  0.52258  0.07966  1.0000
  H   H622      1.0  0.77883  0.49013  0.03931  1.0000
  H   H623      1.0  0.53326  0.37265  0.29126  1.0000
  C   C372      1.0  0.71188  0.40992  0.04122  1.0000
  H   H624      1.0  0.51186  0.61100  0.47317  1.0000
  H   H625      1.0  0.88861  0.46369  0.22937  1.0000
  H   H626      1.0  0.91032  0.46779  0.18363  1.0000
  H   H627      1.0  0.70878  0.49747  0.44648  1.0000
  H   H628      1.0  0.90266  0.49287  0.19461  1.0000
  H   H629      1.0  0.74791  0.43316  0.17768  1.0000
  C   C373      1.0  0.78919  0.54649  0.46995  1.0000
  H   H630      1.0  0.79696  0.34088  0.45153  1.0000
  H   H631      1.0  0.71641  0.49235  0.39037  1.0000
  H   H632      1.0  0.86112  0.40442  0.43364  1.0000
  H   H633      1.0  0.72692  0.48750  0.11320  1.0000
  C   C374      1.0  0.56948  0.43379  0.46586  1.0000
  H   H634      1.0  0.75951  0.45623  0.03607  1.0000
  H   H635      1.0  0.82936  0.53142  0.12061  1.0000
  C   C375      1.0  0.69985  0.42262  0.02073  1.0000
  C   C376      1.0  0.66692  0.50662  0.46312  1.0000
  H   H636      1.0  0.61928  0.48215  0.43113  1.0000
  H   H637      1.0  0.76546  0.41603  0.17079  1.0000
  C   C377      1.0  0.97905  0.53389  0.29073  1.0000
  H   H638      1.0  0.92820  0.56601  0.27985  1.0000
  Fe  Fe56      1.0  0.50974  0.33781  0.44263  1.0000
  H   H639      1.0  0.51455  0.52636  0.47836  1.0000
  H   H640      1.0  0.98036  0.55208  0.27764  1.0000
  C   C378      1.0  0.70620  0.50061  0.41033  1.0000
  C   C379      1.0  0.84160  0.35478  0.41012  1.0000
  H   H641      1.0  0.67741  0.50056  0.36620  1.0000
  H   H642      1.0  0.68701  0.53786  0.41141  1.0000
  C   C380      1.0  0.80091  0.47079  0.02984  1.0000
  N   N29       1.0  0.83930  0.36423  0.45668  1.0000
  H   H643      1.0  0.85682  0.34593  0.49659  1.0000
  H   H644      1.0  0.94309  0.54012  0.23616  1.0000
  H   H645      1.0  0.60428  0.46233  0.35389  1.0000
  H   H646      1.0  0.82543  0.41354  0.42521  1.0000
  C   C381      1.0  0.88867  0.38231  0.47099  1.0000
  H   H647      1.0  0.63158  0.45600  0.47966  1.0000
  C   C382      1.0  0.64782  0.45920  0.45615  1.0000
  C   C383      1.0  0.82083  0.39288  0.42558  1.0000
  H   H648      1.0  0.73740  0.48187  0.05976  1.0000
  H   H649      1.0  0.99434  0.53978  0.31739  1.0000
  H   H650      1.0  0.67225  0.46885  0.37848  1.0000
  C   C384      1.0  0.90003  0.46435  0.32769  1.0000
  C   C385      1.0  0.56054  0.39151  0.49355  1.0000
  H   H651      1.0  0.63186  0.45760  0.34834  1.0000
  C   C386      1.0  0.61877  0.45941  0.37346  1.0000
  C   C387      1.0  0.84258  0.39111  0.45187  1.0000
  H   H652      1.0  0.60733  0.44082  0.39247  1.0000
  H   H653      1.0  0.65172  0.50248  0.48962  1.0000
  H   H654      1.0  0.82003  0.48599  0.04324  1.0000
  H   H655      1.0  0.78277  0.44888  0.18949  1.0000
  C   C388      1.0  0.67740  0.48788  0.39441  1.0000
  C   C389      1.0  0.58208  0.44524  0.50682  1.0000
  H   H656      1.0  0.81710  0.48800  0.11995  1.0000
  H   H657      1.0  0.69352  0.34696  0.03628  1.0000
  C   C390      1.0  0.67457  0.53345  0.44221  1.0000
  H   H658      1.0  0.79770  0.52604  0.13855  1.0000
  N   N30       1.0  0.77569  0.46960  0.10310  1.0000
  C   C391      1.0  0.77305  0.44363  0.11587  1.0000
  S   S113      1.0  0.68280  0.43350  0.05483  1.0000
  C   C392      1.0  0.75134  0.46966  0.11953  1.0000
  C   C393      1.0  0.79984  0.49053  0.12618  1.0000
  C   C394      1.0  0.76693  0.43539  0.16647  1.0000
  H   H659      1.0  0.81980  0.38695  0.38947  1.0000
  C   C395      1.0  0.74395  0.48828  0.09525  1.0000
  C   C396      1.0  0.80791  0.51908  0.11548  1.0000
  H   H660      1.0  0.75745  0.42771  0.09543  1.0000
  H   H661      1.0  0.79131  0.44324  0.10792  1.0000
  H   H662      1.0  0.98413  0.52433  0.26321  1.0000
  C   C397      1.0  0.77767  0.47191  0.05179  1.0000
  H   H663      1.0  0.73377  0.44994  0.11557  1.0000
  H   H664      1.0  0.75265  0.47405  0.15665  1.0000
  H   H665      1.0  0.79748  0.48870  0.16386  1.0000
  H   H666      1.0  0.68410  0.50919  0.48261  1.0000
  H   H667      1.0  0.63962  0.44216  0.43291  1.0000
  H   H668      1.0  0.73688  0.39351  0.03131  1.0000
  C   C398      1.0  0.51267  0.54360  0.46869  1.0000
  C   C399      1.0  0.66825  0.45661  0.48488  1.0000
  H   H669      1.0  0.90217  0.38239  0.49742  1.0000
  H   H670      1.0  0.76802  0.50487  0.48005  1.0000
  C   C400      1.0  0.78847  0.56952  0.47728  1.0000
  H   H671      1.0  0.80442  0.58785  0.46497  1.0000
  C   C401      1.0  0.76805  0.52290  0.48617  1.0000
  C   C402      1.0  0.51416  0.34541  0.23688  1.0000
  C   C403      1.0  0.51390  0.34145  0.18959  1.0000
  S   S114      1.0  0.54534  0.35761  0.48784  1.0000
  H   H672      1.0  0.55048  0.55952  0.43520  1.0000
  H   H673      1.0  0.51075  0.39052  0.48797  1.0000
  C   C404      1.0  0.86019  0.36574  0.48823  1.0000
  H   H674      1.0  0.68273  0.45498  0.46291  1.0000
  H   H675      1.0  0.50169  0.45951  0.50558  1.0000
  C   C405      1.0  0.54047  0.56629  0.45916  1.0000
  H   H676      1.0  0.53995  0.58274  0.44195  1.0000
  C   C406      1.0  0.50716  0.42528  0.43197  1.0000
  C   C407      1.0  0.51232  0.59791  0.49993  1.0000
  H   H677      1.0  0.55275  0.57304  0.49011  1.0000
  H   H678      1.0  0.76771  0.58755  0.50593  1.0000
  H   H679      1.0  0.53270  0.60187  0.50171  1.0000
  H   H680      1.0  0.50178  0.43047  0.39886  1.0000
  H   H681      1.0  0.59680  0.33243  0.06591  1.0000
  H   H682      1.0  0.58422  0.33560  0.19191  1.0000
  H   H683      1.0  0.58649  0.33272  0.25180  1.0000
  S   S115      1.0  0.56714  0.38722  0.00885  1.0000
  C   C408      1.0  0.78179  0.48144  0.55762  1.0000
  S   S116      1.0  0.75540  0.40560  0.93809  1.0000
  Fe  Fe57      1.0  0.83266  0.39388  0.97133  1.0000
  S   S117      1.0  0.86418  0.39764  0.92147  1.0000
  S   S118      1.0  0.78959  0.36519  0.96631  1.0000
  H   H684      1.0  0.63688  0.35588  0.00034  1.0000
  S   S119      1.0  0.62475  0.40159  0.96468  1.0000
  S   S120      1.0  0.84738  0.34135  0.62180  1.0000
  C   C409      1.0  0.65480  0.35532  0.99035  1.0000
  Fe  Fe58      1.0  0.60071  0.42121  0.97267  1.0000
  S   S121      1.0  0.59016  0.43892  0.91263  1.0000
  H   H685      1.0  0.61893  0.54692  0.90107  1.0000
  H   H686      1.0  0.81575  0.36268  0.76268  1.0000
  Fe  Fe59      1.0  0.88893  0.37152  0.60835  1.0000
  H   H687      1.0  0.50731  0.60434  0.53200  1.0000
  C   C410      1.0  0.70334  0.42830  0.97407  1.0000
  S   S122      1.0  0.59366  0.47847  0.51535  1.0000
  C   C411      1.0  0.51054  0.55375  0.54939  1.0000
  H   H688      1.0  0.97114  0.38646  0.59763  1.0000
  S   S123      1.0  0.90333  0.36538  0.67507  1.0000
  Fe  Fe60      1.0  0.62257  0.49723  0.57235  1.0000
  S   S124      1.0  0.64997  0.53989  0.56046  1.0000
  H   H689      1.0  0.59757  0.54757  0.81152  1.0000
  Fe  Fe61      1.0  0.64688  0.49709  0.66364  1.0000
  S   S125      1.0  0.67589  0.53990  0.65726  1.0000
  S   S126      1.0  0.65220  0.47573  0.72394  1.0000
  Fe  Fe62      1.0  0.64154  0.54411  0.63378  1.0000
  S   S127      1.0  0.63155  0.57310  0.66773  1.0000
  Fe  Fe63      1.0  0.68132  0.53114  0.58439  1.0000
  S   S128      1.0  0.72110  0.54842  0.54720  1.0000
  S   S129      1.0  0.61237  0.50162  0.64449  1.0000
  S   S130      1.0  0.65409  0.48816  0.59182  1.0000
  H   H690      1.0  0.68481  0.55848  0.81253  1.0000
  H   H691      1.0  0.81222  0.41658  0.80686  1.0000
  H   H692      1.0  0.60544  0.39811  0.87181  1.0000
  H   H693      1.0  0.82206  0.57401  0.63187  1.0000
  H   H694      1.0  0.53286  0.47194  0.53040  1.0000
  H   H695      1.0  0.58266  0.49891  0.80017  1.0000
  H   H696      1.0  0.52930  0.35737  0.90172  1.0000
  H   H697      1.0  0.81687  0.44179  0.74231  1.0000
  C   C412      1.0  0.80212  0.55721  0.62721  1.0000
  H   H698      1.0  0.63619  0.39698  0.81133  1.0000
  H   H699      1.0  0.84930  0.55386  0.55775  1.0000
  C   C413      1.0  0.61117  0.58544  0.64726  1.0000
  C   C414      1.0  0.60305  0.59855  0.67757  1.0000
  C   C415      1.0  0.58779  0.60952  0.66245  1.0000
  C   C416      1.0  0.58080  0.60795  0.61647  1.0000
  C   C417      1.0  0.58883  0.59472  0.58628  1.0000
  C   C418      1.0  0.60365  0.58334  0.60154  1.0000
  H   H700      1.0  0.60880  0.60047  0.71296  1.0000
  H   H701      1.0  0.58194  0.61969  0.68613  1.0000
  H   H702      1.0  0.66447  0.57596  0.84776  1.0000
  H   H703      1.0  0.60989  0.57359  0.57764  1.0000
  H   H704      1.0  0.72417  0.33578  0.98005  1.0000
  C   C419      1.0  0.97397  0.43331  0.69895  1.0000
  C   C420      1.0  0.85628  0.39687  0.71225  1.0000
  H   H705      1.0  0.96016  0.42828  0.84752  1.0000
  H   H706      1.0  0.60919  0.51358  0.91226  1.0000
  H   H707      1.0  0.78555  0.33787  0.53192  1.0000
  C   C421      1.0  0.85669  0.40973  0.58304  1.0000
  Fe  Fe64      1.0  0.78391  0.39932  0.98013  1.0000
  H   H708      1.0  0.84920  0.39128  0.60033  1.0000
  C   C422      1.0  0.56961  0.34256  0.80836  1.0000
  C   C423      1.0  0.98207  0.36337  0.63906  1.0000
  H   H709      1.0  0.67312  0.52508  0.79717  1.0000
  H   H710      1.0  0.63573  0.57802  0.84511  1.0000
  N   N31       1.0  0.81600  0.52462  0.59572  1.0000
  H   H711      1.0  0.58398  0.59369  0.55060  1.0000
  H   H712      1.0  0.62024  0.50688  0.83482  1.0000
  H   H713      1.0  0.91300  0.45848  0.53716  1.0000
  H   H714      1.0  0.79919  0.47162  0.66158  1.0000
  H   H715      1.0  0.81939  0.40845  0.58202  1.0000
  C   C424      1.0  0.60783  0.44949  0.86066  1.0000
  C   C425      1.0  0.63268  0.45217  0.85555  1.0000
  C   C426      1.0  0.64596  0.46031  0.81347  1.0000
  C   C427      1.0  0.63475  0.46617  0.77625  1.0000
  C   C428      1.0  0.60985  0.46339  0.78123  1.0000
  C   C429      1.0  0.59643  0.45501  0.82325  1.0000
  H   H716      1.0  0.64168  0.44801  0.88405  1.0000
  H   H717      1.0  0.66515  0.46224  0.80983  1.0000
  H   H718      1.0  0.60080  0.46731  0.75255  1.0000
  H   H719      1.0  0.57711  0.45274  0.82683  1.0000
  H   H720      1.0  0.69907  0.35790  0.95838  1.0000
  H   H721      1.0  0.73095  0.50466  0.52322  1.0000
  C   C430      1.0  0.71999  0.42248  0.94850  1.0000
  C   C431      1.0  0.58464  0.33793  0.76943  1.0000
  H   H722      1.0  0.72339  0.42768  0.91275  1.0000
  C   C432      1.0  0.85717  0.37550  0.87612  1.0000
  C   C433      1.0  0.87707  0.37980  0.84476  1.0000
  C   C434      1.0  0.87160  0.36374  0.80621  1.0000
  H   H723      1.0  0.95755  0.43325  0.68014  1.0000
  C   C435      1.0  0.82662  0.33819  0.83147  1.0000
  C   C436      1.0  0.83200  0.35443  0.86958  1.0000
  H   H724      1.0  0.89661  0.39600  0.84984  1.0000
  H   H725      1.0  0.88686  0.36755  0.78171  1.0000
  H   H726      1.0  0.64599  0.59377  0.76293  1.0000
  C   C437      1.0  0.82622  0.41037  0.81785  1.0000
  H   H727      1.0  0.59468  0.43886  0.57207  1.0000
  H   H728      1.0  0.89259  0.43024  0.73956  1.0000
  C   C438      1.0  0.64853  0.57317  0.82416  1.0000
  H   H729      1.0  0.80692  0.55035  0.55684  1.0000
  C   C439      1.0  0.64827  0.54021  0.77098  1.0000
  C   C440      1.0  0.87562  0.45683  0.53540  1.0000
  C   C441      1.0  0.84637  0.41404  0.78058  1.0000
  H   H730      1.0  0.82841  0.41302  0.66818  1.0000
  C   C442      1.0  0.88311  0.42388  0.57056  1.0000
  C   C443      1.0  0.96439  0.40617  0.72034  1.0000
  N   N32       1.0  0.57943  0.37044  0.82241  1.0000
  H   H731      1.0  0.85014  0.38875  0.67759  1.0000
  H   H732      1.0  0.85832  0.40622  0.79601  1.0000
  H   H733      1.0  0.85995  0.43539  0.77687  1.0000
  C   C444      1.0  0.55728  0.37208  0.84549  1.0000
  H   H734      1.0  0.62596  0.36376  0.83067  1.0000
  H   H735      1.0  0.92977  0.36012  0.76124  1.0000
  C   C445      1.0  0.81150  0.37544  0.74069  1.0000
  H   H736      1.0  0.79428  0.54688  0.66006  1.0000
  H   H737      1.0  0.78013  0.34252  0.70547  1.0000
  H   H738      1.0  0.69405  0.43812  0.95814  1.0000
  H   H739      1.0  0.51365  0.38856  0.57286  1.0000
  H   H740      1.0  0.55388  0.39130  0.76042  1.0000
  C   C446      1.0  0.86460  0.53593  0.60313  1.0000
  Fe  Fe65      1.0  0.91060  0.33688  0.63632  1.0000
  C   C447      1.0  0.62757  0.38268  0.83961  1.0000
  H   H741      1.0  0.89707  0.41438  0.69163  1.0000
  H   H742      1.0  0.83112  0.49605  0.67861  1.0000
  C   C448      1.0  0.69038  0.33693  0.94980  1.0000
  C   C449      1.0  0.80954  0.42530  0.71796  1.0000
  C   C450      1.0  0.80925  0.50598  0.55632  1.0000
  H   H743      1.0  0.59056  0.52078  0.87314  1.0000
  C   C451      1.0  0.83152  0.41966  0.70423  1.0000
  H   H744      1.0  0.82340  0.49902  0.55246  1.0000
  H   H745      1.0  0.72768  0.34452  0.92131  1.0000
  C   C452      1.0  0.81670  0.49001  0.65045  1.0000
  H   H746      1.0  0.94442  0.39944  0.73366  1.0000
  H   H747      1.0  0.83680  0.42230  0.84800  1.0000
  H   H748      1.0  0.80237  0.43053  0.68687  1.0000
  H   H749      1.0  0.85854  0.38187  0.73135  1.0000
  H   H750      1.0  0.79583  0.37684  0.75920  1.0000
  H   H751      1.0  0.77945  0.52464  0.58489  1.0000
  H   H752      1.0  0.85938  0.37414  0.52156  1.0000
  H   H753      1.0  0.84962  0.56121  0.61640  1.0000
  H   H754      1.0  0.61178  0.55386  0.75675  1.0000
  C   C453      1.0  0.74661  0.54617  0.51768  1.0000
  H   H755      1.0  0.76570  0.48597  0.55906  1.0000
  H   H756      1.0  0.81660  0.35076  0.89367  1.0000
  C   C454      1.0  0.80900  0.51120  0.64154  1.0000
  C   C455      1.0  0.67516  0.54389  0.78538  1.0000
  H   H757      1.0  0.60482  0.38946  0.76353  1.0000
  H   H758      1.0  0.65069  0.55169  0.73941  1.0000
  H   H759      1.0  0.67641  0.59327  0.76758  1.0000
  H   H760      1.0  0.81878  0.35448  0.54963  1.0000
  H   H761      1.0  0.79460  0.37162  0.67179  1.0000
  H   H762      1.0  0.51127  0.42499  0.57125  1.0000
  H   H763      1.0  0.99841  0.44004  0.79733  1.0000
  C   C456      1.0  0.60798  0.54133  0.78732  1.0000
  C   C457      1.0  0.80557  0.35319  0.52173  1.0000
  N   N33       1.0  0.83590  0.40163  0.73468  1.0000
  C   C458      1.0  0.66082  0.59445  0.78695  1.0000
  H   H764      1.0  0.51591  0.53859  0.55758  1.0000
  C   C459      1.0  0.94451  0.35950  0.78374  1.0000
  H   H765      1.0  0.99969  0.34539  0.67862  1.0000
  H   H766      1.0  0.86155  0.51876  0.58330  1.0000
  S   S131      1.0  0.90488  0.41272  0.58392  1.0000
  H   H767      1.0  0.64741  0.53166  0.86307  1.0000
  C   C460      1.0  0.74693  0.52277  0.51035  1.0000
  C   C461      1.0  0.95759  0.41968  0.81296  1.0000
  C   C462      1.0  0.57405  0.40316  0.53380  1.0000
  H   H768      1.0  0.57561  0.39124  0.56029  1.0000
  C   C463      1.0  0.84930  0.44287  0.54836  1.0000
  H   H769      1.0  0.98526  0.37457  0.79304  1.0000
  C   C464      1.0  0.80064  0.53863  0.58890  1.0000
  H   H770      1.0  0.77912  0.47024  0.52578  1.0000
  H   H771      1.0  0.88401  0.43533  0.68235  1.0000
  C   C465      1.0  0.62860  0.52723  0.84674  1.0000
  S   S132      1.0  0.94950  0.33806  0.65167  1.0000
  H   H772      1.0  0.98104  0.44891  0.72493  1.0000
  H   H773      1.0  0.55589  0.36406  0.73654  1.0000
  H   H774      1.0  0.79201  0.40831  0.73240  1.0000
  C   C466      1.0  0.84618  0.34308  0.79911  1.0000
  C   C467      1.0  0.83985  0.41941  0.57249  1.0000
  H   H775      1.0  0.77961  0.46822  0.58615  1.0000
  C   C468      1.0  0.61076  0.52746  0.88511  1.0000
  C   C469      1.0  0.58835  0.51333  0.77213  1.0000
  S   S133      1.0  0.82682  0.42848  0.97906  1.0000
  H   H776      1.0  0.93999  0.40015  0.81446  1.0000
  H   H777      1.0  0.81128  0.35300  0.68051  1.0000
  H   H778      1.0  0.81107  0.51622  0.52339  1.0000
  C   C470      1.0  0.79900  0.36018  0.69660  1.0000
  C   C471      1.0  0.88390  0.42085  0.70659  1.0000
  C   C472      1.0  0.98276  0.41920  0.79945  1.0000
  H   H779      1.0  0.81801  0.52587  0.66920  1.0000
  H   H780      1.0  0.57401  0.33452  0.73667  1.0000
  C   C473      1.0  0.56731  0.38469  0.74725  1.0000
  H   H781      1.0  0.63691  0.51972  0.75906  1.0000
  Fe  Fe66      1.0  0.53929  0.64218  0.61777  1.0000
  H   H782      1.0  0.84955  0.43908  0.70220  1.0000
  C   C474      1.0  0.98725  0.38501  0.61218  1.0000
  H   H783      1.0  0.86504  0.53224  0.64008  1.0000
  N   N34       1.0  0.63335  0.54546  0.80730  1.0000
  S   S134      1.0  0.56279  0.62253  0.59417  1.0000
  H   H784      1.0  0.52947  0.57220  0.54905  1.0000
  H   H785      1.0  0.59585  0.50726  0.74267  1.0000
  H   H786      1.0  0.81538  0.38987  0.83010  1.0000
  H   H787      1.0  0.66415  0.36852  0.96074  1.0000
  H   H788      1.0  0.53998  0.36486  0.82273  1.0000
  H   H789      1.0  0.56316  0.39275  0.85314  1.0000
  H   H790      1.0  0.68883  0.55108  0.75585  1.0000
  H   H791      1.0  0.78745  0.50182  0.64744  1.0000
  C   C475      1.0  0.89254  0.44745  0.54688  1.0000
  C   C476      1.0  0.73301  0.41087  0.96954  1.0000
  H   H792      1.0  0.67816  0.47244  0.51007  1.0000
  H   H793      1.0  0.57016  0.51279  0.76036  1.0000
  H   H794      1.0  0.67015  0.61392  0.80334  1.0000
  H   H795      1.0  0.82502  0.48513  0.62076  1.0000
  H   H796      1.0  0.54894  0.33364  0.79658  1.0000
  H   H797      1.0  0.78953  0.56555  0.61744  1.0000
  C   C477      1.0  0.58847  0.38920  0.78263  1.0000
  H   H798      1.0  0.57692  0.39666  0.71638  1.0000
  H   H799      1.0  0.59673  0.40949  0.79509  1.0000
  H   H800      1.0  0.60520  0.35333  0.76459  1.0000
  C   C478      1.0  0.84465  0.54491  0.59255  1.0000
  C   C479      1.0  0.51201  0.45645  0.53419  1.0000
  C   C480      1.0  0.58481  0.43004  0.54050  1.0000
  H   H801      1.0  0.54113  0.33574  0.88664  1.0000
  C   C481      1.0  0.60125  0.37919  0.85664  1.0000
  H   H802      1.0  0.94227  0.36433  0.81935  1.0000
  H   H803      1.0  0.50637  0.63684  0.87951  1.0000
  H   H804      1.0  0.64187  0.39065  0.86801  1.0000
  H   H805      1.0  0.88451  0.55196  0.59400  1.0000
  H   H806      1.0  0.96173  0.39267  0.69176  1.0000
  N   N35       1.0  0.98185  0.40475  0.75640  1.0000
  H   H807      1.0  0.95378  0.43217  0.78956  1.0000
  C   C482      1.0  0.97284  0.37647  0.76654  1.0000
  H   H808      1.0  0.80095  0.47410  0.99253  1.0000
  S   S135      1.0  0.82795  0.45434  0.53413  1.0000
  H   H809      1.0  0.97497  0.36679  0.73560  1.0000
  H   H810      1.0  0.98976  0.43796  0.67356  1.0000
  Fe  Fe67      1.0  0.86253  0.33248  0.68551  1.0000
  C   C483      1.0  0.51045  0.42961  0.53471  1.0000
  Fe  Fe68      1.0  0.59248  0.36879  0.00422  1.0000
  H   H811      1.0  0.50628  0.63962  0.79481  1.0000
  C   C484      1.0  0.54691  0.35656  0.89041  1.0000
  H   H812      1.0  0.59539  0.36511  0.88555  1.0000
  H   H813      1.0  0.98827  0.41119  0.82917  1.0000
  H   H814      1.0  0.52924  0.43235  0.52061  1.0000
  S   S136      1.0  0.89804  0.34472  0.56845  1.0000
  H   H815      1.0  0.56140  0.36532  0.91820  1.0000
  H   H816      1.0  0.88309  0.47508  0.51709  1.0000
  H   H817      1.0  0.50453  0.45982  0.56680  1.0000
  H   H818      1.0  0.93982  0.33882  0.78426  1.0000
  H   H819      1.0  0.68250  0.33533  0.91481  1.0000
  H   H820      1.0  0.50851  0.56575  0.61884  1.0000
  H   H821      1.0  0.80524  0.37170  0.51893  1.0000
  C   C485      1.0  0.52476  0.81940  0.19882  1.0000
  S   S137      1.0  0.54326  0.85598  0.37179  1.0000
  H   H822      1.0  0.59523  0.86779  0.45725  1.0000
  H   H823      1.0  0.66242  0.93538  0.35277  1.0000
  S   S138      1.0  0.55198  0.87997  0.47398  1.0000
  Fe  Fe69      1.0  0.55341  0.89496  0.40274  1.0000
  S   S139      1.0  0.58814  0.93209  0.37288  1.0000
  Fe  Fe70      1.0  0.53806  0.84017  0.44363  1.0000
  S   S140      1.0  0.55238  0.81082  0.45553  1.0000
  S   S141      1.0  0.51163  0.88625  0.40177  1.0000
  H   H824      1.0  0.53237  0.83896  0.18309  1.0000
  H   H825      1.0  0.52294  0.82516  0.11084  1.0000
  H   H826      1.0  0.59830  0.98870  0.25479  1.0000
  C   C486      1.0  0.62750  0.98048  0.34991  1.0000
  H   H827      1.0  0.59880  0.85686  0.40293  1.0000
  H   H828      1.0  0.53699  0.81082  0.18861  1.0000
  C   C487      1.0  0.59869  0.98113  0.40794  1.0000
  C   C488      1.0  0.60539  0.96683  0.37780  1.0000
  H   H829      1.0  0.63294  0.96989  0.32640  1.0000
  H   H830      1.0  0.58168  0.97092  0.42975  1.0000
  H   H831      1.0  0.50281  0.74858  0.07918  1.0000
  C   C489      1.0  0.65481  0.94477  0.42182  1.0000
  H   H832      1.0  0.52685  0.82258  0.23630  1.0000
  C   C490      1.0  0.58306  0.99232  0.23976  1.0000
  H   H833      1.0  0.50377  0.82739  0.03792  1.0000
  H   H834      1.0  0.52188  0.78505  0.12408  1.0000
  H   H835      1.0  0.60966  0.90279  0.49888  1.0000
  C   C491      1.0  0.60997  0.86995  0.43154  1.0000
  H   H836      1.0  0.68531  0.96716  0.37199  1.0000
  H   H837      1.0  0.56500  0.97330  0.23420  1.0000
  H   H838      1.0  0.64051  0.94963  0.40644  1.0000
  H   H839      1.0  0.56204  0.76794  0.46032  1.0000
  H   H840      1.0  0.63990  0.89695  0.38803  1.0000
  H   H841      1.0  0.52545  0.70329  0.45365  1.0000
  H   H842      1.0  0.61271  0.90211  0.39273  1.0000
  C   C492      1.0  0.55546  0.76985  0.49382  1.0000
  C   C493      1.0  0.62619  0.89792  0.41301  1.0000
  H   H843      1.0  0.68730  0.94001  0.39430  1.0000
  C   C494      1.0  0.62128  0.92087  0.47888  1.0000
  C   C495      1.0  0.67347  0.94651  0.38319  1.0000
  H   H844      1.0  0.66688  0.96116  0.44528  1.0000
  H   H845      1.0  0.67036  0.90764  0.44888  1.0000
  H   H846      1.0  0.62264  0.86258  0.44511  1.0000
  N   N36       1.0  0.64075  0.91919  0.44749  1.0000
  H   H847      1.0  0.63821  0.96234  0.49613  1.0000
  H   H848      1.0  0.67677  0.93405  0.48544  1.0000
  H   H849      1.0  0.60647  0.92299  0.45862  1.0000
  C   C496      1.0  0.66077  0.91506  0.47261  1.0000
  C   C497      1.0  0.54920  0.78962  0.50160  1.0000
  Fe  Fe71      1.0  0.50960  0.86935  0.47144  1.0000
  C   C498      1.0  0.50771  0.69545  0.47564  1.0000
  H   H850      1.0  0.50729  0.73090  0.46269  1.0000
  H   H851      1.0  0.50667  0.79893  0.04271  1.0000
  H   H852      1.0  0.50397  0.99441  0.50385  1.0000
  S   S142      1.0  0.53874  0.66878  0.67355  1.0000
  H   H853      1.0  0.65014  0.94521  0.53130  1.0000
  Fe  Fe72      1.0  0.53004  0.68984  0.61701  1.0000
  S   S143      1.0  0.54200  0.73330  0.61811  1.0000
  H   H854      1.0  0.53388  0.77749  0.61474  1.0000
  C   C499      1.0  0.54527  0.75489  0.57269  1.0000
  C   C500      1.0  0.53975  0.77516  0.58089  1.0000
  H   H855      1.0  0.50947  0.70739  0.89297  1.0000
  C   C501      1.0  0.54125  0.79214  0.54544  1.0000
  H   H856      1.0  0.51284  0.70084  0.81873  1.0000
  C   C502      1.0  0.55323  0.75243  0.52887  1.0000
  H   H857      1.0  0.53668  0.80741  0.55222  1.0000
  H   H858      1.0  0.55828  0.73748  0.52227  1.0000
  S   S144      1.0  0.53395  0.66565  0.56176  1.0000
  H   H859      1.0  0.62998  0.88188  0.51487  1.0000
  H   H860      1.0  0.50595  0.69023  0.97048  1.0000
  H   H861      1.0  0.66177  0.88566  0.51623  1.0000
  H   H862      1.0  0.65595  0.90805  0.54671  1.0000
  H   H863      1.0  0.51447  0.69817  0.51138  1.0000
  C   C503      1.0  0.65100  0.89665  0.51464  1.0000
  H   H864      1.0  0.61777  0.94026  0.53923  1.0000
  C   C504      1.0  0.63290  0.94355  0.51321  1.0000
